@<TRIPOS>MOLECULE
*****
 52 57 0 0 0
SMALL
GASTEIGER

@<TRIPOS>ATOM
      1 N          60.4795   86.2949   11.7802 N.am    1  UNL1       -0.2945
      2 C          59.7132   87.4852   11.5160 C.2     1  UNL1        0.2483
      3 O          58.9668   87.9700   12.4094 O.2     1  UNL1       -0.2701
      4 H          61.0170   85.8630   10.9956 H       1  UNL1        0.1501
      5 C          59.7584   88.1335   10.1882 C.ar    1  UNL1        0.0808
      6 C          59.1583   87.4983    9.0887 C.ar    1  UNL1        0.0080
      7 C          59.1977   88.0851    7.8216 C.ar    1  UNL1        0.0148
      8 C          59.8273   89.3253    7.6324 C.ar    1  UNL1        0.0502
      9 C          60.4137   89.9691    8.7324 C.ar    1  UNL1        0.0443
     10 C          60.3785   89.3837   10.0019 C.ar    1  UNL1        0.1457
     11 F          60.9103   90.0630   11.0495 F       1  UNL1       -0.2040
     12 N          59.8739   89.9342    6.3283 N.pl3   1  UNL1       -0.3040
     13 C          61.1066   89.9027    5.5337 C.3     1  UNL1        0.1123
     14 C          61.2895   91.2263    4.7861 C.3     1  UNL1        0.1136
     15 N          60.0386   91.6212    4.1223 N.pl3   1  UNL1       -0.2897
     16 C          58.8081   91.6360    4.9245 C.3     1  UNL1        0.1136
     17 C          58.6306   90.2994    5.6417 C.3     1  UNL1        0.1123
     18 C          60.0478   92.2497    2.8245 C.ar    1  UNL1        0.1318
     19 C          61.2497   92.6304    2.2055 C.ar    1  UNL1        0.0343
     20 C          61.2163   93.2384    0.9497 C.ar    1  UNL1        0.0083
     21 C          59.9889   93.4899    0.3184 C.ar    1  UNL1        0.0906
     22 C          58.8118   93.0784    0.9622 C.ar    1  UNL1        0.1041
     23 N          58.8694   92.4855    2.1839 N.ar    1  UNL1       -0.2292
     24 C          59.9414   94.1003   -1.0592 C.3     1  UNL1        0.4200
     25 F          61.0564   94.8898   -1.2820 F       1  UNL1       -0.1658
     26 F          58.8148   94.8914   -1.2042 F       1  UNL1       -0.1658
     27 F          59.9079   93.0911   -2.0031 F       1  UNL1       -0.1658
     28 C          60.4494   85.5524   13.0504 C.3     1  UNL1        0.1535
     29 C          59.6136   84.2981   12.9459 C.2     1  UNL1        0.2443
     30 O          58.3674   84.3475   13.1371 O.2     1  UNL1       -0.2730
     31 N          60.2554   83.0337   12.7150 N.am    1  UNL1       -0.2825
     32 H          61.2760   82.9595   12.9282 H       1  UNL1        0.1549
     33 C          59.5620   81.8427   12.3052 C.ar    1  UNL1        0.0535
     34 C          58.9942   81.7816   11.0251 C.ar    1  UNL1        0.0353
     35 C          58.2994   80.6357   10.6305 C.ar    1  UNL1        0.1002
     36 N          58.1612   79.5921   11.4903 N.ar    1  UNL1       -0.2422
     37 C          58.6835   79.6293   12.7445 C.ar    1  UNL1        0.1002
     38 C          59.3867   80.7558   13.1790 C.ar    1  UNL1        0.0353
     39 C          61.8734   85.2380   13.5550 C.3     1  UNL1        0.0569
     40 C          63.1849   89.5050   14.7171 C.ar    1  UNL1        0.0074
     41 C          63.4242   89.6342   16.1094 C.ar    1  UNL1       -0.0004
     42 C          63.2124   88.5482   16.9778 C.ar    1  UNL1        0.0167
     43 C          62.7714   87.3477   16.4258 C.ar    1  UNL1        0.0563
     44 N          62.5362   86.1922   17.0716 N.ar    1  UNL1       -0.3523
     45 C          62.1608   85.3038   16.1235 C.ar    1  UNL1        0.0681
     46 C          62.1496   85.9084   14.8698 C.ar    1  UNL1       -0.0017
     47 C          62.5503   87.2129   15.0802 C.ar    1  UNL1        0.0129
     48 C          62.7544   88.2672   14.1910 C.ar    1  UNL1       -0.0007
     49 H          62.6401   86.0081   18.0943 H       1  UNL1        0.1660
     50 C          63.4581   90.6573   13.7950 C.3     1  UNL1        0.1687
     51 C          63.9534   91.2273   11.6203 C.3     1  UNL1        0.1746
     52 O          63.6419   90.1601   12.4871 O.3     1  UNL1       -0.3463
@<TRIPOS>BOND
     1    51    52    1
     2    52    50    1
     3    50    40    1
     4    40    41   ar
     5    41    42   ar
     6    42    43   ar
     7    43    44   ar
     8    44    45   ar
     9    45    46   ar
    10    46    39    1
    11    39    28    1
    12    28     1    1
    13     1     2   am
    14     2     3    2
    15     2     5    1
    16     5     6   ar
    17     6     7   ar
    18     7     8   ar
    19     8    12    1
    20    12    13    1
    21    13    14    1
    22    14    15    1
    23    15    18    1
    24    18    19   ar
    25    19    20   ar
    26    20    21   ar
    27    21    24    1
    28    24    25    1
    29    24    26    1
    30    24    27    1
    31    21    22   ar
    32    22    23   ar
    33    15    16    1
    34    16    17    1
    35     8     9   ar
    36     9    10   ar
    37    10    11    1
    38    28    29    1
    39    29    30    2
    40    29    31   am
    41    31    33    1
    42    33    34   ar
    43    34    35   ar
    44    35    36   ar
    45    36    37   ar
    46    37    38   ar
    47    46    47   ar
    48    47    48   ar
    49    48    40   ar
    50    47    43   ar
    51    10     5   ar
    52    38    33   ar
    53    17    12    1
    54    23    18   ar
    55    44    49    1
    56     1     4    1
    57    31    32    1
@<TRIPOS>MOLECULE
*****
 52 57 0 0 0
SMALL
GASTEIGER

@<TRIPOS>ATOM
      1 N          61.2969   86.7237   11.9777 N.am    1  UNL1       -0.2945
      2 C          60.1530   87.5096   11.5934 C.2     1  UNL1        0.2483
      3 O          59.1727   87.6280   12.3777 O.2     1  UNL1       -0.2701
      4 H          62.0533   86.5665   11.2747 H       1  UNL1        0.1501
      5 C          60.0921   88.1555   10.2650 C.ar    1  UNL1        0.0808
      6 C          59.8184   87.3754    9.1296 C.ar    1  UNL1        0.0080
      7 C          59.7670   87.9605    7.8621 C.ar    1  UNL1        0.0148
      8 C          59.9758   89.3399    7.7075 C.ar    1  UNL1        0.0502
      9 C          60.2338   90.1237    8.8422 C.ar    1  UNL1        0.0443
     10 C          60.2885   89.5413   10.1124 C.ar    1  UNL1        0.1457
     11 F          60.4877   90.3418   11.1900 F       1  UNL1       -0.2040
     12 N          59.9271   89.9487    6.4034 N.pl3   1  UNL1       -0.3040
     13 C          61.1018   89.9264    5.5251 C.3     1  UNL1        0.1123
     14 C          61.2222   91.2511    4.7668 C.3     1  UNL1        0.1136
     15 N          59.9252   91.6361    4.1916 N.pl3   1  UNL1       -0.2897
     16 C          58.7533   91.6417    5.0773 C.3     1  UNL1        0.1136
     17 C          58.6363   90.3041    5.8049 C.3     1  UNL1        0.1123
     18 C          59.8394   92.2642    2.8964 C.ar    1  UNL1        0.1318
     19 C          60.9888   92.7074    2.2216 C.ar    1  UNL1        0.0343
     20 C          60.8635   93.3128    0.9704 C.ar    1  UNL1        0.0083
     21 C          59.5959   93.4996    0.3990 C.ar    1  UNL1        0.0906
     22 C          58.4741   93.0269    1.0974 C.ar    1  UNL1        0.1041
     23 N          58.6210   92.4379    2.3135 N.ar    1  UNL1       -0.2292
     24 C          59.4506   94.1066   -0.9732 C.3     1  UNL1        0.4200
     25 F          59.3428   93.1175   -1.9355 F       1  UNL1       -0.1658
     26 F          60.5497   94.8904   -1.2792 F       1  UNL1       -0.1658
     27 F          58.3138   94.8923   -1.0051 F       1  UNL1       -0.1658
     28 C          61.4166   85.9993   13.2530 C.3     1  UNL1        0.1535
     29 C          61.0175   84.5488   13.1125 C.2     1  UNL1        0.2443
     30 O          61.0873   83.7719   14.1042 O.2     1  UNL1       -0.2730
     31 N          60.6422   84.0368   11.8238 N.am    1  UNL1       -0.2825
     32 H          60.9418   84.5754   10.9796 H       1  UNL1        0.1549
     33 C          59.9688   82.7826   11.6216 C.ar    1  UNL1        0.0535
     34 C          60.6639   81.5846   11.8364 C.ar    1  UNL1        0.0353
     35 C          60.0211   80.3634   11.6190 C.ar    1  UNL1        0.1002
     36 N          58.7332   80.3383   11.1855 N.ar    1  UNL1       -0.2422
     37 C          58.0393   81.4829   10.9496 C.ar    1  UNL1        0.1002
     38 C          58.6440   82.7256   11.1555 C.ar    1  UNL1        0.0353
     39 C          62.8327   86.1368   13.8503 C.3     1  UNL1        0.0569
     40 C          63.9342   90.6152   13.9448 C.ar    1  UNL1        0.0074
     41 C          63.9174   91.1460   15.2603 C.ar    1  UNL1       -0.0004
     42 C          63.5456   90.3429   16.3535 C.ar    1  UNL1        0.0167
     43 C          63.2058   89.0157   16.1024 C.ar    1  UNL1        0.0563
     44 N          62.8510   88.0816   17.0021 N.ar    1  UNL1       -0.3523
     45 C          62.6493   86.9437   16.2998 C.ar    1  UNL1        0.0681
     46 C          62.8691   87.1657   14.9434 C.ar    1  UNL1       -0.0017
     47 C          63.2320   88.4935   14.8359 C.ar    1  UNL1        0.0129
     48 C          63.5998   89.2600   13.7307 C.ar    1  UNL1       -0.0007
     49 H          62.7665   88.2010   18.0361 H       1  UNL1        0.1660
     50 C          64.3765   91.4694   12.7927 C.3     1  UNL1        0.1687
     51 C          66.1384   92.9031   12.4188 C.3     1  UNL1        0.1746
     52 O          65.0824   92.5829   13.2962 O.3     1  UNL1       -0.3463
@<TRIPOS>BOND
     1    51    52    1
     2    52    50    1
     3    50    40    1
     4    40    41   ar
     5    41    42   ar
     6    42    43   ar
     7    43    44   ar
     8    44    45   ar
     9    45    46   ar
    10    46    39    1
    11    39    28    1
    12    28     1    1
    13     1     2   am
    14     2     3    2
    15     2     5    1
    16     5     6   ar
    17     6     7   ar
    18     7     8   ar
    19     8    12    1
    20    12    13    1
    21    13    14    1
    22    14    15    1
    23    15    18    1
    24    18    19   ar
    25    19    20   ar
    26    20    21   ar
    27    21    24    1
    28    24    25    1
    29    24    26    1
    30    24    27    1
    31    21    22   ar
    32    22    23   ar
    33    15    16    1
    34    16    17    1
    35     8     9   ar
    36     9    10   ar
    37    10    11    1
    38    28    29    1
    39    29    30    2
    40    29    31   am
    41    31    33    1
    42    33    34   ar
    43    34    35   ar
    44    35    36   ar
    45    36    37   ar
    46    37    38   ar
    47    46    47   ar
    48    47    48   ar
    49    48    40   ar
    50    47    43   ar
    51    10     5   ar
    52    38    33   ar
    53    17    12    1
    54    23    18   ar
    55    44    49    1
    56     1     4    1
    57    31    32    1
@<TRIPOS>MOLECULE
*****
 52 57 0 0 0
SMALL
GASTEIGER

@<TRIPOS>ATOM
      1 N          61.9049   83.9690   13.6365 N.am    1  UNL1       -0.2945
      2 C          60.6689   84.5342   13.1606 C.2     1  UNL1        0.2483
      3 O          59.5755   84.2126   13.7003 O.2     1  UNL1       -0.2701
      4 H          62.7843   84.1805   13.1139 H       1  UNL1        0.1501
      5 C          60.6567   85.4661   12.0130 C.ar    1  UNL1        0.0808
      6 C          59.4512   85.7116   11.3355 C.ar    1  UNL1        0.0080
      7 C          59.4161   86.5790   10.2410 C.ar    1  UNL1        0.0148
      8 C          60.5843   87.2275    9.8109 C.ar    1  UNL1        0.0502
      9 C          61.7866   86.9958   10.4959 C.ar    1  UNL1        0.0443
     10 C          61.8263   86.1264   11.5905 C.ar    1  UNL1        0.1457
     11 F          62.9970   85.9703   12.2588 F       1  UNL1       -0.2040
     12 N          60.5555   88.1205    8.6816 N.pl3   1  UNL1       -0.3040
     13 C          61.2306   89.4215    8.7416 C.3     1  UNL1        0.1123
     14 C          60.3987   90.4844    8.0187 C.3     1  UNL1        0.1136
     15 N          59.9516   89.9873    6.7094 N.pl3   1  UNL1       -0.2897
     16 C          59.2890   88.6773    6.6596 C.3     1  UNL1        0.1136
     17 C          60.1453   87.6266    7.3631 C.3     1  UNL1        0.1123
     18 C          59.8926   90.8571    5.5608 C.ar    1  UNL1        0.1318
     19 C          58.6859   91.4495    5.1539 C.ar    1  UNL1        0.0343
     20 C          58.6699   92.2837    4.0351 C.ar    1  UNL1        0.0083
     21 C          59.8467   92.5114    3.3061 C.ar    1  UNL1        0.0906
     22 C          61.0349   91.9150    3.7555 C.ar    1  UNL1        0.1041
     23 N          61.0265   91.1085    4.8496 N.ar    1  UNL1       -0.2292
     24 C          59.8532   93.4493    2.1259 C.3     1  UNL1        0.4200
     25 F          60.9439   93.2005    1.3107 F       1  UNL1       -0.1658
     26 F          59.9199   94.7657    2.5486 F       1  UNL1       -0.1658
     27 F          58.6939   93.2689    1.3950 F       1  UNL1       -0.1658
     28 C          62.0040   82.9911   14.7317 C.3     1  UNL1        0.1535
     29 C          61.5212   81.6239   14.3067 C.2     1  UNL1        0.2443
     30 O          62.0475   80.5852   14.7926 O.2     1  UNL1       -0.2730
     31 N          60.5210   81.5104   13.2818 N.am    1  UNL1       -0.2825
     32 H          60.3764   82.3301   12.6496 H       1  UNL1        0.1549
     33 C          59.7801   80.3084   13.0106 C.ar    1  UNL1        0.0535
     34 C          59.3869   80.0228   11.6960 C.ar    1  UNL1        0.0353
     35 C          58.6468   78.8681   11.4307 C.ar    1  UNL1        0.1002
     36 N          58.2962   78.0346   12.4454 N.ar    1  UNL1       -0.2422
     37 C          58.6459   78.2945   13.7329 C.ar    1  UNL1        0.1002
     38 C          59.3871   79.4379   14.0419 C.ar    1  UNL1        0.0353
     39 C          63.4352   82.9281   15.3053 C.3     1  UNL1        0.0569
     40 C          62.2306   87.3682   15.6413 C.ar    1  UNL1        0.0074
     41 C          63.2644   88.2403   15.2133 C.ar    1  UNL1       -0.0004
     42 C          64.5069   87.7300   14.7960 C.ar    1  UNL1        0.0167
     43 C          64.6824   86.3482   14.8089 C.ar    1  UNL1        0.0563
     44 N          65.7738   85.6623   14.4269 N.ar    1  UNL1       -0.3523
     45 C          65.4672   84.3545   14.5835 C.ar    1  UNL1        0.0681
     46 C          64.1737   84.2157   15.0787 C.ar    1  UNL1       -0.0017
     47 C          63.6836   85.4999   15.2093 C.ar    1  UNL1        0.0129
     48 C          62.4390   85.9716   15.6247 C.ar    1  UNL1       -0.0007
     49 H          66.6708   86.0545   14.0635 H       1  UNL1        0.1660
     50 C          60.8941   87.9222   16.0410 C.3     1  UNL1        0.1687
     51 C          59.5685   88.4489   14.2341 C.3     1  UNL1        0.1746
     52 O          60.5347   88.9422   15.1344 O.3     1  UNL1       -0.3463
@<TRIPOS>BOND
     1    51    52    1
     2    52    50    1
     3    50    40    1
     4    40    41   ar
     5    41    42   ar
     6    42    43   ar
     7    43    44   ar
     8    44    45   ar
     9    45    46   ar
    10    46    39    1
    11    39    28    1
    12    28     1    1
    13     1     2   am
    14     2     3    2
    15     2     5    1
    16     5     6   ar
    17     6     7   ar
    18     7     8   ar
    19     8    12    1
    20    12    13    1
    21    13    14    1
    22    14    15    1
    23    15    18    1
    24    18    19   ar
    25    19    20   ar
    26    20    21   ar
    27    21    24    1
    28    24    25    1
    29    24    26    1
    30    24    27    1
    31    21    22   ar
    32    22    23   ar
    33    15    16    1
    34    16    17    1
    35     8     9   ar
    36     9    10   ar
    37    10    11    1
    38    28    29    1
    39    29    30    2
    40    29    31   am
    41    31    33    1
    42    33    34   ar
    43    34    35   ar
    44    35    36   ar
    45    36    37   ar
    46    37    38   ar
    47    46    47   ar
    48    47    48   ar
    49    48    40   ar
    50    47    43   ar
    51    10     5   ar
    52    38    33   ar
    53    17    12    1
    54    23    18   ar
    55    44    49    1
    56     1     4    1
    57    31    32    1
@<TRIPOS>MOLECULE
*****
 52 57 0 0 0
SMALL
GASTEIGER

@<TRIPOS>ATOM
      1 N          60.3372   86.2881   11.7386 N.am    1  UNL1       -0.2945
      2 C          59.6393   87.5237   11.4937 C.2     1  UNL1        0.2483
      3 O          58.9492   88.0536   12.4065 O.2     1  UNL1       -0.2701
      4 H          60.8252   85.8239   10.9402 H       1  UNL1        0.1501
      5 C          59.6882   88.1683   10.1642 C.ar    1  UNL1        0.0808
      6 C          59.3670   87.4185    9.0209 C.ar    1  UNL1        0.0080
      7 C          59.4171   88.0018    7.7525 C.ar    1  UNL1        0.0148
      8 C          59.7772   89.3504    7.6046 C.ar    1  UNL1        0.0502
      9 C          60.0831   90.1055    8.7467 C.ar    1  UNL1        0.0443
     10 C          60.0366   89.5246   10.0179 C.ar    1  UNL1        0.1457
     11 F          60.2876   90.3025   11.1012 F       1  UNL1       -0.2040
     12 N          59.8335   89.9568    6.2997 N.pl3   1  UNL1       -0.3040
     13 C          60.9805   89.7209    5.4161 C.3     1  UNL1        0.1123
     14 C          61.3357   91.0011    4.6550 C.3     1  UNL1        0.1136
     15 N          60.1274   91.6147    4.0852 N.pl3   1  UNL1       -0.2897
     16 C          58.9803   91.8337    4.9762 C.3     1  UNL1        0.1136
     17 C          58.6258   90.5402    5.7065 C.3     1  UNL1        0.1123
     18 C          60.1508   92.2469    2.7893 C.ar    1  UNL1        0.1318
     19 C          61.3581   92.6465    2.1929 C.ar    1  UNL1        0.0343
     20 C          61.3384   93.2574    0.9382 C.ar    1  UNL1        0.0083
     21 C          60.1191   93.4931    0.2856 C.ar    1  UNL1        0.0906
     22 C          58.9367   93.0631    0.9072 C.ar    1  UNL1        0.1041
     23 N          58.9809   92.4677    2.1283 N.ar    1  UNL1       -0.2292
     24 C          60.0875   94.1066   -1.0910 C.3     1  UNL1        0.4200
     25 F          58.9591   94.8925   -1.2494 F       1  UNL1       -0.1658
     26 F          60.0695   93.1222   -2.0640 F       1  UNL1       -0.1658
     27 F          61.2116   94.8918   -1.2651 F       1  UNL1       -0.1658
     28 C          60.2960   85.5485   13.0102 C.3     1  UNL1        0.1535
     29 C          60.8174   86.3803   14.1587 C.2     1  UNL1        0.2443
     30 O          60.6780   85.9802   15.3472 O.2     1  UNL1       -0.2730
     31 N          61.3938   87.6700   13.8978 N.am    1  UNL1       -0.2825
     32 H          61.1667   88.1297   12.9870 H       1  UNL1        0.1549
     33 C          62.1797   88.4072   14.8497 C.ar    1  UNL1        0.0535
     34 C          62.3262   87.9127   16.1530 C.ar    1  UNL1        0.0353
     35 C          63.0695   88.6369   17.0882 C.ar    1  UNL1        0.1002
     36 N          63.6338   89.8232   16.7398 N.ar    1  UNL1       -0.2422
     37 C          63.4933   90.3382   15.4898 C.ar    1  UNL1        0.1002
     38 C          62.7590   89.6457   14.5237 C.ar    1  UNL1        0.0353
     39 C          58.8805   85.0091   13.3045 C.3     1  UNL1        0.0569
     40 C          59.7947   81.0859   11.0572 C.ar    1  UNL1        0.0074
     41 C          59.0123   80.9436    9.8824 C.ar    1  UNL1       -0.0004
     42 C          58.0507   81.9110    9.5391 C.ar    1  UNL1        0.0167
     43 C          57.9011   83.0100   10.3817 C.ar    1  UNL1        0.0563
     44 N          57.0654   84.0510   10.2217 N.ar    1  UNL1       -0.3523
     45 C          57.2976   84.8803   11.2644 C.ar    1  UNL1        0.0681
     46 C          58.2818   84.3517   12.0946 C.ar    1  UNL1       -0.0017
     47 C          58.6623   83.1595   11.5112 C.ar    1  UNL1        0.0129
     48 C          59.6270   82.2223   11.8785 C.ar    1  UNL1       -0.0007
     49 H          56.3874   84.2022    9.4420 H       1  UNL1        0.1660
     50 C          60.8489   80.0702   11.3886 C.3     1  UNL1        0.1687
     51 C          62.2219   79.4322    9.6544 C.3     1  UNL1        0.1746
     52 O          62.0248   80.3850   10.6745 O.3     1  UNL1       -0.3463
@<TRIPOS>BOND
     1    51    52    1
     2    52    50    1
     3    50    40    1
     4    40    41   ar
     5    41    42   ar
     6    42    43   ar
     7    43    44   ar
     8    44    45   ar
     9    45    46   ar
    10    46    39    1
    11    39    28    1
    12    28     1    1
    13     1     2   am
    14     2     3    2
    15     2     5    1
    16     5     6   ar
    17     6     7   ar
    18     7     8   ar
    19     8    12    1
    20    12    13    1
    21    13    14    1
    22    14    15    1
    23    15    18    1
    24    18    19   ar
    25    19    20   ar
    26    20    21   ar
    27    21    24    1
    28    24    25    1
    29    24    26    1
    30    24    27    1
    31    21    22   ar
    32    22    23   ar
    33    15    16    1
    34    16    17    1
    35     8     9   ar
    36     9    10   ar
    37    10    11    1
    38    28    29    1
    39    29    30    2
    40    29    31   am
    41    31    33    1
    42    33    34   ar
    43    34    35   ar
    44    35    36   ar
    45    36    37   ar
    46    37    38   ar
    47    46    47   ar
    48    47    48   ar
    49    48    40   ar
    50    47    43   ar
    51    10     5   ar
    52    38    33   ar
    53    17    12    1
    54    23    18   ar
    55    44    49    1
    56     1     4    1
    57    31    32    1
@<TRIPOS>MOLECULE
*****
 52 57 0 0 0
SMALL
GASTEIGER

@<TRIPOS>ATOM
      1 N          61.1883   87.0669   12.0098 N.am    1  UNL1       -0.2945
      2 C          59.9554   87.6057   11.4965 C.2     1  UNL1        0.2483
      3 O          58.8921   87.5057   12.1670 O.2     1  UNL1       -0.2701
      4 H          62.0331   87.0812   11.3957 H       1  UNL1        0.1501
      5 C          59.9076   88.2475   10.1655 C.ar    1  UNL1        0.0808
      6 C          59.4218   87.5214    9.0658 C.ar    1  UNL1        0.0080
      7 C          59.3775   88.1018    7.7959 C.ar    1  UNL1        0.0148
      8 C          59.8065   89.4245    7.6040 C.ar    1  UNL1        0.0502
      9 C          60.2774   90.1568    8.7041 C.ar    1  UNL1        0.0443
     10 C          60.3256   89.5786    9.9765 C.ar    1  UNL1        0.1457
     11 F          60.7373   90.3372   11.0237 F       1  UNL1       -0.2040
     12 N          59.7661   90.0276    6.2970 N.pl3   1  UNL1       -0.3040
     13 C          60.9421   89.9895    5.4209 C.3     1  UNL1        0.1123
     14 C          61.0771   91.3093    4.6567 C.3     1  UNL1        0.1136
     15 N          59.7850   91.7046    4.0774 N.pl3   1  UNL1       -0.2897
     16 C          58.6117   91.7261    4.9610 C.3     1  UNL1        0.1136
     17 C          58.4800   90.3931    5.6946 C.3     1  UNL1        0.1123
     18 C          59.7078   92.3274    2.7791 C.ar    1  UNL1        0.1318
     19 C          60.6574   93.2763    2.3662 C.ar    1  UNL1        0.0343
     20 C          60.5465   93.8583    1.1025 C.ar    1  UNL1        0.0083
     21 C          59.4800   93.5161    0.2577 C.ar    1  UNL1        0.0906
     22 C          58.5623   92.5511    0.7006 C.ar    1  UNL1        0.1041
     23 N          58.6924   91.9959    1.9343 N.ar    1  UNL1       -0.2292
     24 C          59.3765   94.0999   -1.1283 C.3     1  UNL1        0.4200
     25 F          59.2933   93.0948   -2.0763 F       1  UNL1       -0.1658
     26 F          60.4866   94.8753   -1.4157 F       1  UNL1       -0.1658
     27 F          58.2437   94.8881   -1.2066 F       1  UNL1       -0.1658
     28 C          61.3153   86.3614   13.2949 C.3     1  UNL1        0.1535
     29 C          60.7047   84.9804   13.2382 C.2     1  UNL1        0.2443
     30 O          60.2739   84.4328   14.2901 O.2     1  UNL1       -0.2730
     31 N          60.6968   84.2575   11.9968 N.am    1  UNL1       -0.2825
     32 H          61.3684   84.5575   11.2542 H       1  UNL1        0.1549
     33 C          59.8949   83.0896   11.7514 C.ar    1  UNL1        0.0535
     34 C          60.3833   81.8284   12.1193 C.ar    1  UNL1        0.0353
     35 C          59.6181   80.6882   11.8619 C.ar    1  UNL1        0.1002
     36 N          58.4135   80.8009   11.2428 N.ar    1  UNL1       -0.2422
     37 C          57.9219   82.0078   10.8565 C.ar    1  UNL1        0.1002
     38 C          58.6543   83.1733   11.0959 C.ar    1  UNL1        0.0353
     39 C          62.7833   86.3074   13.7673 C.3     1  UNL1        0.0569
     40 C          63.1969   84.7221    9.4553 C.ar    1  UNL1        0.0074
     41 C          63.9157   83.5004    9.3975 C.ar    1  UNL1       -0.0004
     42 C          64.4536   82.9284   10.5645 C.ar    1  UNL1        0.0167
     43 C          64.2497   83.5938   11.7711 C.ar    1  UNL1        0.0563
     44 N          64.6538   83.2060   12.9934 N.ar    1  UNL1       -0.3523
     45 C          64.1990   84.1457   13.8530 C.ar    1  UNL1        0.0681
     46 C          63.5107   85.1404   13.1643 C.ar    1  UNL1       -0.0017
     47 C          63.5457   84.7676   11.8353 C.ar    1  UNL1        0.0129
     48 C          62.9954   85.3595   10.6992 C.ar    1  UNL1       -0.0007
     49 H          65.1921   82.3448   13.2366 H       1  UNL1        0.1660
     50 C          62.5889   85.2987    8.2101 C.3     1  UNL1        0.1687
     51 C          60.6880   84.3481    7.3256 C.3     1  UNL1        0.1746
     52 O          62.0909   84.2437    7.4160 O.3     1  UNL1       -0.3463
@<TRIPOS>BOND
     1    51    52    1
     2    52    50    1
     3    50    40    1
     4    40    41   ar
     5    41    42   ar
     6    42    43   ar
     7    43    44   ar
     8    44    45   ar
     9    45    46   ar
    10    46    39    1
    11    39    28    1
    12    28     1    1
    13     1     2   am
    14     2     3    2
    15     2     5    1
    16     5     6   ar
    17     6     7   ar
    18     7     8   ar
    19     8    12    1
    20    12    13    1
    21    13    14    1
    22    14    15    1
    23    15    18    1
    24    18    19   ar
    25    19    20   ar
    26    20    21   ar
    27    21    24    1
    28    24    25    1
    29    24    26    1
    30    24    27    1
    31    21    22   ar
    32    22    23   ar
    33    15    16    1
    34    16    17    1
    35     8     9   ar
    36     9    10   ar
    37    10    11    1
    38    28    29    1
    39    29    30    2
    40    29    31   am
    41    31    33    1
    42    33    34   ar
    43    34    35   ar
    44    35    36   ar
    45    36    37   ar
    46    37    38   ar
    47    46    47   ar
    48    47    48   ar
    49    48    40   ar
    50    47    43   ar
    51    10     5   ar
    52    38    33   ar
    53    17    12    1
    54    23    18   ar
    55    44    49    1
    56     1     4    1
    57    31    32    1
@<TRIPOS>MOLECULE
*****
 52 57 0 0 0
SMALL
GASTEIGER

@<TRIPOS>ATOM
      1 N          61.9396   87.7286   12.1972 N.am    1  UNL1       -0.2945
      2 C          60.6437   88.0972   11.6889 C.2     1  UNL1        0.2483
      3 O          59.6110   87.9057   12.3868 O.2     1  UNL1       -0.2701
      4 H          62.7663   87.8124   11.5643 H       1  UNL1        0.1501
      5 C          60.4984   88.6674   10.3326 C.ar    1  UNL1        0.0808
      6 C          59.7743   87.9593    9.3597 C.ar    1  UNL1        0.0080
      7 C          59.6327   88.4716    8.0677 C.ar    1  UNL1        0.0148
      8 C          60.2023   89.7086    7.7278 C.ar    1  UNL1        0.0502
      9 C          60.9128   90.4251    8.7026 C.ar    1  UNL1        0.0443
     10 C          61.0588   89.9145    9.9963 C.ar    1  UNL1        0.1457
     11 F          61.7073   90.6624   10.9245 F       1  UNL1       -0.2040
     12 N          60.0625   90.2409    6.3971 N.pl3   1  UNL1       -0.3040
     13 C          61.2090   90.2743    5.4825 C.3     1  UNL1        0.1123
     14 C          61.1899   91.5623    4.6550 C.3     1  UNL1        0.1136
     15 N          59.8479   91.8021    4.1046 N.pl3   1  UNL1       -0.2897
     16 C          58.7060   91.7528    5.0272 C.3     1  UNL1        0.1136
     17 C          58.7287   90.4505    5.8246 C.3     1  UNL1        0.1123
     18 C          59.6699   92.3508    2.7829 C.ar    1  UNL1        0.1318
     19 C          60.7690   92.6407    1.9579 C.ar    1  UNL1        0.0343
     20 C          60.5548   93.1734    0.6857 C.ar    1  UNL1        0.0083
     21 C          59.2512   93.4403    0.2413 C.ar    1  UNL1        0.0906
     22 C          58.1796   93.1202    1.0890 C.ar    1  UNL1        0.1041
     23 N          58.4126   92.5995    2.3226 N.ar    1  UNL1       -0.2292
     24 C          59.0037   93.9687   -1.1487 C.3     1  UNL1        0.4200
     25 F          57.7663   94.5845   -1.2236 F       1  UNL1       -0.1658
     26 F          59.0322   92.9400   -2.0744 F       1  UNL1       -0.1658
     27 F          59.9849   94.8888   -1.4671 F       1  UNL1       -0.1658
     28 C          62.1701   87.1022   13.5087 C.3     1  UNL1        0.1535
     29 C          62.0899   85.5954   13.4313 C.2     1  UNL1        0.2443
     30 O          61.0902   85.0391   12.8992 O.2     1  UNL1       -0.2730
     31 N          63.1145   84.7968   14.0446 N.am    1  UNL1       -0.2825
     32 H          63.7096   85.2466   14.7768 H       1  UNL1        0.1549
     33 C          63.3052   83.3955   13.7854 C.ar    1  UNL1        0.0535
     34 C          64.1189   82.9968   12.7161 C.ar    1  UNL1        0.0353
     35 C          64.2887   81.6367   12.4457 C.ar    1  UNL1        0.1002
     36 N          63.6544   80.7059   13.2063 N.ar    1  UNL1       -0.2422
     37 C          62.8437   81.0617   14.2375 C.ar    1  UNL1        0.1002
     38 C          62.6473   82.4110   14.5428 C.ar    1  UNL1        0.0353
     39 C          63.5067   87.5624   14.1277 C.3     1  UNL1        0.0569
     40 C          65.7969   91.5304   14.6635 C.ar    1  UNL1        0.0074
     41 C          65.2865   92.3060   15.7362 C.ar    1  UNL1       -0.0004
     42 C          64.1713   91.8666   16.4722 C.ar    1  UNL1        0.0167
     43 C          63.5956   90.6483   16.1197 C.ar    1  UNL1        0.0563
     44 N          62.5499   90.0412   16.7076 N.ar    1  UNL1       -0.3523
     45 C          62.3758   88.8739   16.0474 C.ar    1  UNL1        0.0681
     46 C          63.3145   88.7491   15.0272 C.ar    1  UNL1       -0.0017
     47 C          64.0914   89.8886   15.0927 C.ar    1  UNL1        0.0129
     48 C          65.1975   90.2919   14.3458 C.ar    1  UNL1       -0.0007
     49 H          61.9947   90.3876   17.5214 H       1  UNL1        0.1660
     50 C          67.0149   91.9879   13.9152 C.3     1  UNL1        0.1687
     51 C          68.6988   92.8227   15.2445 C.3     1  UNL1        0.1746
     52 O          67.5229   93.1479   14.5381 O.3     1  UNL1       -0.3463
@<TRIPOS>BOND
     1    51    52    1
     2    52    50    1
     3    50    40    1
     4    40    41   ar
     5    41    42   ar
     6    42    43   ar
     7    43    44   ar
     8    44    45   ar
     9    45    46   ar
    10    46    39    1
    11    39    28    1
    12    28     1    1
    13     1     2   am
    14     2     3    2
    15     2     5    1
    16     5     6   ar
    17     6     7   ar
    18     7     8   ar
    19     8    12    1
    20    12    13    1
    21    13    14    1
    22    14    15    1
    23    15    18    1
    24    18    19   ar
    25    19    20   ar
    26    20    21   ar
    27    21    24    1
    28    24    25    1
    29    24    26    1
    30    24    27    1
    31    21    22   ar
    32    22    23   ar
    33    15    16    1
    34    16    17    1
    35     8     9   ar
    36     9    10   ar
    37    10    11    1
    38    28    29    1
    39    29    30    2
    40    29    31   am
    41    31    33    1
    42    33    34   ar
    43    34    35   ar
    44    35    36   ar
    45    36    37   ar
    46    37    38   ar
    47    46    47   ar
    48    47    48   ar
    49    48    40   ar
    50    47    43   ar
    51    10     5   ar
    52    38    33   ar
    53    17    12    1
    54    23    18   ar
    55    44    49    1
    56     1     4    1
    57    31    32    1
@<TRIPOS>MOLECULE
*****
 52 57 0 0 0
SMALL
GASTEIGER

@<TRIPOS>ATOM
      1 N          61.2233   85.0387   13.5389 N.am    1  UNL1       -0.2945
      2 C          60.0071   85.7175   13.1732 C.2     1  UNL1        0.2483
      3 O          58.9550   85.5395   13.8453 O.2     1  UNL1       -0.2701
      4 H          62.0543   85.1314   12.9129 H       1  UNL1        0.1501
      5 C          59.9614   86.5995   11.9876 C.ar    1  UNL1        0.0808
      6 C          59.8090   86.0335   10.7113 C.ar    1  UNL1        0.0080
      7 C          59.7747   86.8450    9.5747 C.ar    1  UNL1        0.0148
      8 C          59.8793   88.2396    9.6941 C.ar    1  UNL1        0.0502
      9 C          60.0158   88.8082   10.9694 C.ar    1  UNL1        0.0443
     10 C          60.0531   87.9991   12.1095 C.ar    1  UNL1        0.1457
     11 F          60.1325   88.5909   13.3281 F       1  UNL1       -0.2040
     12 N          59.8475   89.0814    8.5262 N.pl3   1  UNL1       -0.3040
     13 C          58.8244   88.8862    7.4933 C.3     1  UNL1        0.1123
     14 C          59.4263   89.1052    6.1026 C.3     1  UNL1        0.1136
     15 N          60.2234   90.3401    6.0740 N.pl3   1  UNL1       -0.2897
     16 C          61.2356   90.5310    7.1211 C.3     1  UNL1        0.1136
     17 C          60.6106   90.3335    8.5005 C.3     1  UNL1        0.1123
     18 C          60.2301   91.1980    4.9149 C.ar    1  UNL1        0.1318
     19 C          59.0616   91.8413    4.4751 C.ar    1  UNL1        0.0343
     20 C          59.1090   92.6620    3.3471 C.ar    1  UNL1        0.0083
     21 C          60.3106   92.8257    2.6419 C.ar    1  UNL1        0.0906
     22 C          61.4595   92.1798    3.1239 C.ar    1  UNL1        0.1041
     23 N          61.3896   91.3877    4.2263 N.ar    1  UNL1       -0.2292
     24 C          60.3866   93.7482    1.4520 C.3     1  UNL1        0.4200
     25 F          59.1325   94.2420    1.1364 F       1  UNL1       -0.1658
     26 F          60.8790   93.0782    0.3454 F       1  UNL1       -0.1658
     27 F          61.2257   94.8056    1.7489 F       1  UNL1       -0.1658
     28 C          61.3440   84.0993   14.6652 C.3     1  UNL1        0.1535
     29 C          61.1304   82.6692   14.2268 C.2     1  UNL1        0.2443
     30 O          61.9093   81.7598   14.6247 O.2     1  UNL1       -0.2730
     31 N          60.0899   82.3627   13.2848 N.am    1  UNL1       -0.2825
     32 H          59.7161   83.1446   12.7006 H       1  UNL1        0.1549
     33 C          59.6036   81.0343   13.0277 C.ar    1  UNL1        0.0535
     34 C          59.2149   80.6821   11.7279 C.ar    1  UNL1        0.0353
     35 C          58.7198   79.4000   11.4774 C.ar    1  UNL1        0.1002
     36 N          58.6007   78.5045   12.4929 N.ar    1  UNL1       -0.2422
     37 C          58.9509   78.8227   13.7671 C.ar    1  UNL1        0.1002
     38 C          59.4515   80.0936   14.0610 C.ar    1  UNL1        0.0353
     39 C          62.6913   84.2665   15.3987 C.3     1  UNL1        0.0569
     40 C          63.3613   88.6860   14.2595 C.ar    1  UNL1        0.0074
     41 C          63.4144   89.5328   15.3964 C.ar    1  UNL1       -0.0004
     42 C          63.2234   89.0119   16.6888 C.ar    1  UNL1        0.0167
     43 C          62.9911   87.6441   16.8133 C.ar    1  UNL1        0.0563
     44 N          62.8117   86.9486   17.9499 N.ar    1  UNL1       -0.3523
     45 C          62.6566   85.6578   17.5777 C.ar    1  UNL1        0.0681
     46 C          62.7288   85.5405   16.1926 C.ar    1  UNL1       -0.0017
     47 C          62.9509   86.8188   15.7202 C.ar    1  UNL1        0.0129
     48 C          63.1405   87.3011   14.4258 C.ar    1  UNL1       -0.0007
     49 H          62.8114   87.3221   18.9251 H       1  UNL1        0.1660
     50 C          63.6119   89.2461   12.8897 C.3     1  UNL1        0.1687
     51 C          63.0482   90.9879   11.4940 C.3     1  UNL1        0.1746
     52 O          62.6494   90.2430   12.6225 O.3     1  UNL1       -0.3463
@<TRIPOS>BOND
     1    51    52    1
     2    52    50    1
     3    50    40    1
     4    40    41   ar
     5    41    42   ar
     6    42    43   ar
     7    43    44   ar
     8    44    45   ar
     9    45    46   ar
    10    46    39    1
    11    39    28    1
    12    28     1    1
    13     1     2   am
    14     2     3    2
    15     2     5    1
    16     5     6   ar
    17     6     7   ar
    18     7     8   ar
    19     8    12    1
    20    12    13    1
    21    13    14    1
    22    14    15    1
    23    15    18    1
    24    18    19   ar
    25    19    20   ar
    26    20    21   ar
    27    21    24    1
    28    24    25    1
    29    24    26    1
    30    24    27    1
    31    21    22   ar
    32    22    23   ar
    33    15    16    1
    34    16    17    1
    35     8     9   ar
    36     9    10   ar
    37    10    11    1
    38    28    29    1
    39    29    30    2
    40    29    31   am
    41    31    33    1
    42    33    34   ar
    43    34    35   ar
    44    35    36   ar
    45    36    37   ar
    46    37    38   ar
    47    46    47   ar
    48    47    48   ar
    49    48    40   ar
    50    47    43   ar
    51    10     5   ar
    52    38    33   ar
    53    17    12    1
    54    23    18   ar
    55    44    49    1
    56     1     4    1
    57    31    32    1
@<TRIPOS>MOLECULE
*****
 52 57 0 0 0
SMALL
GASTEIGER

@<TRIPOS>ATOM
      1 N          58.8170   84.7321   11.8956 N.am    1  UNL1       -0.2945
      2 C          58.9885   86.0795   11.4173 C.2     1  UNL1        0.2483
      3 O          58.2403   86.5292   10.5072 O.2     1  UNL1       -0.2701
      4 H          59.5073   84.3549   12.5828 H       1  UNL1        0.1501
      5 C          60.0631   86.9409   11.9546 C.ar    1  UNL1        0.0808
      6 C          59.8639   87.6170   13.1693 C.ar    1  UNL1        0.0080
      7 C          60.8597   88.4458   13.6919 C.ar    1  UNL1        0.0148
      8 C          62.0793   88.6042   13.0154 C.ar    1  UNL1        0.0502
      9 C          62.2866   87.9173   11.8098 C.ar    1  UNL1        0.0443
     10 C          61.2913   87.0887   11.2822 C.ar    1  UNL1        0.1457
     11 F          61.5509   86.4005   10.1417 F       1  UNL1       -0.2040
     12 N          63.1087   89.4593   13.5472 N.pl3   1  UNL1       -0.3040
     13 C          63.3650   90.7763   12.9540 C.3     1  UNL1        0.1123
     14 C          64.8680   91.0682   12.9403 C.3     1  UNL1        0.1136
     15 N          65.4652   90.7611   14.2480 N.pl3   1  UNL1       -0.2897
     16 C          65.1907   89.4445   14.8386 C.3     1  UNL1        0.1136
     17 C          63.6863   89.1829   14.8665 C.3     1  UNL1        0.1123
     18 C          66.5106   91.5846   14.8036 C.ar    1  UNL1        0.1318
     19 C          66.2839   92.3918   15.9305 C.ar    1  UNL1        0.0343
     20 C          67.3212   93.1765   16.4366 C.ar    1  UNL1        0.0083
     21 C          68.5767   93.1782   15.8106 C.ar    1  UNL1        0.0906
     22 C          68.7675   92.3447   14.6978 C.ar    1  UNL1        0.1041
     23 N          67.7431   91.5871   14.2245 N.ar    1  UNL1       -0.2292
     24 C          69.7191   93.9826   16.3765 C.3     1  UNL1        0.4200
     25 F          70.6472   93.1531   16.9821 F       1  UNL1       -0.1658
     26 F          69.2608   94.8831   17.3226 F       1  UNL1       -0.1658
     27 F          70.3362   94.6783   15.3538 F       1  UNL1       -0.1658
     28 C          57.8144   83.7878   11.3773 C.3     1  UNL1        0.1535
     29 C          58.1147   83.3775    9.9545 C.2     1  UNL1        0.2443
     30 O          57.1759   83.0600    9.1735 O.2     1  UNL1       -0.2730
     31 N          59.4795   83.2654    9.5203 N.am    1  UNL1       -0.2825
     32 H          60.2175   83.1676   10.2539 H       1  UNL1        0.1549
     33 C          59.8806   83.1798    8.1422 C.ar    1  UNL1        0.0535
     34 C          60.6762   84.1939    7.5916 C.ar    1  UNL1        0.0353
     35 C          61.0492   84.1273    6.2470 C.ar    1  UNL1        0.1002
     36 N          60.6287   83.0922    5.4731 N.ar    1  UNL1       -0.2422
     37 C          59.8405   82.1041    5.9731 C.ar    1  UNL1        0.1002
     38 C          59.4454   82.1316    7.3130 C.ar    1  UNL1        0.0353
     39 C          57.6679   82.5577   12.2975 C.3     1  UNL1        0.0569
     40 C          62.1811   82.1218   13.1457 C.ar    1  UNL1        0.0074
     41 C          62.7371   80.9739   12.5247 C.ar    1  UNL1       -0.0004
     42 C          61.9247   80.0900   11.7918 C.ar    1  UNL1        0.0167
     43 C          60.5670   80.3839   11.6901 C.ar    1  UNL1        0.0563
     44 N          59.6314   79.6895   11.0191 N.ar    1  UNL1       -0.3523
     45 C          58.4744   80.3713   11.1778 C.ar    1  UNL1        0.0681
     46 C          58.6810   81.5005   11.9649 C.ar    1  UNL1       -0.0017
     47 C          60.0260   81.4976   12.2771 C.ar    1  UNL1        0.0129
     48 C          60.8029   82.3966   13.0067 C.ar    1  UNL1       -0.0007
     49 H          59.7696   78.8125   10.4692 H       1  UNL1        0.1660
     50 C          63.0659   83.0814   13.8866 C.3     1  UNL1        0.1687
     51 C          63.0468   84.6156   15.6028 C.3     1  UNL1        0.1746
     52 O          62.4217   83.4642   15.0825 O.3     1  UNL1       -0.3463
@<TRIPOS>BOND
     1    51    52    1
     2    52    50    1
     3    50    40    1
     4    40    41   ar
     5    41    42   ar
     6    42    43   ar
     7    43    44   ar
     8    44    45   ar
     9    45    46   ar
    10    46    39    1
    11    39    28    1
    12    28     1    1
    13     1     2   am
    14     2     3    2
    15     2     5    1
    16     5     6   ar
    17     6     7   ar
    18     7     8   ar
    19     8    12    1
    20    12    13    1
    21    13    14    1
    22    14    15    1
    23    15    18    1
    24    18    19   ar
    25    19    20   ar
    26    20    21   ar
    27    21    24    1
    28    24    25    1
    29    24    26    1
    30    24    27    1
    31    21    22   ar
    32    22    23   ar
    33    15    16    1
    34    16    17    1
    35     8     9   ar
    36     9    10   ar
    37    10    11    1
    38    28    29    1
    39    29    30    2
    40    29    31   am
    41    31    33    1
    42    33    34   ar
    43    34    35   ar
    44    35    36   ar
    45    36    37   ar
    46    37    38   ar
    47    46    47   ar
    48    47    48   ar
    49    48    40   ar
    50    47    43   ar
    51    10     5   ar
    52    38    33   ar
    53    17    12    1
    54    23    18   ar
    55    44    49    1
    56     1     4    1
    57    31    32    1
