@<TRIPOS>MOLECULE
*****
 42 48 0 0 0
SMALL
GASTEIGER

@<TRIPOS>ATOM
      1 C         -10.0880   -6.0062   31.2359 C.3     1  UNL1        0.1158
      2 N          -8.9803   -5.4477   31.7834 N.3     1  UNL1       -0.2851
      3 C          -8.0926   -6.4509   31.7779 C.3     1  UNL1        0.0910
      4 C          -6.7915   -6.4084   32.2500 C.3     1  UNL1        0.1018
      5 C          -6.0362   -7.5846   32.1638 C.3     1  UNL1        0.3136
      6 N          -6.5700   -8.7371   31.6289 N.am    1  UNL1       -0.1294
      7 C          -7.8810   -8.7668   31.1942 C.2     1  UNL1        0.4047
      8 O          -8.3869   -9.8381   30.7674 O.2     1  UNL1       -0.2174
      9 C          -8.6387   -7.5818   31.2523 C.3     1  UNL1        0.2038
     10 N          -9.9166   -7.3193   30.8783 N.3     1  UNL1       -0.2473
     11 H          -9.1645   -5.1284   32.7345 H       1  UNL1        0.1244
     12 C         -10.8921   -8.2484   30.2666 C.3     1  UNL1        0.0817
     13 C         -10.3919   -8.8357   28.9280 C.3     1  UNL1        0.0252
     14 C         -10.6297  -10.3582   28.9911 C.3     1  UNL1        0.0278
     15 C         -11.0540  -10.6022   30.3920 C.ar    1  UNL1       -0.0248
     16 C         -11.3645  -11.8369   30.9650 C.ar    1  UNL1       -0.0045
     17 C         -11.8023  -11.8797   32.3043 C.ar    1  UNL1       -0.0002
     18 C         -11.9348  -10.6738   33.0299 C.ar    1  UNL1       -0.0003
     19 C         -11.6242   -9.4453   32.4291 C.ar    1  UNL1       -0.0033
     20 C         -11.1656   -9.4382   31.1105 C.ar    1  UNL1       -0.0117
     21 C         -12.1884  -13.1714   32.9208 C.ar    1  UNL1        0.0030
     22 C         -13.3444  -13.8168   32.4451 C.ar    1  UNL1        0.0001
     23 C         -13.8145  -14.9790   33.0576 C.ar    1  UNL1        0.0000
     24 C         -13.1426  -15.5100   34.1569 C.ar    1  UNL1        0.0001
     25 C         -11.9868  -14.8920   34.6363 C.ar    1  UNL1        0.0031
     26 C         -11.4832  -13.7339   34.0183 C.ar    1  UNL1        0.0371
     27 C         -10.2082  -13.1728   34.5184 C.ar    1  UNL1        0.1806
     28 N          -9.4732  -12.2546   33.8624 N.ar    1  UNL1       -0.1084
     29 N          -8.4610  -11.9815   34.6739 N.ar    1  UNL1       -0.0229
     30 N          -8.5720  -12.6880   35.7885 N.ar    1  UNL1       -0.0464
     31 N          -9.6574  -13.4365   35.7150 N.ar    1  UNL1       -0.2388
     32 H         -10.0102  -14.0618   36.4724 H       1  UNL1        0.1923
     33 C         -11.2116   -4.2138   29.9162 C.3     1  UNL1        0.0029
     34 C         -11.3471   -5.1979   31.0719 C.3     1  UNL1        0.0326
     35 C          -5.7170   -9.9401   31.5758 C.3     1  UNL1        0.3394
     36 C          -5.1948  -10.1817   30.1726 C.ar    1  UNL1        0.0505
     37 C          -4.1264   -9.3931   29.7058 C.ar    1  UNL1        0.0021
     38 C          -3.6285   -9.5597   28.4131 C.ar    1  UNL1       -0.0001
     39 C          -4.1918  -10.5102   27.5644 C.ar    1  UNL1       -0.0003
     40 C          -5.2541  -11.3000   28.0056 C.ar    1  UNL1       -0.0044
     41 C          -5.7630  -11.1553   29.3089 C.ar    1  UNL1       -0.0193
     42 C          -6.9277  -12.0117   29.7305 C.3     1  UNL1        0.0309
@<TRIPOS>BOND
     1    33    34    1
     2    34     1    1
     3     1     2    1
     4     2     3    1
     5     3     4    1
     6     4     5    1
     7     5     6    1
     8     6    35    1
     9    35    36    1
    10    36    37   ar
    11    37    38   ar
    12    38    39   ar
    13    39    40   ar
    14    40    41   ar
    15    41    42    1
    16     6     7    1
    17     7     8    2
    18     7     9    1
    19     9    10    1
    20    10    12    1
    21    12    13    1
    22    13    14    1
    23    14    15    1
    24    15    16   ar
    25    16    17   ar
    26    17    21    1
    27    21    22   ar
    28    22    23   ar
    29    23    24   ar
    30    24    25   ar
    31    25    26   ar
    32    26    27    1
    33    27    28   ar
    34    28    29   ar
    35    29    30   ar
    36    30    31   ar
    37    17    18   ar
    38    18    19   ar
    39    19    20   ar
    40    10     1    1
    41    20    12    1
    42     9     3    1
    43    20    15   ar
    44    41    36   ar
    45    26    21   ar
    46    31    27   ar
    47    31    32    1
    48     2    11    1
@<TRIPOS>MOLECULE
*****
 42 48 0 0 0
SMALL
GASTEIGER

@<TRIPOS>ATOM
      1 C         -11.2703   -6.6035   30.8723 C.3     1  UNL1        0.1158
      2 N         -10.4667   -5.5880   31.2746 N.3     1  UNL1       -0.2851
      3 C          -9.2499   -5.9778   30.8722 C.3     1  UNL1        0.0910
      4 C          -8.0590   -5.2951   31.0544 C.3     1  UNL1        0.1018
      5 C          -6.8913   -5.8957   30.5674 C.3     1  UNL1        0.3136
      6 N          -6.9298   -7.1179   29.9317 N.am    1  UNL1       -0.1294
      7 C          -8.1243   -7.7974   29.7900 C.2     1  UNL1        0.4047
      8 O          -8.1478   -8.9433   29.2684 O.2     1  UNL1       -0.2174
      9 C          -9.3064   -7.1887   30.2525 C.3     1  UNL1        0.2038
     10 N         -10.5972   -7.6065   30.2222 N.3     1  UNL1       -0.2473
     11 H         -10.4981   -5.4772   32.2881 H       1  UNL1        0.1244
     12 C         -11.1309   -8.8639   29.6537 C.3     1  UNL1        0.0817
     13 C         -10.1420   -9.5395   28.6778 C.3     1  UNL1        0.0252
     14 C         -10.0696  -11.0282   29.0740 C.3     1  UNL1        0.0278
     15 C         -10.8358  -11.1045   30.3425 C.ar    1  UNL1       -0.0248
     16 C         -11.0435  -12.2436   31.1226 C.ar    1  UNL1       -0.0045
     17 C         -11.8452  -12.1455   32.2781 C.ar    1  UNL1       -0.0002
     18 C         -12.4346  -10.9044   32.6104 C.ar    1  UNL1       -0.0003
     19 C         -12.2171   -9.7764   31.8059 C.ar    1  UNL1       -0.0033
     20 C         -11.3950   -9.8987   30.6842 C.ar    1  UNL1       -0.0117
     21 C         -12.1248  -13.3504   33.0951 C.ar    1  UNL1        0.0030
     22 C         -13.2464  -14.1330   32.7650 C.ar    1  UNL1        0.0001
     23 C         -13.6187  -15.2162   33.5618 C.ar    1  UNL1        0.0000
     24 C         -12.8822  -15.5301   34.7024 C.ar    1  UNL1        0.0001
     25 C         -11.7588  -14.7740   35.0402 C.ar    1  UNL1        0.0031
     26 C         -11.3529  -13.6936   34.2373 C.ar    1  UNL1        0.0371
     27 C         -10.1063  -12.9829   34.5997 C.ar    1  UNL1        0.1806
     28 N          -9.3695  -13.2516   35.6945 N.ar    1  UNL1       -0.1084
     29 N          -8.3206  -12.4454   35.6088 N.ar    1  UNL1       -0.0229
     30 N          -8.3970  -11.7203   34.5033 N.ar    1  UNL1       -0.0464
     31 N          -9.5020  -12.0415   33.8557 N.ar    1  UNL1       -0.2388
     32 H          -9.7928  -11.6538   32.9315 H       1  UNL1        0.1923
     33 C         -13.0138   -6.2187   32.6126 C.3     1  UNL1        0.0029
     34 C         -12.7487   -6.5616   31.1516 C.3     1  UNL1        0.0326
     35 C          -5.6588   -7.6924   29.4500 C.3     1  UNL1        0.3394
     36 C          -5.3435   -8.9973   30.1556 C.ar    1  UNL1        0.0505
     37 C          -5.3617   -9.0242   31.5628 C.ar    1  UNL1        0.0021
     38 C          -5.0528  -10.1938   32.2579 C.ar    1  UNL1       -0.0001
     39 C          -4.7153  -11.3523   31.5613 C.ar    1  UNL1       -0.0003
     40 C          -4.6875  -11.3467   30.1663 C.ar    1  UNL1       -0.0044
     41 C          -5.0066  -10.1808   29.4469 C.ar    1  UNL1       -0.0193
     42 C          -4.9367  -10.2164   27.9430 C.3     1  UNL1        0.0309
@<TRIPOS>BOND
     1    33    34    1
     2    34     1    1
     3     1     2    1
     4     2     3    1
     5     3     4    1
     6     4     5    1
     7     5     6    1
     8     6    35    1
     9    35    36    1
    10    36    37   ar
    11    37    38   ar
    12    38    39   ar
    13    39    40   ar
    14    40    41   ar
    15    41    42    1
    16     6     7    1
    17     7     8    2
    18     7     9    1
    19     9    10    1
    20    10    12    1
    21    12    13    1
    22    13    14    1
    23    14    15    1
    24    15    16   ar
    25    16    17   ar
    26    17    21    1
    27    21    22   ar
    28    22    23   ar
    29    23    24   ar
    30    24    25   ar
    31    25    26   ar
    32    26    27    1
    33    27    28   ar
    34    28    29   ar
    35    29    30   ar
    36    30    31   ar
    37    17    18   ar
    38    18    19   ar
    39    19    20   ar
    40    10     1    1
    41    20    12    1
    42     9     3    1
    43    20    15   ar
    44    41    36   ar
    45    26    21   ar
    46    31    27   ar
    47    31    32    1
    48     2    11    1
