@<TRIPOS>MOLECULE
*****
 44 49 0 0 0
SMALL
GASTEIGER

@<TRIPOS>ATOM
      1 C          -5.7911  -10.9325   28.9809 C.ar    1  UNL1        0.0702
      2 C          -4.9866  -11.0687   27.8388 C.ar    1  UNL1        0.0191
      3 C          -4.9758  -12.2717   27.1316 C.ar    1  UNL1        0.0356
      4 C          -5.7717  -13.3406   27.5725 C.ar    1  UNL1        0.1318
      5 N          -6.5378  -13.1875   28.6869 N.ar    1  UNL1       -0.2279
      6 C          -6.5521  -12.0311   29.3998 C.ar    1  UNL1        0.1149
      7 N          -5.8481  -14.5663   26.8242 N.pl3   1  UNL1       -0.2932
      8 C          -5.4262  -14.6372   25.4203 C.3     1  UNL1        0.0923
      9 C          -6.6516  -14.7731   24.4933 C.3     1  UNL1        0.0252
     10 C          -7.9298  -15.1864   25.2600 C.3     1  UNL1        0.0472
     11 C          -7.5985  -16.2529   26.3246 C.3     1  UNL1        0.0252
     12 C          -6.6090  -15.6990   27.3713 C.3     1  UNL1        0.0923
     13 C          -9.0243  -15.6720   24.2911 C.3     1  UNL1        0.2054
     14 O          -9.5164  -16.9552   24.6829 O.3     1  UNL1       -0.4755
     15 C          -9.9323  -17.9673   23.7996 C.ar    1  UNL1        0.1388
     16 C         -10.4140  -19.1627   24.3435 C.ar    1  UNL1        0.0369
     17 C         -10.8423  -20.1984   23.5109 C.ar    1  UNL1        0.0033
     18 C         -10.7939  -20.0498   22.1236 C.ar    1  UNL1        0.0066
     19 C         -10.3184  -18.8584   21.5524 C.ar    1  UNL1        0.0785
     20 C          -9.8805  -17.8229   22.3974 C.ar    1  UNL1        0.0433
     21 C         -10.2776  -18.6972   20.0818 C.2     1  UNL1        0.3381
     22 O         -10.1440  -19.7021   19.3321 O.2     1  UNL1       -0.2451
     23 O         -10.3884  -17.4332   19.5108 O.3     1  UNL1       -0.4771
     24 H         -10.3575  -17.3113   18.5056 H       1  UNL1        0.2954
     25 C          -7.0270   -9.1939   30.3567 C.2     1  UNL1        0.2839
     26 O          -7.2947   -7.9693   30.2354 O.2     1  UNL1       -0.2665
     27 N          -5.8441   -9.7075   29.7306 N.am    1  UNL1       -0.2766
     28 H          -4.9922   -9.1022   29.7445 H       1  UNL1        0.1553
     29 C          -9.7439  -10.7306   29.4114 C.3     1  UNL1        0.0345
     30 C          -9.1061  -10.6871   30.7673 C.ar    1  UNL1        0.0202
     31 C          -7.9301  -10.0361   31.1689 C.ar    1  UNL1        0.1946
     32 O          -7.6712  -10.3197   32.4337 O.2     1  UNL1       -0.4492
     33 C          -8.6195  -11.1087   32.8751 C.ar    1  UNL1        0.1452
     34 C          -8.7283  -11.6729   34.1408 C.ar    1  UNL1        0.0375
     35 C          -9.8102  -12.5356   34.3884 C.ar    1  UNL1        0.0031
     36 C         -10.7747  -12.8071   33.3788 C.ar    1  UNL1        0.0002
     37 C         -10.6342  -12.1942   32.1089 C.ar    1  UNL1        0.0028
     38 C          -9.5374  -11.3593   31.8937 C.ar    1  UNL1        0.0337
     39 C         -11.9143  -13.7258   33.6500 C.ar    1  UNL1        0.0000
     40 C         -12.0676  -14.3253   34.9161 C.ar    1  UNL1        0.0000
     41 C         -13.1241  -15.2075   35.1611 C.ar    1  UNL1        0.0000
     42 C         -14.0416  -15.5004   34.1509 C.ar    1  UNL1        0.0000
     43 C         -13.9075  -14.9086   32.8938 C.ar    1  UNL1        0.0000
     44 C         -12.8538  -14.0248   32.6427 C.ar    1  UNL1        0.0000
@<TRIPOS>BOND
     1    29    30    1
     2    30    31   ar
     3    31    25    1
     4    25    26    2
     5    25    27   am
     6    27     1    1
     7     1     2   ar
     8     2     3   ar
     9     3     4   ar
    10     4     7    1
    11     7     8    1
    12     8     9    1
    13     9    10    1
    14    10    13    1
    15    13    14    1
    16    14    15    1
    17    15    16   ar
    18    16    17   ar
    19    17    18   ar
    20    18    19   ar
    21    19    21    1
    22    21    22    2
    23    21    23    1
    24    19    20   ar
    25    10    11    1
    26    11    12    1
    27     4     5   ar
    28     5     6   ar
    29    31    32   ar
    30    32    33   ar
    31    33    34   ar
    32    34    35   ar
    33    35    36   ar
    34    36    39    1
    35    39    40   ar
    36    40    41   ar
    37    41    42   ar
    38    42    43   ar
    39    43    44   ar
    40    36    37   ar
    41    37    38   ar
    42    38    30   ar
    43     6     1   ar
    44    38    33   ar
    45    12     7    1
    46    44    39   ar
    47    20    15   ar
    48    27    28    1
    49    23    24    1
@<TRIPOS>MOLECULE
*****
 44 49 0 0 0
SMALL
GASTEIGER

@<TRIPOS>ATOM
      1 C          -5.8007  -10.9193   28.9246 C.ar    1  UNL1        0.0702
      2 C          -4.9859  -11.0653   27.7910 C.ar    1  UNL1        0.0191
      3 C          -4.9562  -12.2797   27.1041 C.ar    1  UNL1        0.0356
      4 C          -5.7433  -13.3501   27.5568 C.ar    1  UNL1        0.1318
      5 N          -6.5197  -13.1872   28.6626 N.ar    1  UNL1       -0.2279
      6 C          -6.5525  -12.0193   29.3560 C.ar    1  UNL1        0.1149
      7 N          -5.8002  -14.5889   26.8285 N.pl3   1  UNL1       -0.2932
      8 C          -4.9163  -14.8502   25.6864 C.3     1  UNL1        0.0923
      9 C          -5.7117  -14.8071   24.3656 C.3     1  UNL1        0.0252
     10 C          -7.2392  -14.8950   24.5924 C.3     1  UNL1        0.0472
     11 C          -7.5617  -15.9219   25.6979 C.3     1  UNL1        0.0252
     12 C          -6.9337  -15.5001   27.0430 C.3     1  UNL1        0.0923
     13 C          -7.9761  -15.2230   23.2802 C.3     1  UNL1        0.2054
     14 O          -9.3869  -15.2986   23.4954 O.3     1  UNL1       -0.4755
     15 C         -10.1437  -16.4839   23.4955 C.ar    1  UNL1        0.1388
     16 C         -11.4460  -16.4368   22.9868 C.ar    1  UNL1        0.0369
     17 C         -12.2389  -17.5857   22.9612 C.ar    1  UNL1        0.0033
     18 C         -11.7375  -18.7959   23.4441 C.ar    1  UNL1        0.0066
     19 C         -10.4321  -18.8709   23.9563 C.ar    1  UNL1        0.0785
     20 C          -9.6425  -17.7074   23.9868 C.ar    1  UNL1        0.0433
     21 C          -9.8972  -20.1564   24.4579 C.2     1  UNL1        0.3381
     22 O          -9.1108  -20.8414   23.7494 O.2     1  UNL1       -0.2451
     23 O         -10.2558  -20.6217   25.7192 O.3     1  UNL1       -0.4771
     24 H          -9.8988  -21.5021   26.0704 H       1  UNL1        0.2954
     25 C          -7.0641   -9.1777   30.2714 C.2     1  UNL1        0.2839
     26 O          -7.3516   -7.9599   30.1294 O.2     1  UNL1       -0.2665
     27 N          -5.8732   -9.6827   29.6533 N.am    1  UNL1       -0.2766
     28 H          -5.0312   -9.0635   29.6563 H       1  UNL1        0.1553
     29 C          -9.7908  -10.7230   29.3693 C.3     1  UNL1        0.0345
     30 C          -9.1332  -10.6752   30.7155 C.ar    1  UNL1        0.0202
     31 C          -7.9530  -10.0205   31.0985 C.ar    1  UNL1        0.1946
     32 O          -7.6749  -10.3008   32.3599 O.2     1  UNL1       -0.4492
     33 C          -8.6146  -11.0913   32.8168 C.ar    1  UNL1        0.1452
     34 C          -8.7034  -11.6532   34.0851 C.ar    1  UNL1        0.0375
     35 C          -9.7794  -12.5180   34.3504 C.ar    1  UNL1        0.0031
     36 C         -10.7579  -12.7939   33.3556 C.ar    1  UNL1        0.0002
     37 C         -10.6376  -12.1833   32.0825 C.ar    1  UNL1        0.0028
     38 C          -9.5462  -11.3462   31.8495 C.ar    1  UNL1        0.0337
     39 C         -11.8911  -13.7149   33.6454 C.ar    1  UNL1        0.0000
     40 C         -12.0751  -14.2420   34.9393 C.ar    1  UNL1        0.0000
     41 C         -13.1250  -15.1265   35.2033 C.ar    1  UNL1        0.0000
     42 C         -14.0054  -15.4939   34.1844 C.ar    1  UNL1        0.0000
     43 C         -13.8407  -14.9742   32.8994 C.ar    1  UNL1        0.0000
     44 C         -12.7935  -14.0884   32.6291 C.ar    1  UNL1        0.0000
@<TRIPOS>BOND
     1    29    30    1
     2    30    31   ar
     3    31    25    1
     4    25    26    2
     5    25    27   am
     6    27     1    1
     7     1     2   ar
     8     2     3   ar
     9     3     4   ar
    10     4     7    1
    11     7     8    1
    12     8     9    1
    13     9    10    1
    14    10    13    1
    15    13    14    1
    16    14    15    1
    17    15    16   ar
    18    16    17   ar
    19    17    18   ar
    20    18    19   ar
    21    19    21    1
    22    21    22    2
    23    21    23    1
    24    19    20   ar
    25    10    11    1
    26    11    12    1
    27     4     5   ar
    28     5     6   ar
    29    31    32   ar
    30    32    33   ar
    31    33    34   ar
    32    34    35   ar
    33    35    36   ar
    34    36    39    1
    35    39    40   ar
    36    40    41   ar
    37    41    42   ar
    38    42    43   ar
    39    43    44   ar
    40    36    37   ar
    41    37    38   ar
    42    38    30   ar
    43     6     1   ar
    44    38    33   ar
    45    12     7    1
    46    44    39   ar
    47    20    15   ar
    48    27    28    1
    49    23    24    1
@<TRIPOS>MOLECULE
*****
 44 49 0 0 0
SMALL
GASTEIGER

@<TRIPOS>ATOM
      1 C          -5.7639  -11.0130   28.9267 C.ar    1  UNL1        0.0702
      2 C          -4.9551  -11.1667   27.7897 C.ar    1  UNL1        0.0191
      3 C          -4.9678  -12.3688   27.0809 C.ar    1  UNL1        0.0356
      4 C          -5.7914  -13.4192   27.5151 C.ar    1  UNL1        0.1318
      5 N          -6.5612  -13.2496   28.6245 N.ar    1  UNL1       -0.2279
      6 C          -6.5531  -12.0940   29.3390 C.ar    1  UNL1        0.1149
      7 N          -5.8916  -14.6419   26.7646 N.pl3   1  UNL1       -0.2932
      8 C          -5.5353  -14.7019   25.3421 C.3     1  UNL1        0.0923
      9 C          -6.8015  -14.8448   24.4728 C.3     1  UNL1        0.0252
     10 C          -8.0385  -15.2739   25.2963 C.3     1  UNL1        0.0472
     11 C          -7.6479  -16.3425   26.3384 C.3     1  UNL1        0.0252
     12 C          -6.6155  -15.7844   27.3406 C.3     1  UNL1        0.0923
     13 C          -9.1726  -15.7650   24.3771 C.3     1  UNL1        0.2054
     14 O          -9.2010  -17.1929   24.3241 O.3     1  UNL1       -0.4755
     15 C          -9.2656  -17.9584   23.1462 C.ar    1  UNL1        0.1388
     16 C         -10.5127  -18.4472   22.7430 C.ar    1  UNL1        0.0369
     17 C         -10.6327  -19.2101   21.5798 C.ar    1  UNL1        0.0033
     18 C          -9.5056  -19.4925   20.8059 C.ar    1  UNL1        0.0066
     19 C          -8.2428  -19.0103   21.1865 C.ar    1  UNL1        0.0785
     20 C          -8.1285  -18.2499   22.3641 C.ar    1  UNL1        0.0433
     21 C          -7.0501  -19.3006   20.3598 C.2     1  UNL1        0.3381
     22 O          -6.6056  -20.4771   20.2701 O.2     1  UNL1       -0.2451
     23 O          -6.4074  -18.2769   19.6707 O.3     1  UNL1       -0.4771
     24 H          -5.5878  -18.4640   19.1055 H       1  UNL1        0.2954
     25 C          -6.9632   -9.2586   30.3146 C.2     1  UNL1        0.2839
     26 O          -7.2148   -8.0303   30.1965 O.2     1  UNL1       -0.2665
     27 N          -5.7931   -9.7881   29.6776 N.am    1  UNL1       -0.2766
     28 H          -4.9328   -9.1947   29.6845 H       1  UNL1        0.1553
     29 C          -9.7105  -10.7549   29.3927 C.3     1  UNL1        0.0345
     30 C          -9.0596  -10.7223   30.7426 C.ar    1  UNL1        0.0202
     31 C          -7.8707  -10.0888   31.1342 C.ar    1  UNL1        0.1946
     32 O          -7.6042  -10.3777   32.3961 O.2     1  UNL1       -0.4492
     33 C          -8.5597  -11.1536   32.8453 C.ar    1  UNL1        0.1452
     34 C          -8.6648  -11.7179   34.1113 C.ar    1  UNL1        0.0375
     35 C          -9.7567  -12.5653   34.3680 C.ar    1  UNL1        0.0031
     36 C         -10.7343  -12.8216   33.3671 C.ar    1  UNL1        0.0002
     37 C         -10.5967  -12.2091   32.0966 C.ar    1  UNL1        0.0028
     38 C          -9.4901  -11.3897   31.8722 C.ar    1  UNL1        0.0337
     39 C         -11.8843  -13.7242   33.6477 C.ar    1  UNL1        0.0000
     40 C         -12.0716  -14.2700   34.9333 C.ar    1  UNL1        0.0000
     41 C         -13.1378  -15.1375   35.1884 C.ar    1  UNL1        0.0000
     42 C         -14.0315  -15.4689   34.1687 C.ar    1  UNL1        0.0000
     43 C         -13.8636  -14.9303   32.8920 C.ar    1  UNL1        0.0000
     44 C         -12.8001  -14.0614   32.6306 C.ar    1  UNL1        0.0000
@<TRIPOS>BOND
     1    29    30    1
     2    30    31   ar
     3    31    25    1
     4    25    26    2
     5    25    27   am
     6    27     1    1
     7     1     2   ar
     8     2     3   ar
     9     3     4   ar
    10     4     7    1
    11     7     8    1
    12     8     9    1
    13     9    10    1
    14    10    13    1
    15    13    14    1
    16    14    15    1
    17    15    16   ar
    18    16    17   ar
    19    17    18   ar
    20    18    19   ar
    21    19    21    1
    22    21    22    2
    23    21    23    1
    24    19    20   ar
    25    10    11    1
    26    11    12    1
    27     4     5   ar
    28     5     6   ar
    29    31    32   ar
    30    32    33   ar
    31    33    34   ar
    32    34    35   ar
    33    35    36   ar
    34    36    39    1
    35    39    40   ar
    36    40    41   ar
    37    41    42   ar
    38    42    43   ar
    39    43    44   ar
    40    36    37   ar
    41    37    38   ar
    42    38    30   ar
    43     6     1   ar
    44    38    33   ar
    45    12     7    1
    46    44    39   ar
    47    20    15   ar
    48    27    28    1
    49    23    24    1
@<TRIPOS>MOLECULE
*****
 44 49 0 0 0
SMALL
GASTEIGER

@<TRIPOS>ATOM
      1 C          -5.8025  -11.0230   28.9082 C.ar    1  UNL1        0.0702
      2 C          -4.9696  -11.1939   27.7912 C.ar    1  UNL1        0.0191
      3 C          -4.9723  -12.4043   27.0968 C.ar    1  UNL1        0.0356
      4 C          -5.8101  -13.4459   27.5252 C.ar    1  UNL1        0.1318
      5 N          -6.6032  -13.2596   28.6153 N.ar    1  UNL1       -0.2279
      6 C          -6.6055  -12.0955   29.3159 C.ar    1  UNL1        0.1149
      7 N          -5.8993  -14.6771   26.7873 N.pl3   1  UNL1       -0.2932
      8 C          -4.9381  -15.0105   25.7295 C.3     1  UNL1        0.0923
      9 C          -5.6029  -14.9053   24.3416 C.3     1  UNL1        0.0252
     10 C          -7.1468  -14.8693   24.4269 C.3     1  UNL1        0.0472
     11 C          -7.6510  -15.8653   25.4920 C.3     1  UNL1        0.0252
     12 C          -7.1173  -15.4936   26.8915 C.3     1  UNL1        0.0923
     13 C          -7.7841  -15.1387   23.0508 C.3     1  UNL1        0.2054
     14 O          -6.8227  -14.9780   22.0057 O.3     1  UNL1       -0.4755
     15 C          -6.1055  -16.0235   21.3974 C.ar    1  UNL1        0.1388
     16 C          -4.9887  -15.6952   20.6215 C.ar    1  UNL1        0.0369
     17 C          -4.2400  -16.6952   19.9980 C.ar    1  UNL1        0.0033
     18 C          -4.5999  -18.0362   20.1442 C.ar    1  UNL1        0.0066
     19 C          -5.7142  -18.3927   20.9209 C.ar    1  UNL1        0.0785
     20 C          -6.4686  -17.3792   21.5387 C.ar    1  UNL1        0.0433
     21 C          -6.0888  -19.8151   21.0845 C.2     1  UNL1        0.3381
     22 O          -5.6891  -20.6803   20.2591 O.2     1  UNL1       -0.2451
     23 O          -6.8855  -20.2127   22.1537 O.3     1  UNL1       -0.4771
     24 H          -7.1511  -21.1829   22.2727 H       1  UNL1        0.2954
     25 C          -7.0173   -9.2620   30.2742 C.2     1  UNL1        0.2839
     26 O          -7.2799   -8.0376   30.1407 O.2     1  UNL1       -0.2665
     27 N          -5.8426   -9.7890   29.6436 N.am    1  UNL1       -0.2766
     28 H          -4.9876   -9.1879   29.6428 H       1  UNL1        0.1553
     29 C          -9.7627  -10.7767   29.3771 C.3     1  UNL1        0.0345
     30 C          -9.1053  -10.7314   30.7235 C.ar    1  UNL1        0.0202
     31 C          -7.9172  -10.0899   31.1044 C.ar    1  UNL1        0.1946
     32 O          -7.6432  -10.3683   32.3671 O.2     1  UNL1       -0.4492
     33 C          -8.5931  -11.1449   32.8269 C.ar    1  UNL1        0.1452
     34 C          -8.6896  -11.7001   34.0975 C.ar    1  UNL1        0.0375
     35 C          -9.7766  -12.5502   34.3659 C.ar    1  UNL1        0.0031
     36 C         -10.7580  -12.8181   33.3718 C.ar    1  UNL1        0.0002
     37 C         -10.6293  -12.2145   32.0961 C.ar    1  UNL1        0.0028
     38 C          -9.5273  -11.3922   31.8602 C.ar    1  UNL1        0.0337
     39 C         -11.9028  -13.7235   33.6648 C.ar    1  UNL1        0.0000
     40 C         -12.0882  -14.2509   34.9584 C.ar    1  UNL1        0.0000
     41 C         -13.1493  -15.1210   35.2254 C.ar    1  UNL1        0.0000
     42 C         -14.0398  -15.4733   34.2099 C.ar    1  UNL1        0.0000
     43 C         -13.8738  -14.9530   32.9253 C.ar    1  UNL1        0.0000
     44 C         -12.8153  -14.0817   32.6520 C.ar    1  UNL1        0.0000
@<TRIPOS>BOND
     1    29    30    1
     2    30    31   ar
     3    31    25    1
     4    25    26    2
     5    25    27   am
     6    27     1    1
     7     1     2   ar
     8     2     3   ar
     9     3     4   ar
    10     4     7    1
    11     7     8    1
    12     8     9    1
    13     9    10    1
    14    10    13    1
    15    13    14    1
    16    14    15    1
    17    15    16   ar
    18    16    17   ar
    19    17    18   ar
    20    18    19   ar
    21    19    21    1
    22    21    22    2
    23    21    23    1
    24    19    20   ar
    25    10    11    1
    26    11    12    1
    27     4     5   ar
    28     5     6   ar
    29    31    32   ar
    30    32    33   ar
    31    33    34   ar
    32    34    35   ar
    33    35    36   ar
    34    36    39    1
    35    39    40   ar
    36    40    41   ar
    37    41    42   ar
    38    42    43   ar
    39    43    44   ar
    40    36    37   ar
    41    37    38   ar
    42    38    30   ar
    43     6     1   ar
    44    38    33   ar
    45    12     7    1
    46    44    39   ar
    47    20    15   ar
    48    27    28    1
    49    23    24    1
@<TRIPOS>MOLECULE
*****
 44 49 0 0 0
SMALL
GASTEIGER

@<TRIPOS>ATOM
      1 C          -8.8350  -15.8140   25.9129 C.ar    1  UNL1        0.0702
      2 C          -8.8864  -17.1221   26.4194 C.ar    1  UNL1        0.0191
      3 C          -9.6436  -18.0949   25.7654 C.ar    1  UNL1        0.0356
      4 C         -10.3524  -17.7541   24.6028 C.ar    1  UNL1        0.1318
      5 N         -10.2935  -16.4775   24.1348 N.ar    1  UNL1       -0.2279
      6 C          -9.5757  -15.5105   24.7637 C.ar    1  UNL1        0.1149
      7 N         -11.0770  -18.7481   23.8577 N.pl3   1  UNL1       -0.2932
      8 C         -10.5940  -20.1296   23.7477 C.3     1  UNL1        0.0923
      9 C         -10.0669  -20.4069   22.3248 C.3     1  UNL1        0.0252
     10 C         -10.5269  -19.3383   21.3055 C.3     1  UNL1        0.0472
     11 C         -11.9971  -18.9468   21.5616 C.3     1  UNL1        0.0252
     12 C         -12.1669  -18.3279   22.9651 C.3     1  UNL1        0.0923
     13 C         -10.3120  -19.8233   19.8595 C.3     1  UNL1        0.2054
     14 O          -8.9187  -19.9484   19.5675 O.3     1  UNL1       -0.4755
     15 C          -7.8948  -19.1930   20.1664 C.ar    1  UNL1        0.1388
     16 C          -6.6420  -19.7925   20.3331 C.ar    1  UNL1        0.0369
     17 C          -5.5903  -19.0857   20.9195 C.ar    1  UNL1        0.0033
     18 C          -5.7800  -17.7699   21.3457 C.ar    1  UNL1        0.0066
     19 C          -7.0268  -17.1437   21.1862 C.ar    1  UNL1        0.0785
     20 C          -8.0838  -17.8650   20.6027 C.ar    1  UNL1        0.0433
     21 C          -7.2242  -15.7451   21.6281 C.2     1  UNL1        0.3381
     22 O          -7.6435  -15.4953   22.7907 O.2     1  UNL1       -0.2451
     23 O          -6.9469  -14.6901   20.7643 O.3     1  UNL1       -0.4771
     24 H          -7.0826  -13.7294   21.0553 H       1  UNL1        0.2954
     25 C          -6.6355  -14.8422   26.7258 C.2     1  UNL1        0.2839
     26 O          -6.1514  -14.5104   27.8400 O.2     1  UNL1       -0.2665
     27 N          -8.0566  -14.7849   26.5457 N.am    1  UNL1       -0.2766
     28 H          -8.5646  -13.9854   26.9875 H       1  UNL1        0.1553
     29 C          -4.7036  -17.4666   26.5962 C.3     1  UNL1        0.0345
     30 C          -4.8683  -16.3642   25.5939 C.ar    1  UNL1        0.0202
     31 C          -5.7096  -15.2428   25.6456 C.ar    1  UNL1        0.1946
     32 O          -5.6143  -14.5595   24.5182 O.2     1  UNL1       -0.4492
     33 C          -4.7507  -15.1704   23.7450 C.ar    1  UNL1        0.1452
     34 C          -4.3684  -14.8125   22.4575 C.ar    1  UNL1        0.0375
     35 C          -3.4551  -15.6430   21.7849 C.ar    1  UNL1        0.0031
     36 C          -2.9242  -16.8042   22.4118 C.ar    1  UNL1        0.0002
     37 C          -3.3278  -17.1196   23.7331 C.ar    1  UNL1        0.0028
     38 C          -4.2503  -16.2829   24.3617 C.ar    1  UNL1        0.0337
     39 C          -1.9610  -17.6795   21.6890 C.ar    1  UNL1        0.0000
     40 C          -1.8308  -19.0401   22.0316 C.ar    1  UNL1        0.0000
     41 C          -0.9077  -19.8544   21.3688 C.ar    1  UNL1        0.0000
     42 C          -0.1066  -19.3253   20.3555 C.ar    1  UNL1        0.0000
     43 C          -0.2294  -17.9811   19.9996 C.ar    1  UNL1        0.0000
     44 C          -1.1513  -17.1619   20.6579 C.ar    1  UNL1        0.0000
@<TRIPOS>BOND
     1    29    30    1
     2    30    31   ar
     3    31    25    1
     4    25    26    2
     5    25    27   am
     6    27     1    1
     7     1     2   ar
     8     2     3   ar
     9     3     4   ar
    10     4     7    1
    11     7     8    1
    12     8     9    1
    13     9    10    1
    14    10    13    1
    15    13    14    1
    16    14    15    1
    17    15    16   ar
    18    16    17   ar
    19    17    18   ar
    20    18    19   ar
    21    19    21    1
    22    21    22    2
    23    21    23    1
    24    19    20   ar
    25    10    11    1
    26    11    12    1
    27     4     5   ar
    28     5     6   ar
    29    31    32   ar
    30    32    33   ar
    31    33    34   ar
    32    34    35   ar
    33    35    36   ar
    34    36    39    1
    35    39    40   ar
    36    40    41   ar
    37    41    42   ar
    38    42    43   ar
    39    43    44   ar
    40    36    37   ar
    41    37    38   ar
    42    38    30   ar
    43     6     1   ar
    44    38    33   ar
    45    12     7    1
    46    44    39   ar
    47    20    15   ar
    48    27    28    1
    49    23    24    1
@<TRIPOS>MOLECULE
*****
 44 49 0 0 0
SMALL
GASTEIGER

@<TRIPOS>ATOM
      1 C          -9.6006   -5.5574   31.0217 C.ar    1  UNL1        0.0702
      2 C          -8.5391   -5.0463   30.2585 C.ar    1  UNL1        0.0191
      3 C          -7.2287   -5.4398   30.5332 C.ar    1  UNL1        0.0356
      4 C          -6.9827   -6.3455   31.5768 C.ar    1  UNL1        0.1318
      5 N          -8.0271   -6.8217   32.3080 N.ar    1  UNL1       -0.2279
      6 C          -9.3090   -6.4407   32.0687 C.ar    1  UNL1        0.1149
      7 N          -5.6557   -6.8355   31.8362 N.pl3   1  UNL1       -0.2932
      8 C          -4.6166   -6.8260   30.7997 C.3     1  UNL1        0.0923
      9 C          -4.3308   -8.2594   30.3071 C.3     1  UNL1        0.0252
     10 C          -4.8925   -9.3365   31.2645 C.3     1  UNL1        0.0472
     11 C          -4.6621   -8.9249   32.7335 C.3     1  UNL1        0.0252
     12 C          -5.3989   -7.6088   33.0599 C.3     1  UNL1        0.0923
     13 C          -4.2856  -10.7190   30.9602 C.3     1  UNL1        0.2054
     14 O          -5.2577  -11.5804   30.3640 O.3     1  UNL1       -0.4755
     15 C          -6.6202  -11.6252   30.7093 C.ar    1  UNL1        0.1388
     16 C          -7.5405  -11.9936   29.7223 C.ar    1  UNL1        0.0369
     17 C          -8.9046  -12.0567   30.0132 C.ar    1  UNL1        0.0033
     18 C          -9.3639  -11.7521   31.2959 C.ar    1  UNL1        0.0066
     19 C          -8.4604  -11.3835   32.3057 C.ar    1  UNL1        0.0785
     20 C          -7.0887  -11.3137   32.0028 C.ar    1  UNL1        0.0433
     21 C          -8.9466  -11.0714   33.6682 C.2     1  UNL1        0.3381
     22 O          -9.6457  -10.0432   33.8775 O.2     1  UNL1       -0.2451
     23 O          -8.6383  -11.9120   34.7333 O.3     1  UNL1       -0.4771
     24 H          -8.9625  -11.7055   35.6705 H       1  UNL1        0.2954
     25 C         -11.9736   -6.1005   30.3027 C.2     1  UNL1        0.2839
     26 O         -12.7427   -5.7343   29.3752 O.2     1  UNL1       -0.2665
     27 N         -10.9661   -5.1909   30.7642 N.am    1  UNL1       -0.2766
     28 H         -11.2241   -4.1800   30.8258 H       1  UNL1        0.1553
     29 C         -10.8048   -8.9586   29.2528 C.3     1  UNL1        0.0345
     30 C         -11.6791   -8.6727   30.4365 C.ar    1  UNL1        0.0202
     31 C         -12.1701   -7.4408   30.8940 C.ar    1  UNL1        0.1946
     32 O         -12.8351   -7.6155   32.0229 O.2     1  UNL1       -0.4492
     33 C         -12.8105   -8.8926   32.3150 C.ar    1  UNL1        0.1452
     34 C         -13.3610   -9.5151   33.4292 C.ar    1  UNL1        0.0375
     35 C         -13.1748  -10.9013   33.5705 C.ar    1  UNL1        0.0031
     36 C         -12.4605  -11.6464   32.5918 C.ar    1  UNL1        0.0002
     37 C         -11.9333  -10.9727   31.4620 C.ar    1  UNL1        0.0028
     38 C         -12.1212   -9.5937   31.3654 C.ar    1  UNL1        0.0337
     39 C         -12.2650  -13.1134   32.7532 C.ar    1  UNL1        0.0000
     40 C         -12.4907  -13.9909   31.6740 C.ar    1  UNL1        0.0000
     41 C         -12.3309  -15.3704   31.8346 C.ar    1  UNL1        0.0000
     42 C         -11.9416  -15.8921   33.0693 C.ar    1  UNL1        0.0000
     43 C         -11.7070  -15.0350   34.1459 C.ar    1  UNL1        0.0000
     44 C         -11.8639  -13.6545   33.9914 C.ar    1  UNL1        0.0000
@<TRIPOS>BOND
     1    29    30    1
     2    30    31   ar
     3    31    25    1
     4    25    26    2
     5    25    27   am
     6    27     1    1
     7     1     2   ar
     8     2     3   ar
     9     3     4   ar
    10     4     7    1
    11     7     8    1
    12     8     9    1
    13     9    10    1
    14    10    13    1
    15    13    14    1
    16    14    15    1
    17    15    16   ar
    18    16    17   ar
    19    17    18   ar
    20    18    19   ar
    21    19    21    1
    22    21    22    2
    23    21    23    1
    24    19    20   ar
    25    10    11    1
    26    11    12    1
    27     4     5   ar
    28     5     6   ar
    29    31    32   ar
    30    32    33   ar
    31    33    34   ar
    32    34    35   ar
    33    35    36   ar
    34    36    39    1
    35    39    40   ar
    36    40    41   ar
    37    41    42   ar
    38    42    43   ar
    39    43    44   ar
    40    36    37   ar
    41    37    38   ar
    42    38    30   ar
    43     6     1   ar
    44    38    33   ar
    45    12     7    1
    46    44    39   ar
    47    20    15   ar
    48    27    28    1
    49    23    24    1
@<TRIPOS>MOLECULE
*****
 44 49 0 0 0
SMALL
GASTEIGER

@<TRIPOS>ATOM
      1 C          -9.0926   -6.8568   30.8893 C.ar    1  UNL1        0.0702
      2 C          -8.1546   -6.4372   29.9331 C.ar    1  UNL1        0.0191
      3 C          -6.9515   -7.1286   29.7848 C.ar    1  UNL1        0.0356
      4 C          -6.6880   -8.2413   30.5990 C.ar    1  UNL1        0.1318
      5 N          -7.6093   -8.6248   31.5243 N.ar    1  UNL1       -0.2279
      6 C          -8.7801   -7.9576   31.6969 C.ar    1  UNL1        0.1149
      7 N          -5.4963   -9.0260   30.4196 N.pl3   1  UNL1       -0.2932
      8 C          -4.6488   -8.8756   29.2308 C.3     1  UNL1        0.0923
      9 C          -4.7942  -10.1001   28.3042 C.3     1  UNL1        0.0252
     10 C          -5.4545  -11.3044   29.0155 C.3     1  UNL1        0.0472
     11 C          -4.9192  -11.4392   30.4562 C.3     1  UNL1        0.0252
     12 C          -5.2589  -10.1863   31.2906 C.3     1  UNL1        0.0923
     13 C          -5.2521  -12.6021   28.2108 C.3     1  UNL1        0.2054
     14 O          -6.3745  -13.4737   28.3621 O.3     1  UNL1       -0.4755
     15 C          -6.8399  -14.3719   27.3852 C.ar    1  UNL1        0.1388
     16 C          -7.9942  -15.1115   27.6634 C.ar    1  UNL1        0.0369
     17 C          -8.5001  -16.0149   26.7267 C.ar    1  UNL1        0.0033
     18 C          -7.8567  -16.1884   25.4999 C.ar    1  UNL1        0.0066
     19 C          -6.6986  -15.4553   25.1944 C.ar    1  UNL1        0.0785
     20 C          -6.1901  -14.5536   26.1465 C.ar    1  UNL1        0.0433
     21 C          -6.0232  -15.6316   23.8894 C.2     1  UNL1        0.3381
     22 O          -5.9770  -16.7664   23.3418 O.2     1  UNL1       -0.2451
     23 O          -5.4333  -14.5446   23.2518 O.3     1  UNL1       -0.4771
     24 H          -4.9649  -14.6551   22.3604 H       1  UNL1        0.2954
     25 C         -11.6270   -6.7690   30.7801 C.2     1  UNL1        0.2839
     26 O         -12.4812   -6.0863   30.1554 O.2     1  UNL1       -0.2665
     27 N         -10.3499   -6.1836   31.0658 N.am    1  UNL1       -0.2766
     28 H         -10.3337   -5.1724   31.3297 H       1  UNL1        0.1553
     29 C         -10.9476   -9.6086   29.3270 C.3     1  UNL1        0.0345
     30 C         -11.7166   -9.3527   30.5881 C.ar    1  UNL1        0.0202
     31 C         -11.9967   -8.1312   31.2186 C.ar    1  UNL1        0.1946
     32 O         -12.6305   -8.3504   32.3575 O.2     1  UNL1       -0.4492
     33 C         -12.7853   -9.6444   32.4933 C.ar    1  UNL1        0.1452
     34 C         -13.3740  -10.3178   33.5573 C.ar    1  UNL1        0.0375
     35 C         -13.3921  -11.7229   33.5207 C.ar    1  UNL1        0.0031
     36 C         -12.8412  -12.4326   32.4180 C.ar    1  UNL1        0.0002
     37 C         -12.2684  -11.7037   31.3461 C.ar    1  UNL1        0.0028
     38 C         -12.2512  -10.3111   31.4263 C.ar    1  UNL1        0.0337
     39 C         -12.8613  -13.9210   32.3912 C.ar    1  UNL1        0.0000
     40 C         -13.8811  -14.6372   33.0490 C.ar    1  UNL1        0.0000
     41 C         -13.8843  -16.0351   33.0440 C.ar    1  UNL1        0.0000
     42 C         -12.8752  -16.7362   32.3816 C.ar    1  UNL1        0.0000
     43 C         -11.8624  -16.0408   31.7190 C.ar    1  UNL1        0.0000
     44 C         -11.8541  -14.6428   31.7194 C.ar    1  UNL1        0.0000
@<TRIPOS>BOND
     1    29    30    1
     2    30    31   ar
     3    31    25    1
     4    25    26    2
     5    25    27   am
     6    27     1    1
     7     1     2   ar
     8     2     3   ar
     9     3     4   ar
    10     4     7    1
    11     7     8    1
    12     8     9    1
    13     9    10    1
    14    10    13    1
    15    13    14    1
    16    14    15    1
    17    15    16   ar
    18    16    17   ar
    19    17    18   ar
    20    18    19   ar
    21    19    21    1
    22    21    22    2
    23    21    23    1
    24    19    20   ar
    25    10    11    1
    26    11    12    1
    27     4     5   ar
    28     5     6   ar
    29    31    32   ar
    30    32    33   ar
    31    33    34   ar
    32    34    35   ar
    33    35    36   ar
    34    36    39    1
    35    39    40   ar
    36    40    41   ar
    37    41    42   ar
    38    42    43   ar
    39    43    44   ar
    40    36    37   ar
    41    37    38   ar
    42    38    30   ar
    43     6     1   ar
    44    38    33   ar
    45    12     7    1
    46    44    39   ar
    47    20    15   ar
    48    27    28    1
    49    23    24    1
@<TRIPOS>MOLECULE
*****
 44 49 0 0 0
SMALL
GASTEIGER

@<TRIPOS>ATOM
      1 C          -7.2565  -13.7783   28.6327 C.ar    1  UNL1        0.0702
      2 C          -6.8970  -12.5536   29.2169 C.ar    1  UNL1        0.0191
      3 C          -7.8860  -11.6718   29.6549 C.ar    1  UNL1        0.0356
      4 C          -9.2378  -12.0183   29.5042 C.ar    1  UNL1        0.1318
      5 N          -9.5622  -13.2078   28.9280 N.ar    1  UNL1       -0.2279
      6 C          -8.6167  -14.0746   28.4802 C.ar    1  UNL1        0.1149
      7 N         -10.2819  -11.1722   30.0165 N.pl3   1  UNL1       -0.2932
      8 C         -11.0348  -10.2654   29.1419 C.3     1  UNL1        0.0923
      9 C         -10.6314   -8.8002   29.4059 C.3     1  UNL1        0.0252
     10 C          -9.8673   -8.6286   30.7397 C.3     1  UNL1        0.0472
     11 C         -10.5014   -9.5041   31.8406 C.3     1  UNL1        0.0252
     12 C         -10.4227  -11.0000   31.4697 C.3     1  UNL1        0.0923
     13 C          -9.8066   -7.1472   31.1568 C.3     1  UNL1        0.2054
     14 O          -8.4877   -6.6246   30.9843 O.3     1  UNL1       -0.4755
     15 C          -7.3127   -7.3949   30.9257 C.ar    1  UNL1        0.1388
     16 C          -6.6044   -7.6118   32.1123 C.ar    1  UNL1        0.0369
     17 C          -5.4331   -8.3717   32.1099 C.ar    1  UNL1        0.0033
     18 C          -4.9570   -8.9242   30.9195 C.ar    1  UNL1        0.0066
     19 C          -5.6514   -8.7248   29.7154 C.ar    1  UNL1        0.0785
     20 C          -6.8258   -7.9509   29.7242 C.ar    1  UNL1        0.0433
     21 C          -5.1523   -9.3199   28.4556 C.2     1  UNL1        0.3381
     22 O          -3.9439   -9.6628   28.3455 O.2     1  UNL1       -0.2451
     23 O          -6.0133   -9.5092   27.3791 O.3     1  UNL1       -0.4771
     24 H          -5.6809   -9.9117   26.5110 H       1  UNL1        0.2954
     25 C          -6.5793  -16.0018   27.6128 C.2     1  UNL1        0.2839
     26 O          -5.9243  -17.0080   27.9931 O.2     1  UNL1       -0.2665
     27 N          -6.2714  -14.7222   28.1813 N.am    1  UNL1       -0.2766
     28 H          -5.2647  -14.5070   28.3621 H       1  UNL1        0.1553
     29 C          -6.8416  -14.4770   24.7418 C.3     1  UNL1        0.0345
     30 C          -7.7343  -15.5208   25.3423 C.ar    1  UNL1        0.0202
     31 C          -7.6125  -16.1850   26.5719 C.ar    1  UNL1        0.1946
     32 O          -8.5639  -17.0956   26.6849 O.2     1  UNL1       -0.4492
     33 C          -9.3002  -17.0498   25.6020 C.ar    1  UNL1        0.1452
     34 C         -10.3911  -17.8517   25.2876 C.ar    1  UNL1        0.0375
     35 C         -11.0117  -17.6631   24.0405 C.ar    1  UNL1        0.0031
     36 C         -10.5478  -16.6680   23.1362 C.ar    1  UNL1        0.0002
     37 C          -9.4441  -15.8603   23.5071 C.ar    1  UNL1        0.0028
     38 C          -8.8416  -16.0892   24.7445 C.ar    1  UNL1        0.0337
     39 C         -11.2093  -16.4795   21.8159 C.ar    1  UNL1        0.0000
     40 C         -10.5119  -15.8938   20.7406 C.ar    1  UNL1        0.0000
     41 C         -11.1427  -15.6946   19.5090 C.ar    1  UNL1        0.0000
     42 C         -12.4728  -16.0790   19.3322 C.ar    1  UNL1        0.0000
     43 C         -13.1746  -16.6675   20.3856 C.ar    1  UNL1        0.0000
     44 C         -12.5492  -16.8703   21.6193 C.ar    1  UNL1        0.0000
@<TRIPOS>BOND
     1    29    30    1
     2    30    31   ar
     3    31    25    1
     4    25    26    2
     5    25    27   am
     6    27     1    1
     7     1     2   ar
     8     2     3   ar
     9     3     4   ar
    10     4     7    1
    11     7     8    1
    12     8     9    1
    13     9    10    1
    14    10    13    1
    15    13    14    1
    16    14    15    1
    17    15    16   ar
    18    16    17   ar
    19    17    18   ar
    20    18    19   ar
    21    19    21    1
    22    21    22    2
    23    21    23    1
    24    19    20   ar
    25    10    11    1
    26    11    12    1
    27     4     5   ar
    28     5     6   ar
    29    31    32   ar
    30    32    33   ar
    31    33    34   ar
    32    34    35   ar
    33    35    36   ar
    34    36    39    1
    35    39    40   ar
    36    40    41   ar
    37    41    42   ar
    38    42    43   ar
    39    43    44   ar
    40    36    37   ar
    41    37    38   ar
    42    38    30   ar
    43     6     1   ar
    44    38    33   ar
    45    12     7    1
    46    44    39   ar
    47    20    15   ar
    48    27    28    1
    49    23    24    1
@<TRIPOS>MOLECULE
*****
 44 49 0 0 0
SMALL
GASTEIGER

@<TRIPOS>ATOM
      1 C          -8.0463  -15.3706   26.0438 C.ar    1  UNL1        0.0702
      2 C          -8.2558  -15.0548   24.6923 C.ar    1  UNL1        0.0191
      3 C          -7.1959  -15.1216   23.7870 C.ar    1  UNL1        0.0356
      4 C          -5.9231  -15.5035   24.2390 C.ar    1  UNL1        0.1318
      5 N          -5.7423  -15.7978   25.5554 N.ar    1  UNL1       -0.2279
      6 C          -6.7558  -15.7244   26.4573 C.ar    1  UNL1        0.1149
      7 N          -4.8269  -15.6617   23.3216 N.pl3   1  UNL1       -0.2932
      8 C          -4.7965  -14.9612   22.0323 C.3     1  UNL1        0.0923
      9 C          -5.0388  -15.9500   20.8735 C.3     1  UNL1        0.0252
     10 C          -4.8607  -17.4240   21.3072 C.3     1  UNL1        0.0472
     11 C          -3.6484  -17.5652   22.2512 C.3     1  UNL1        0.0252
     12 C          -3.8538  -16.7418   23.5401 C.3     1  UNL1        0.0923
     13 C          -4.7382  -18.3507   20.0831 C.3     1  UNL1        0.2054
     14 O          -5.5981  -19.4844   20.2164 O.3     1  UNL1       -0.4755
     15 C          -6.9636  -19.4305   20.5478 C.ar    1  UNL1        0.1388
     16 C          -7.8948  -19.3657   19.5059 C.ar    1  UNL1        0.0369
     17 C          -9.2628  -19.3133   19.7801 C.ar    1  UNL1        0.0033
     18 C          -9.7153  -19.3255   21.1007 C.ar    1  UNL1        0.0066
     19 C          -8.8015  -19.3942   22.1648 C.ar    1  UNL1        0.0785
     20 C          -7.4246  -19.4379   21.8809 C.ar    1  UNL1        0.0433
     21 C          -9.2821  -19.4183   23.5643 C.2     1  UNL1        0.3381
     22 O          -9.5169  -18.3422   24.1781 O.2     1  UNL1       -0.2451
     23 O          -9.4818  -20.6306   24.2172 O.3     1  UNL1       -0.4771
     24 H          -9.8065  -20.6583   25.1763 H       1  UNL1        0.2954
     25 C          -8.9619  -14.8763   28.3590 C.2     1  UNL1        0.2839
     26 O          -9.4857  -15.5491   29.2859 O.2     1  UNL1       -0.2665
     27 N          -9.1119  -15.3295   27.0072 N.am    1  UNL1       -0.2766
     28 H         -10.0339  -15.7420   26.7387 H       1  UNL1        0.1553
     29 C         -10.0763  -12.3135   30.0402 C.3     1  UNL1        0.0345
     30 C          -8.7274  -12.5229   29.4206 C.ar    1  UNL1        0.0202
     31 C          -8.2457  -13.6317   28.7089 C.ar    1  UNL1        0.1946
     32 O          -6.9719  -13.4502   28.4062 O.2     1  UNL1       -0.4492
     33 C          -6.6063  -12.2818   28.8729 C.ar    1  UNL1        0.1452
     34 C          -5.3449  -11.7019   28.8048 C.ar    1  UNL1        0.0375
     35 C          -5.1592  -10.4508   29.4185 C.ar    1  UNL1        0.0031
     36 C          -6.2359   -9.7905   30.0727 C.ar    1  UNL1        0.0002
     37 C          -7.5098  -10.4107   30.1006 C.ar    1  UNL1        0.0028
     38 C          -7.6515  -11.6609   29.4978 C.ar    1  UNL1        0.0337
     39 C          -6.0274   -8.4679   30.7235 C.ar    1  UNL1        0.0000
     40 C          -5.4594   -8.3824   32.0102 C.ar    1  UNL1        0.0000
     41 C          -5.2877   -7.1411   32.6300 C.ar    1  UNL1        0.0000
     42 C          -5.6759   -5.9710   31.9754 C.ar    1  UNL1        0.0000
     43 C          -6.2330   -6.0388   30.6974 C.ar    1  UNL1        0.0000
     44 C          -6.4064   -7.2769   30.0718 C.ar    1  UNL1        0.0000
@<TRIPOS>BOND
     1    29    30    1
     2    30    31   ar
     3    31    25    1
     4    25    26    2
     5    25    27   am
     6    27     1    1
     7     1     2   ar
     8     2     3   ar
     9     3     4   ar
    10     4     7    1
    11     7     8    1
    12     8     9    1
    13     9    10    1
    14    10    13    1
    15    13    14    1
    16    14    15    1
    17    15    16   ar
    18    16    17   ar
    19    17    18   ar
    20    18    19   ar
    21    19    21    1
    22    21    22    2
    23    21    23    1
    24    19    20   ar
    25    10    11    1
    26    11    12    1
    27     4     5   ar
    28     5     6   ar
    29    31    32   ar
    30    32    33   ar
    31    33    34   ar
    32    34    35   ar
    33    35    36   ar
    34    36    39    1
    35    39    40   ar
    36    40    41   ar
    37    41    42   ar
    38    42    43   ar
    39    43    44   ar
    40    36    37   ar
    41    37    38   ar
    42    38    30   ar
    43     6     1   ar
    44    38    33   ar
    45    12     7    1
    46    44    39   ar
    47    20    15   ar
    48    27    28    1
    49    23    24    1
