@<TRIPOS>MOLECULE
*****
 37 41 0 0 0
SMALL
GASTEIGER

@<TRIPOS>ATOM
      1 C          -5.3722   -8.9019   29.4529 C.ar    1  UNL1        0.1317
      2 C          -4.2844   -8.9745   28.5611 C.ar    1  UNL1        0.0290
      3 C          -4.0109  -10.1662   27.8649 C.ar    1  UNL1        0.0786
      4 C          -4.8358  -11.2847   28.0529 C.ar    1  UNL1        0.2664
      5 BR         -4.4820  -12.9102   27.1047 Br      1  UNL1        0.0280
      6 N          -5.8843  -11.1711   28.9117 N.ar    1  UNL1       -0.1220
      7 C          -6.8316  -12.0600   29.2491 C.ar    1  UNL1        0.3140
      8 C          -7.6875  -11.4274   30.1447 C.ar    1  UNL1        0.1320
      9 N          -7.2700  -10.1555   30.3573 N.ar    1  UNL1       -0.2941
     10 C          -6.1657  -10.0469   29.5921 C.ar    1  UNL1        0.3125
     11 H          -7.6779   -9.4709   30.9354 H       1  UNL1        0.1718
     12 N          -7.6224   -6.1195   31.0964 N.3     1  UNL1       -0.2647
     13 C          -6.6150   -5.4116   30.2862 C.3     1  UNL1        0.0941
     14 C          -5.8705   -6.4361   29.4236 C.3     1  UNL1        0.1084
     15 N          -5.6729   -7.6889   30.1644 N.pl3   1  UNL1       -0.2988
     16 C          -5.7199   -7.6714   31.6319 C.3     1  UNL1        0.1084
     17 C          -7.0052   -6.9799   32.1322 C.3     1  UNL1        0.0941
     18 C          -8.6768   -5.2328   31.6332 C.3     1  UNL1        0.1199
     19 C         -11.9322   -6.6740   31.1632 C.ar    1  UNL1        0.1165
     20 N         -10.7468   -6.6585   31.8106 N.ar    1  UNL1       -0.2344
     21 C         -10.0712   -5.6450   31.2315 C.ar    1  UNL1        0.0878
     22 C         -10.8548   -5.0775   30.2430 C.ar    1  UNL1        0.0499
     23 C         -10.5239   -3.8911   29.3934 C.3     1  UNL1        0.0511
     24 N         -12.0269   -5.7306   30.2053 N.ar    1  UNL1       -0.3443
     25 H         -12.8369   -5.5482   29.5716 H       1  UNL1        0.1668
     26 C         -12.3809   -9.0649   31.6531 C.3     1  UNL1        0.0084
     27 C         -12.9981   -7.6892   31.4323 C.3     1  UNL1        0.0637
     28 C          -8.8896  -12.0078   30.7922 C.ar    1  UNL1        0.0218
     29 C          -9.0225  -11.9604   32.1882 C.ar    1  UNL1        0.0013
     30 C         -10.1457  -12.5010   32.8194 C.ar    1  UNL1       -0.0042
     31 C         -11.1790  -13.1102   32.0710 C.ar    1  UNL1       -0.0228
     32 C         -11.0329  -13.1514   30.6675 C.ar    1  UNL1       -0.0042
     33 C          -9.9088  -12.6103   30.0390 C.ar    1  UNL1        0.0013
     34 C         -12.4364  -13.7197   32.7250 C.3     1  UNL1        0.0189
     35 C         -12.2060  -13.8678   34.2447 C.3     1  UNL1        0.0044
     36 C         -12.7944  -15.1180   32.1659 C.3     1  UNL1        0.0044
     37 C         -13.6463  -12.7925   32.4777 C.3     1  UNL1        0.0044
@<TRIPOS>BOND
     1    26    27    1
     2    27    19    1
     3    19    20   ar
     4    20    21   ar
     5    21    18    1
     6    18    12    1
     7    12    13    1
     8    13    14    1
     9    14    15    1
    10    15     1    1
    11     1     2   ar
    12     2     3   ar
    13     3     4   ar
    14     4     5    1
    15     4     6   ar
    16     6     7   ar
    17     7     8   ar
    18     8    28    1
    19    28    29   ar
    20    29    30   ar
    21    30    31   ar
    22    31    34    1
    23    34    35    1
    24    34    36    1
    25    34    37    1
    26    31    32   ar
    27    32    33   ar
    28     8     9   ar
    29     9    10   ar
    30    15    16    1
    31    16    17    1
    32    21    22   ar
    33    22    23    1
    34    22    24   ar
    35    24    19   ar
    36    17    12    1
    37    10     1   ar
    38    10     6   ar
    39    33    28   ar
    40    24    25    1
    41     9    11    1
@<TRIPOS>MOLECULE
*****
 37 41 0 0 0
SMALL
GASTEIGER

@<TRIPOS>ATOM
      1 C          -7.9912   -7.9419   30.5807 C.ar    1  UNL1        0.1317
      2 C          -7.9751   -6.5388   30.4592 C.ar    1  UNL1        0.0290
      3 C          -9.1189   -5.7823   30.7736 C.ar    1  UNL1        0.0786
      4 C         -10.2784   -6.4313   31.2225 C.ar    1  UNL1        0.2664
      5 BR        -11.8395   -5.4141   31.6638 Br      1  UNL1        0.0280
      6 N         -10.2503   -7.7860   31.3399 N.ar    1  UNL1       -0.1220
      7 C         -11.1930   -8.6412   31.7659 C.ar    1  UNL1        0.3140
      8 C         -10.6408   -9.9170   31.7191 C.ar    1  UNL1        0.1320
      9 N          -9.3647   -9.8479   31.2674 N.ar    1  UNL1       -0.2941
     10 C          -9.1734   -8.5328   31.0426 C.ar    1  UNL1        0.3125
     11 H          -8.7267  -10.5859   31.1345 H       1  UNL1        0.1718
     12 N          -5.9497  -11.0513   29.2883 N.3     1  UNL1       -0.2647
     13 C          -5.3855  -10.7043   30.6051 C.3     1  UNL1        0.0941
     14 C          -6.2960   -9.6677   31.2716 C.3     1  UNL1        0.1084
     15 N          -6.8279   -8.7299   30.2741 N.pl3   1  UNL1       -0.2988
     16 C          -6.1220   -8.5613   28.9977 C.3     1  UNL1        0.1084
     17 C          -5.8645   -9.9271   28.3277 C.3     1  UNL1        0.0941
     18 C          -5.4295  -12.3222   28.7401 C.3     1  UNL1        0.1199
     19 C          -7.5201  -14.9406   27.4482 C.ar    1  UNL1        0.1165
     20 N          -6.3097  -14.3459   27.5241 N.ar    1  UNL1       -0.2344
     21 C          -6.5128  -13.2943   28.3438 C.ar    1  UNL1        0.0878
     22 C          -7.8387  -13.2689   28.7368 C.ar    1  UNL1        0.0499
     23 C          -8.4835  -12.3123   29.6897 C.3     1  UNL1        0.0511
     24 N          -8.4682  -14.3096   28.1689 N.ar    1  UNL1       -0.3443
     25 H          -9.4743  -14.5738   28.2642 H       1  UNL1        0.1668
     26 C          -8.4529  -15.7066   25.2800 C.3     1  UNL1        0.0084
     27 C          -7.7934  -16.1328   26.5861 C.3     1  UNL1        0.0637
     28 C         -11.3012  -11.1899   32.0993 C.ar    1  UNL1        0.0218
     29 C         -12.5747  -11.4938   31.5949 C.ar    1  UNL1        0.0013
     30 C         -13.2157  -12.6865   31.9398 C.ar    1  UNL1       -0.0042
     31 C         -12.6007  -13.6199   32.8055 C.ar    1  UNL1       -0.0228
     32 C         -11.3197  -13.3019   33.3062 C.ar    1  UNL1       -0.0042
     33 C         -10.6811  -12.1088   32.9598 C.ar    1  UNL1        0.0013
     34 C         -13.2706  -14.9485   33.2133 C.3     1  UNL1        0.0189
     35 C         -12.6680  -16.1044   32.3855 C.3     1  UNL1        0.0044
     36 C         -14.8010  -14.9531   32.9815 C.3     1  UNL1        0.0044
     37 C         -13.0234  -15.2101   34.7151 C.3     1  UNL1        0.0044
@<TRIPOS>BOND
     1    26    27    1
     2    27    19    1
     3    19    20   ar
     4    20    21   ar
     5    21    18    1
     6    18    12    1
     7    12    13    1
     8    13    14    1
     9    14    15    1
    10    15     1    1
    11     1     2   ar
    12     2     3   ar
    13     3     4   ar
    14     4     5    1
    15     4     6   ar
    16     6     7   ar
    17     7     8   ar
    18     8    28    1
    19    28    29   ar
    20    29    30   ar
    21    30    31   ar
    22    31    34    1
    23    34    35    1
    24    34    36    1
    25    34    37    1
    26    31    32   ar
    27    32    33   ar
    28     8     9   ar
    29     9    10   ar
    30    15    16    1
    31    16    17    1
    32    21    22   ar
    33    22    23    1
    34    22    24   ar
    35    24    19   ar
    36    17    12    1
    37    10     1   ar
    38    10     6   ar
    39    33    28   ar
    40    24    25    1
    41     9    11    1
@<TRIPOS>MOLECULE
*****
 37 41 0 0 0
SMALL
GASTEIGER

@<TRIPOS>ATOM
      1 C          -7.1368  -17.0516   23.3637 C.ar    1  UNL1        0.1317
      2 C          -7.7778  -18.1140   22.6973 C.ar    1  UNL1        0.0290
      3 C          -8.9549  -18.6787   23.2218 C.ar    1  UNL1        0.0786
      4 C          -9.4985  -18.1702   24.4105 C.ar    1  UNL1        0.2664
      5 BR        -11.1056  -18.9218   25.1310 Br      1  UNL1        0.0280
      6 N          -8.8582  -17.1350   25.0171 N.ar    1  UNL1       -0.1220
      7 C          -9.1716  -16.4506   26.1284 C.ar    1  UNL1        0.3140
      8 C          -8.2004  -15.4684   26.2929 C.ar    1  UNL1        0.1320
      9 N          -7.2941  -15.5471   25.2879 N.ar    1  UNL1       -0.2941
     10 C          -7.7311  -16.5800   24.5403 C.ar    1  UNL1        0.3125
     11 H          -6.5020  -14.9818   25.1389 H       1  UNL1        0.1718
     12 N          -3.8273  -16.8190   21.2425 N.3     1  UNL1       -0.2647
     13 C          -3.4860  -16.3429   22.5950 C.3     1  UNL1        0.0941
     14 C          -4.6598  -16.6450   23.5325 C.3     1  UNL1        0.1084
     15 N          -5.9391  -16.4553   22.8363 N.pl3   1  UNL1       -0.2988
     16 C          -5.9885  -15.6010   21.6431 C.3     1  UNL1        0.1084
     17 C          -4.9093  -16.0193   20.6229 C.3     1  UNL1        0.0941
     18 C          -2.6517  -16.9838   20.3610 C.3     1  UNL1        0.1199
     19 C          -0.1177  -19.4045   21.1451 C.ar    1  UNL1        0.1165
     20 N          -0.4599  -18.1389   20.8200 N.ar    1  UNL1       -0.2344
     21 C          -1.8032  -18.1819   20.7080 C.ar    1  UNL1        0.0878
     22 C          -2.2429  -19.4695   20.9565 C.ar    1  UNL1        0.0499
     23 C          -3.6588  -19.9516   20.9990 C.3     1  UNL1        0.0511
     24 N          -1.1753  -20.2353   21.2316 N.ar    1  UNL1       -0.3443
     25 H          -1.1654  -21.2539   21.4627 H       1  UNL1        0.1668
     26 C           1.3829  -21.3728   21.3233 C.3     1  UNL1        0.0084
     27 C           1.3007  -19.8511   21.3126 C.3     1  UNL1        0.0637
     28 C          -8.1245  -14.4612   27.3795 C.ar    1  UNL1        0.0218
     29 C          -9.2890  -14.0859   28.0664 C.ar    1  UNL1        0.0013
     30 C          -9.2413  -13.1391   29.0929 C.ar    1  UNL1       -0.0042
     31 C          -8.0204  -12.5329   29.4682 C.ar    1  UNL1       -0.0228
     32 C          -6.8564  -12.9192   28.7691 C.ar    1  UNL1       -0.0042
     33 C          -6.9069  -13.8659   27.7433 C.ar    1  UNL1        0.0013
     34 C          -7.9204  -11.4835   30.5948 C.3     1  UNL1        0.0189
     35 C          -6.4576  -11.3868   31.0801 C.3     1  UNL1        0.0044
     36 C          -8.8006  -11.8240   31.8217 C.3     1  UNL1        0.0044
     37 C          -8.3749  -10.1082   30.0592 C.3     1  UNL1        0.0044
@<TRIPOS>BOND
     1    26    27    1
     2    27    19    1
     3    19    20   ar
     4    20    21   ar
     5    21    18    1
     6    18    12    1
     7    12    13    1
     8    13    14    1
     9    14    15    1
    10    15     1    1
    11     1     2   ar
    12     2     3   ar
    13     3     4   ar
    14     4     5    1
    15     4     6   ar
    16     6     7   ar
    17     7     8   ar
    18     8    28    1
    19    28    29   ar
    20    29    30   ar
    21    30    31   ar
    22    31    34    1
    23    34    35    1
    24    34    36    1
    25    34    37    1
    26    31    32   ar
    27    32    33   ar
    28     8     9   ar
    29     9    10   ar
    30    15    16    1
    31    16    17    1
    32    21    22   ar
    33    22    23    1
    34    22    24   ar
    35    24    19   ar
    36    17    12    1
    37    10     1   ar
    38    10     6   ar
    39    33    28   ar
    40    24    25    1
    41     9    11    1
@<TRIPOS>MOLECULE
*****
 37 41 0 0 0
SMALL
GASTEIGER

@<TRIPOS>ATOM
      1 C          -7.6120   -8.7128   29.8139 C.ar    1  UNL1        0.1317
      2 C          -7.5302   -7.3335   29.5407 C.ar    1  UNL1        0.0290
      3 C          -8.6344   -6.4932   29.7739 C.ar    1  UNL1        0.0786
      4 C          -9.8199   -7.0334   30.2932 C.ar    1  UNL1        0.2664
      5 BR        -11.3276   -5.9005   30.6252 Br      1  UNL1        0.0280
      6 N          -9.8554   -8.3671   30.5569 N.ar    1  UNL1       -0.1220
      7 C         -10.8344   -9.1248   31.0754 C.ar    1  UNL1        0.3140
      8 C         -10.3439  -10.4233   31.1662 C.ar    1  UNL1        0.1320
      9 N          -9.0693  -10.4650   30.7066 N.ar    1  UNL1       -0.2941
     10 C          -8.8174   -9.1926   30.3400 C.ar    1  UNL1        0.3125
     11 H          -8.4682  -11.2428   30.6531 H       1  UNL1        0.1718
     12 N          -5.5094  -11.5544   28.0788 N.3     1  UNL1       -0.2647
     13 C          -5.4478  -11.8200   29.5274 C.3     1  UNL1        0.0941
     14 C          -6.4489  -10.9030   30.2377 C.3     1  UNL1        0.1084
     15 N          -6.4899   -9.5844   29.5919 N.pl3   1  UNL1       -0.2988
     16 C          -5.3485   -9.1464   28.7787 C.3     1  UNL1        0.1084
     17 C          -4.9777  -10.2165   27.7308 C.3     1  UNL1        0.0941
     18 C          -4.9330  -12.6387   27.2553 C.3     1  UNL1        0.1199
     19 C          -7.4944  -15.1557   27.2718 C.ar    1  UNL1        0.1165
     20 N          -6.9209  -14.0726   27.8397 N.ar    1  UNL1       -0.2344
     21 C          -5.8805  -13.7907   27.0291 C.ar    1  UNL1        0.0878
     22 C          -5.8403  -14.7113   25.9977 C.ar    1  UNL1        0.0499
     23 C          -4.8901  -14.7373   24.8422 C.3     1  UNL1        0.0511
     24 N          -6.8607  -15.5690   26.1564 N.ar    1  UNL1       -0.3443
     25 H          -7.1101  -16.3807   25.5482 H       1  UNL1        0.1668
     26 C          -9.0141  -17.1046   27.0484 C.3     1  UNL1        0.0084
     27 C          -8.6669  -15.8683   27.8690 C.3     1  UNL1        0.0637
     28 C         -11.0612  -11.6143   31.6838 C.ar    1  UNL1        0.0218
     29 C         -12.3782  -11.8697   31.2730 C.ar    1  UNL1        0.0013
     30 C         -13.0731  -12.9850   31.7478 C.ar    1  UNL1       -0.0042
     31 C         -12.4702  -13.8868   32.6545 C.ar    1  UNL1       -0.0228
     32 C         -11.1450  -13.6183   33.0601 C.ar    1  UNL1       -0.0042
     33 C         -10.4526  -12.5025   32.5839 C.ar    1  UNL1        0.0013
     34 C         -13.1989  -15.1305   33.2048 C.3     1  UNL1        0.0189
     35 C         -12.6699  -16.3944   32.4926 C.3     1  UNL1        0.0044
     36 C         -14.7314  -15.0792   32.9935 C.3     1  UNL1        0.0044
     37 C         -12.9389  -15.2502   34.7223 C.3     1  UNL1        0.0044
@<TRIPOS>BOND
     1    26    27    1
     2    27    19    1
     3    19    20   ar
     4    20    21   ar
     5    21    18    1
     6    18    12    1
     7    12    13    1
     8    13    14    1
     9    14    15    1
    10    15     1    1
    11     1     2   ar
    12     2     3   ar
    13     3     4   ar
    14     4     5    1
    15     4     6   ar
    16     6     7   ar
    17     7     8   ar
    18     8    28    1
    19    28    29   ar
    20    29    30   ar
    21    30    31   ar
    22    31    34    1
    23    34    35    1
    24    34    36    1
    25    34    37    1
    26    31    32   ar
    27    32    33   ar
    28     8     9   ar
    29     9    10   ar
    30    15    16    1
    31    16    17    1
    32    21    22   ar
    33    22    23    1
    34    22    24   ar
    35    24    19   ar
    36    17    12    1
    37    10     1   ar
    38    10     6   ar
    39    33    28   ar
    40    24    25    1
    41     9    11    1
@<TRIPOS>MOLECULE
*****
 37 41 0 0 0
SMALL
GASTEIGER

@<TRIPOS>ATOM
      1 C         -11.7171  -10.2841   31.3948 C.ar    1  UNL1        0.1317
      2 C         -12.6644  -10.3585   32.4344 C.ar    1  UNL1        0.0290
      3 C         -13.0413  -11.6045   32.9684 C.ar    1  UNL1        0.0786
      4 C         -12.4593  -12.7785   32.4682 C.ar    1  UNL1        0.2664
      5 BR        -12.9549  -14.4806   33.1918 Br      1  UNL1        0.0280
      6 N         -11.5386  -12.6644   31.4737 N.ar    1  UNL1       -0.1220
      7 C         -10.8183  -13.6058   30.8441 C.ar    1  UNL1        0.3140
      8 C          -9.9996  -12.9522   29.9289 C.ar    1  UNL1        0.1320
      9 N         -10.2141  -11.6154   29.9950 N.ar    1  UNL1       -0.2941
     10 C         -11.1636  -11.4881   30.9432 C.ar    1  UNL1        0.3125
     11 H          -9.7783  -10.9038   29.4726 H       1  UNL1        0.1718
     12 N          -9.2381   -7.4245   30.3068 N.3     1  UNL1       -0.2647
     13 C         -10.3238   -6.7677   31.0567 C.3     1  UNL1        0.0941
     14 C         -11.1842   -7.8472   31.7216 C.3     1  UNL1        0.1084
     15 N         -11.3122   -9.0185   30.8447 N.pl3   1  UNL1       -0.2988
     16 C         -11.0882   -8.8643   29.4018 C.3     1  UNL1        0.1084
     17 C          -9.7402   -8.1657   29.1267 C.3     1  UNL1        0.0941
     18 C          -8.1117   -6.5216   29.9872 C.3     1  UNL1        0.1199
     19 C          -5.0902   -8.3962   29.4851 C.ar    1  UNL1        0.1165
     20 N          -6.3165   -8.0253   29.0571 N.ar    1  UNL1       -0.2344
     21 C          -6.7659   -7.2020   30.0262 C.ar    1  UNL1        0.0878
     22 C          -5.8103   -7.1005   31.0210 C.ar    1  UNL1        0.0499
     23 C          -5.8673   -6.2478   32.2492 C.3     1  UNL1        0.0511
     24 N          -4.7562   -7.8556   30.6736 N.ar    1  UNL1       -0.3443
     25 H          -3.8694   -7.9946   31.2077 H       1  UNL1        0.1668
     26 C          -4.9934   -9.9896   27.5853 C.3     1  UNL1        0.0084
     27 C          -4.2270   -9.3717   28.7485 C.3     1  UNL1        0.0637
     28 C          -9.0208  -13.5741   29.0037 C.ar    1  UNL1        0.0218
     29 C          -7.6978  -13.1081   28.9702 C.ar    1  UNL1        0.0013
     30 C          -6.7591  -13.6786   28.1066 C.ar    1  UNL1       -0.0042
     31 C          -7.1148  -14.7400   27.2430 C.ar    1  UNL1       -0.0228
     32 C          -8.4489  -15.1993   27.2864 C.ar    1  UNL1       -0.0042
     33 C          -9.3854  -14.6271   28.1507 C.ar    1  UNL1        0.0013
     34 C          -6.1123  -15.3999   26.2735 C.3     1  UNL1        0.0189
     35 C          -6.8414  -15.8000   24.9724 C.3     1  UNL1        0.0044
     36 C          -5.4551  -16.6751   26.8547 C.3     1  UNL1        0.0044
     37 C          -4.9828  -14.4004   25.9418 C.3     1  UNL1        0.0044
@<TRIPOS>BOND
     1    26    27    1
     2    27    19    1
     3    19    20   ar
     4    20    21   ar
     5    21    18    1
     6    18    12    1
     7    12    13    1
     8    13    14    1
     9    14    15    1
    10    15     1    1
    11     1     2   ar
    12     2     3   ar
    13     3     4   ar
    14     4     5    1
    15     4     6   ar
    16     6     7   ar
    17     7     8   ar
    18     8    28    1
    19    28    29   ar
    20    29    30   ar
    21    30    31   ar
    22    31    34    1
    23    34    35    1
    24    34    36    1
    25    34    37    1
    26    31    32   ar
    27    32    33   ar
    28     8     9   ar
    29     9    10   ar
    30    15    16    1
    31    16    17    1
    32    21    22   ar
    33    22    23    1
    34    22    24   ar
    35    24    19   ar
    36    17    12    1
    37    10     1   ar
    38    10     6   ar
    39    33    28   ar
    40    24    25    1
    41     9    11    1
