@<TRIPOS>MOLECULE
*****
 49 54 0 0 0
SMALL
GASTEIGER

@<TRIPOS>ATOM
      1 O          -8.4309  -12.3880   35.5117 O.2     1  UNL1       -0.2861
      2 C          -9.0894  -12.0636   34.4866 C.2     1  UNL1        0.2080
      3 C          -8.5064  -11.1129   33.5142 C.2     1  UNL1        0.1445
      4 C          -8.0744   -9.8574   33.9518 C.2     1  UNL1        0.0149
      5 C          -7.4448   -8.9813   33.0639 C.2     1  UNL1        0.0516
      6 C          -7.3020   -9.3600   31.7239 C.2     1  UNL1        0.2813
      7 N          -7.7567  -10.5715   31.2825 N.am    1  UNL1       -0.1016
      8 C          -8.3429  -11.4551   32.1561 C.2     1  UNL1        0.4213
      9 O          -8.7604  -12.5727   31.7425 O.2     1  UNL1       -0.2139
     10 C          -6.9643   -7.6341   33.5297 C.3     1  UNL1        0.0590
     11 C          -6.4491   -6.8359   32.3639 C.ar    1  UNL1       -0.0131
     12 C          -7.2113   -5.7798   31.8372 C.ar    1  UNL1        0.0259
     13 C          -6.7494   -5.0623   30.7290 C.ar    1  UNL1        0.1421
     14 F          -7.4875   -4.0415   30.2276 F       1  UNL1       -0.2041
     15 C          -5.5298   -5.3999   30.1350 C.ar    1  UNL1        0.0592
     16 C          -4.7717   -6.4576   30.6458 C.ar    1  UNL1        0.1421
     17 F          -3.5929   -6.7890   30.0637 F       1  UNL1       -0.2041
     18 C          -5.2303   -7.1773   31.7538 C.ar    1  UNL1        0.0259
     19 C          -7.5942  -10.9070   29.8574 C.3     1  UNL1        0.3475
     20 C          -6.2376  -10.4777   29.3576 C.ar    1  UNL1        0.0823
     21 C          -6.1382   -9.6215   28.2473 C.ar    1  UNL1        0.0047
     22 C          -4.8870   -9.1925   27.7963 C.ar    1  UNL1        0.0000
     23 C          -3.7251   -9.6210   28.4419 C.ar    1  UNL1        0.0023
     24 C          -3.8113  -10.4906   29.5311 C.ar    1  UNL1        0.0295
     25 C          -5.0601  -10.9234   29.9888 C.ar    1  UNL1        0.1426
     26 F          -5.1174  -11.7639   31.0527 F       1  UNL1       -0.2043
     27 C         -10.4016  -12.6800   34.2031 C.2     1  UNL1        0.0837
     28 C         -10.8420  -13.8267   34.7449 C.2     1  UNL1        0.1910
     29 O         -10.0641  -14.4939   35.6923 O.2     1  UNL1       -0.5018
     30 H         -10.3647  -15.3644   36.1139 H       1  UNL1        0.2924
     31 C         -12.1620  -14.3856   34.3579 C.2     1  UNL1        0.2831
     32 O         -12.5954  -15.4201   34.9305 O.2     1  UNL1       -0.2666
     33 N         -12.9404  -13.7906   33.3099 N.am    1  UNL1       -0.2701
     34 C         -13.8745  -12.7009   33.6236 C.3     1  UNL1        0.1152
     35 C         -14.0870  -11.7819   32.4088 C.3     1  UNL1        0.1123
     36 N         -12.8375  -11.6476   31.6420 N.pl3   1  UNL1       -0.3041
     37 C         -12.1001  -12.8502   31.2169 C.3     1  UNL1        0.1123
     38 C         -12.6324  -14.1051   31.9131 C.3     1  UNL1        0.1152
     39 C         -12.3814  -10.3492   31.2184 C.ar    1  UNL1        0.0480
     40 C         -12.9704   -9.1863   31.7351 C.ar    1  UNL1        0.0160
     41 C         -12.5166   -7.9256   31.3366 C.ar    1  UNL1        0.0188
     42 C         -11.4511   -7.8026   30.4252 C.ar    1  UNL1        0.0642
     43 C         -10.8735   -8.9716   29.9008 C.ar    1  UNL1        0.0188
     44 C         -11.3350  -10.2296   30.2912 C.ar    1  UNL1        0.0160
     45 N         -10.9442   -6.5037   30.0523 N.ar    1  UNL1       -0.3036
     46 C         -11.4313   -5.3050   30.4389 C.ar    1  UNL1        0.0802
     47 C         -10.6671   -4.2897   29.9023 C.ar    1  UNL1        0.0205
     48 C          -9.6732   -4.8937   29.1606 C.ar    1  UNL1        0.0205
     49 C          -9.8711   -6.2538   29.2706 C.ar    1  UNL1        0.0802
@<TRIPOS>BOND
     1     1     2    2
     2     2    27    1
     3    27    28    2
     4    28    29    1
     5    28    31    1
     6    31    32    2
     7    31    33   am
     8    33    34    1
     9    34    35    1
    10    35    36    1
    11    36    39    1
    12    39    40   ar
    13    40    41   ar
    14    41    42   ar
    15    42    45    1
    16    45    46   ar
    17    46    47   ar
    18    47    48   ar
    19    48    49   ar
    20    42    43   ar
    21    43    44   ar
    22    36    37    1
    23    37    38    1
    24     2     3    1
    25     3     4    2
    26     4     5    1
    27     5    10    1
    28    10    11    1
    29    11    12   ar
    30    12    13   ar
    31    13    14    1
    32    13    15   ar
    33    15    16   ar
    34    16    17    1
    35    16    18   ar
    36     5     6    2
    37     6     7    1
    38     7    19    1
    39    19    20    1
    40    20    21   ar
    41    21    22   ar
    42    22    23   ar
    43    23    24   ar
    44    24    25   ar
    45    25    26    1
    46     7     8    1
    47     8     9    2
    48    38    33    1
    49     8     3    1
    50    44    39   ar
    51    18    11   ar
    52    25    20   ar
    53    49    45   ar
    54    29    30    1
@<TRIPOS>MOLECULE
*****
 49 54 0 0 0
SMALL
GASTEIGER

@<TRIPOS>ATOM
      1 O          -5.3599  -15.7954   27.1043 O.2     1  UNL1       -0.2861
      2 C          -5.5375  -14.8751   26.2608 C.2     1  UNL1        0.2080
      3 C          -6.2296  -15.1744   24.9877 C.2     1  UNL1        0.1445
      4 C          -5.4904  -15.2571   23.8041 C.2     1  UNL1        0.0149
      5 C          -6.1149  -15.6219   22.6087 C.2     1  UNL1        0.0516
      6 C          -7.4959  -15.8509   22.6071 C.2     1  UNL1        0.2813
      7 N          -8.2299  -15.7345   23.7547 N.am    1  UNL1       -0.1016
      8 C          -7.6185  -15.4135   24.9423 C.2     1  UNL1        0.4213
      9 O          -8.3018  -15.3080   25.9989 O.2     1  UNL1       -0.2139
     10 C          -5.3244  -15.7269   21.3332 C.3     1  UNL1        0.0590
     11 C          -4.6177  -17.0528   21.2689 C.ar    1  UNL1       -0.0131
     12 C          -5.2615  -18.1719   20.7151 C.ar    1  UNL1        0.0259
     13 C          -4.6184  -19.4136   20.6900 C.ar    1  UNL1        0.1421
     14 F          -5.2432  -20.4892   20.1506 F       1  UNL1       -0.2041
     15 C          -3.3338  -19.5478   21.2251 C.ar    1  UNL1        0.0592
     16 C          -2.6917  -18.4416   21.7891 C.ar    1  UNL1        0.1421
     17 F          -1.4491  -18.5750   22.3149 F       1  UNL1       -0.2041
     18 C          -3.3317  -17.1983   21.8159 C.ar    1  UNL1        0.0259
     19 C          -9.6824  -15.9704   23.6873 C.3     1  UNL1        0.3475
     20 C          -9.9798  -17.4417   23.5417 C.ar    1  UNL1        0.0823
     21 C         -10.3575  -17.9602   22.2910 C.ar    1  UNL1        0.0047
     22 C         -10.6041  -19.3273   22.1386 C.ar    1  UNL1        0.0000
     23 C         -10.4858  -20.1866   23.2332 C.ar    1  UNL1        0.0023
     24 C         -10.1343  -19.6784   24.4856 C.ar    1  UNL1        0.0295
     25 C          -9.8850  -18.3114   24.6454 C.ar    1  UNL1        0.1426
     26 F          -9.5395  -17.8431   25.8713 F       1  UNL1       -0.2043
     27 C          -5.1344  -13.4858   26.5598 C.2     1  UNL1        0.0837
     28 C          -5.6040  -12.7557   27.5840 C.2     1  UNL1        0.1910
     29 O          -6.4979  -13.3240   28.4928 O.2     1  UNL1       -0.5018
     30 H          -6.8759  -12.7977   29.2713 H       1  UNL1        0.2924
     31 C          -5.1666  -11.3493   27.7706 C.2     1  UNL1        0.2831
     32 O          -4.3684  -10.8280   26.9477 O.2     1  UNL1       -0.2666
     33 N          -5.6058  -10.5800   28.8991 N.am    1  UNL1       -0.2701
     34 C          -6.8616   -9.8217   28.8210 C.3     1  UNL1        0.1152
     35 C          -7.4916   -9.6419   30.2125 C.3     1  UNL1        0.1123
     36 N          -7.2611  -10.8383   31.0388 N.pl3   1  UNL1       -0.3041
     37 C          -5.8990  -11.3792   31.1896 C.3     1  UNL1        0.1123
     38 C          -4.9321  -10.7406   30.1896 C.3     1  UNL1        0.1152
     39 C          -8.3445  -11.4274   31.7820 C.ar    1  UNL1        0.0480
     40 C          -9.4110  -12.0452   31.1133 C.ar    1  UNL1        0.0160
     41 C         -10.4546  -12.6318   31.8350 C.ar    1  UNL1        0.0188
     42 C         -10.4438  -12.6276   33.2424 C.ar    1  UNL1        0.0642
     43 C          -9.3788  -11.9953   33.9069 C.ar    1  UNL1        0.0188
     44 C          -8.3431  -11.4005   33.1850 C.ar    1  UNL1        0.0160
     45 N         -11.4917  -13.2788   33.9913 N.ar    1  UNL1       -0.3036
     46 C         -12.8071  -12.9737   33.9728 C.ar    1  UNL1        0.0802
     47 C         -13.5027  -13.8338   34.7967 C.ar    1  UNL1        0.0205
     48 C         -12.5745  -14.6991   35.3376 C.ar    1  UNL1        0.0205
     49 C         -11.3483  -14.3317   34.8254 C.ar    1  UNL1        0.0802
@<TRIPOS>BOND
     1     1     2    2
     2     2    27    1
     3    27    28    2
     4    28    29    1
     5    28    31    1
     6    31    32    2
     7    31    33   am
     8    33    34    1
     9    34    35    1
    10    35    36    1
    11    36    39    1
    12    39    40   ar
    13    40    41   ar
    14    41    42   ar
    15    42    45    1
    16    45    46   ar
    17    46    47   ar
    18    47    48   ar
    19    48    49   ar
    20    42    43   ar
    21    43    44   ar
    22    36    37    1
    23    37    38    1
    24     2     3    1
    25     3     4    2
    26     4     5    1
    27     5    10    1
    28    10    11    1
    29    11    12   ar
    30    12    13   ar
    31    13    14    1
    32    13    15   ar
    33    15    16   ar
    34    16    17    1
    35    16    18   ar
    36     5     6    2
    37     6     7    1
    38     7    19    1
    39    19    20    1
    40    20    21   ar
    41    21    22   ar
    42    22    23   ar
    43    23    24   ar
    44    24    25   ar
    45    25    26    1
    46     7     8    1
    47     8     9    2
    48    38    33    1
    49     8     3    1
    50    44    39   ar
    51    18    11   ar
    52    25    20   ar
    53    49    45   ar
    54    29    30    1
@<TRIPOS>MOLECULE
*****
 49 54 0 0 0
SMALL
GASTEIGER

@<TRIPOS>ATOM
      1 O          -5.4128  -15.8533   27.0602 O.2     1  UNL1       -0.2861
      2 C          -5.5942  -14.9229   26.2287 C.2     1  UNL1        0.2080
      3 C          -6.3083  -15.2028   24.9634 C.2     1  UNL1        0.1445
      4 C          -7.6836  -15.4526   24.9886 C.2     1  UNL1        0.0149
      5 C          -8.3875  -15.6346   23.7955 C.2     1  UNL1        0.0516
      6 C          -7.6863  -15.6144   22.5842 C.2     1  UNL1        0.2813
      7 N          -6.3350  -15.4080   22.5566 N.am    1  UNL1       -0.1016
      8 C          -5.6403  -15.1902   23.7216 C.2     1  UNL1        0.4213
      9 O          -4.3925  -14.9996   23.6895 O.2     1  UNL1       -0.2139
     10 C          -9.8698  -15.8900   23.8129 C.3     1  UNL1        0.0590
     11 C         -10.1461  -17.3539   23.6070 C.ar    1  UNL1       -0.0131
     12 C          -9.9131  -18.2710   24.6455 C.ar    1  UNL1        0.0259
     13 C         -10.1339  -19.6369   24.4415 C.ar    1  UNL1        0.1421
     14 F          -9.9112  -20.5168   25.4486 F       1  UNL1       -0.2041
     15 C         -10.5795  -20.0963   23.1986 C.ar    1  UNL1        0.0592
     16 C         -10.8015  -19.1911   22.1566 C.ar    1  UNL1        0.1421
     17 F         -11.2260  -19.6390   20.9493 F       1  UNL1       -0.2041
     18 C         -10.5819  -17.8245   22.3569 C.ar    1  UNL1        0.0259
     19 C          -5.6490  -15.4151   21.2530 C.3     1  UNL1        0.3475
     20 C          -5.0649  -16.7747   20.9628 C.ar    1  UNL1        0.0823
     21 C          -5.9148  -17.8542   20.6657 C.ar    1  UNL1        0.0047
     22 C          -5.3818  -19.1104   20.3641 C.ar    1  UNL1        0.0000
     23 C          -3.9986  -19.3030   20.3656 C.ar    1  UNL1        0.0023
     24 C          -3.1460  -18.2434   20.6827 C.ar    1  UNL1        0.0295
     25 C          -3.6721  -16.9831   20.9847 C.ar    1  UNL1        0.1426
     26 F          -2.8224  -15.9683   21.2839 F       1  UNL1       -0.2043
     27 C          -5.1732  -13.5406   26.5353 C.2     1  UNL1        0.0837
     28 C          -5.6260  -12.8136   27.5692 C.2     1  UNL1        0.1910
     29 O          -6.5184  -13.3793   28.4811 O.2     1  UNL1       -0.5018
     30 H          -6.8839  -12.8552   29.2670 H       1  UNL1        0.2924
     31 C          -5.1714  -11.4137   27.7632 C.2     1  UNL1        0.2831
     32 O          -4.3650  -10.8987   26.9445 O.2     1  UNL1       -0.2666
     33 N          -5.6036  -10.6441   28.8943 N.am    1  UNL1       -0.2701
     34 C          -6.8497   -9.8698   28.8168 C.3     1  UNL1        0.1152
     35 C          -7.4805   -9.6884   30.2078 C.3     1  UNL1        0.1123
     36 N          -7.2669  -10.8914   31.0290 N.pl3   1  UNL1       -0.3041
     37 C          -5.9119  -11.4500   31.1805 C.3     1  UNL1        0.1123
     38 C          -4.9349  -10.8189   30.1855 C.3     1  UNL1        0.1152
     39 C          -8.3593  -11.4702   31.7672 C.ar    1  UNL1        0.0480
     40 C          -9.4283  -12.0780   31.0934 C.ar    1  UNL1        0.0160
     41 C         -10.4808  -12.6548   31.8102 C.ar    1  UNL1        0.0188
     42 C         -10.4765  -12.6506   33.2177 C.ar    1  UNL1        0.0642
     43 C          -9.4089  -12.0283   33.8872 C.ar    1  UNL1        0.0188
     44 C          -8.3642  -11.4432   33.1701 C.ar    1  UNL1        0.0160
     45 N         -11.5340  -13.2919   33.9616 N.ar    1  UNL1       -0.3036
     46 C         -12.8448  -12.9677   33.9449 C.ar    1  UNL1        0.0802
     47 C         -13.5532  -13.8235   34.7625 C.ar    1  UNL1        0.0205
     48 C         -12.6378  -14.7060   35.2975 C.ar    1  UNL1        0.0205
     49 C         -11.4062  -14.3527   34.7882 C.ar    1  UNL1        0.0802
@<TRIPOS>BOND
     1     1     2    2
     2     2    27    1
     3    27    28    2
     4    28    29    1
     5    28    31    1
     6    31    32    2
     7    31    33   am
     8    33    34    1
     9    34    35    1
    10    35    36    1
    11    36    39    1
    12    39    40   ar
    13    40    41   ar
    14    41    42   ar
    15    42    45    1
    16    45    46   ar
    17    46    47   ar
    18    47    48   ar
    19    48    49   ar
    20    42    43   ar
    21    43    44   ar
    22    36    37    1
    23    37    38    1
    24     2     3    1
    25     3     4    2
    26     4     5    1
    27     5    10    1
    28    10    11    1
    29    11    12   ar
    30    12    13   ar
    31    13    14    1
    32    13    15   ar
    33    15    16   ar
    34    16    17    1
    35    16    18   ar
    36     5     6    2
    37     6     7    1
    38     7    19    1
    39    19    20    1
    40    20    21   ar
    41    21    22   ar
    42    22    23   ar
    43    23    24   ar
    44    24    25   ar
    45    25    26    1
    46     7     8    1
    47     8     9    2
    48    38    33    1
    49     8     3    1
    50    44    39   ar
    51    18    11   ar
    52    25    20   ar
    53    49    45   ar
    54    29    30    1
@<TRIPOS>MOLECULE
*****
 49 54 0 0 0
SMALL
GASTEIGER

@<TRIPOS>ATOM
      1 O          -8.4960  -12.3713   35.4994 O.2     1  UNL1       -0.2861
      2 C          -9.0627  -12.0984   34.4066 C.2     1  UNL1        0.2080
      3 C          -8.4038  -11.1809   33.4510 C.2     1  UNL1        0.1445
      4 C          -8.2715  -11.5591   32.1116 C.2     1  UNL1        0.0149
      5 C          -7.7286  -10.6705   31.1800 C.2     1  UNL1        0.0516
      6 C          -7.2740   -9.4214   31.6189 C.2     1  UNL1        0.2813
      7 N          -7.3667   -9.0612   32.9345 N.am    1  UNL1       -0.1016
      8 C          -7.9336   -9.9131   33.8511 C.2     1  UNL1        0.4213
      9 O          -8.0167   -9.5745   35.0647 O.2     1  UNL1       -0.2139
     10 C          -7.5954  -11.0642   29.7343 C.3     1  UNL1        0.0590
     11 C          -6.2258  -10.7098   29.2245 C.ar    1  UNL1       -0.0131
     12 C          -5.0802  -11.1906   29.8804 C.ar    1  UNL1        0.0259
     13 C          -3.8066  -10.8298   29.4289 C.ar    1  UNL1        0.1421
     14 F          -2.7046  -11.3001   30.0634 F       1  UNL1       -0.2041
     15 C          -3.6688   -9.9807   28.3269 C.ar    1  UNL1        0.0592
     16 C          -4.8042   -9.4882   27.6768 C.ar    1  UNL1        0.1421
     17 F          -4.6692   -8.6584   26.6130 F       1  UNL1       -0.2041
     18 C          -6.0794   -9.8469   28.1254 C.ar    1  UNL1        0.0259
     19 C          -6.8552   -7.7405   33.3397 C.3     1  UNL1        0.3475
     20 C          -6.3947   -6.9531   32.1388 C.ar    1  UNL1        0.0823
     21 C          -5.1208   -7.1877   31.5930 C.ar    1  UNL1        0.0047
     22 C          -4.6973   -6.4860   30.4611 C.ar    1  UNL1        0.0000
     23 C          -5.5360   -5.5383   29.8702 C.ar    1  UNL1        0.0023
     24 C          -6.7942   -5.2803   30.4184 C.ar    1  UNL1        0.0295
     25 C          -7.2251   -5.9795   31.5506 C.ar    1  UNL1        0.1426
     26 F          -8.4544   -5.7146   32.0609 F       1  UNL1       -0.2043
     27 C         -10.3380  -12.7436   34.0331 C.2     1  UNL1        0.0837
     28 C         -10.8524  -13.8282   34.6344 C.2     1  UNL1        0.1910
     29 O         -10.2007  -14.3911   35.7328 O.2     1  UNL1       -0.5018
     30 H         -10.5590  -15.2132   36.2035 H       1  UNL1        0.2924
     31 C         -12.1223  -14.4270   34.1517 C.2     1  UNL1        0.2831
     32 O         -12.5581  -15.4822   34.6834 O.2     1  UNL1       -0.2666
     33 N         -12.8469  -13.8466   33.0579 N.am    1  UNL1       -0.2701
     34 C         -13.8376  -12.7930   33.3162 C.3     1  UNL1        0.1152
     35 C         -13.9976  -11.8677   32.0981 C.3     1  UNL1        0.1123
     36 N         -12.7036  -11.6822   31.4210 N.pl3   1  UNL1       -0.3041
     37 C         -11.8974  -12.8540   31.0369 C.3     1  UNL1        0.1123
     38 C         -12.4326  -14.1343   31.6830 C.3     1  UNL1        0.1152
     39 C         -12.2647  -10.3642   31.0420 C.ar    1  UNL1        0.0480
     40 C         -12.7906   -9.2305   31.6778 C.ar    1  UNL1        0.0160
     41 C         -12.3524   -7.9518   31.3216 C.ar    1  UNL1        0.0188
     42 C         -11.3651   -7.7820   30.3330 C.ar    1  UNL1        0.0642
     43 C         -10.8513   -8.9213   29.6900 C.ar    1  UNL1        0.0188
     44 C         -11.2977  -10.1967   30.0390 C.ar    1  UNL1        0.0160
     45 N         -10.8713   -6.4673   30.0002 N.ar    1  UNL1       -0.3036
     46 C         -11.3730   -5.2858   30.4197 C.ar    1  UNL1        0.0802
     47 C         -10.6183   -4.2470   29.9160 C.ar    1  UNL1        0.0205
     48 C          -9.6151   -4.8181   29.1608 C.ar    1  UNL1        0.0205
     49 C          -9.7983   -6.1828   29.2303 C.ar    1  UNL1        0.0802
@<TRIPOS>BOND
     1     1     2    2
     2     2    27    1
     3    27    28    2
     4    28    29    1
     5    28    31    1
     6    31    32    2
     7    31    33   am
     8    33    34    1
     9    34    35    1
    10    35    36    1
    11    36    39    1
    12    39    40   ar
    13    40    41   ar
    14    41    42   ar
    15    42    45    1
    16    45    46   ar
    17    46    47   ar
    18    47    48   ar
    19    48    49   ar
    20    42    43   ar
    21    43    44   ar
    22    36    37    1
    23    37    38    1
    24     2     3    1
    25     3     4    2
    26     4     5    1
    27     5    10    1
    28    10    11    1
    29    11    12   ar
    30    12    13   ar
    31    13    14    1
    32    13    15   ar
    33    15    16   ar
    34    16    17    1
    35    16    18   ar
    36     5     6    2
    37     6     7    1
    38     7    19    1
    39    19    20    1
    40    20    21   ar
    41    21    22   ar
    42    22    23   ar
    43    23    24   ar
    44    24    25   ar
    45    25    26    1
    46     7     8    1
    47     8     9    2
    48    38    33    1
    49     8     3    1
    50    44    39   ar
    51    18    11   ar
    52    25    20   ar
    53    49    45   ar
    54    29    30    1
@<TRIPOS>MOLECULE
*****
 49 54 0 0 0
SMALL
GASTEIGER

@<TRIPOS>ATOM
      1 O          -6.8313  -15.8625   27.8429 O.2     1  UNL1       -0.2861
      2 C          -7.8276  -15.1297   27.5973 C.2     1  UNL1        0.2080
      3 C          -8.0508  -13.9068   28.3997 C.2     1  UNL1        0.1445
      4 C          -9.3122  -13.6651   28.9518 C.2     1  UNL1        0.0149
      5 C          -9.5169  -12.5597   29.7814 C.2     1  UNL1        0.0516
      6 C          -8.4560  -11.6747   30.0066 C.2     1  UNL1        0.2813
      7 N          -7.2305  -11.8861   29.4386 N.am    1  UNL1       -0.1016
      8 C          -7.0090  -12.9906   28.6522 C.2     1  UNL1        0.4213
      9 O          -5.8748  -13.1806   28.1308 O.2     1  UNL1       -0.2139
     10 C         -10.8675  -12.2998   30.3908 C.3     1  UNL1        0.0590
     11 C         -10.8777  -12.7305   31.8316 C.ar    1  UNL1       -0.0131
     12 C          -9.9443  -12.1975   32.7362 C.ar    1  UNL1        0.0259
     13 C          -9.9294  -12.6266   34.0673 C.ar    1  UNL1        0.1421
     14 F          -9.0289  -12.1057   34.9368 F       1  UNL1       -0.2041
     15 C         -10.8390  -13.5956   34.5010 C.ar    1  UNL1        0.0592
     16 C         -11.7626  -14.1397   33.6036 C.ar    1  UNL1        0.1421
     17 F         -12.6389  -15.0852   34.0236 F       1  UNL1       -0.2041
     18 C         -11.7805  -13.7131   32.2718 C.ar    1  UNL1        0.0259
     19 C          -6.1575  -10.9106   29.6978 C.3     1  UNL1        0.3475
     20 C          -6.6405   -9.8141   30.6135 C.ar    1  UNL1        0.0823
     21 C          -6.9373   -8.5436   30.0904 C.ar    1  UNL1        0.0047
     22 C          -7.4159   -7.5303   30.9254 C.ar    1  UNL1        0.0000
     23 C          -7.5932   -7.7721   32.2894 C.ar    1  UNL1        0.0023
     24 C          -7.2788   -9.0235   32.8238 C.ar    1  UNL1        0.0295
     25 C          -6.8003  -10.0428   31.9940 C.ar    1  UNL1        0.1426
     26 F          -6.5075  -11.2517   32.5365 F       1  UNL1       -0.2043
     27 C          -8.7308  -15.4332   26.4684 C.2     1  UNL1        0.0837
     28 C          -8.3269  -15.7993   25.2416 C.2     1  UNL1        0.1910
     29 O          -6.9674  -15.9739   24.9786 O.2     1  UNL1       -0.5018
     30 H          -6.6302  -16.2423   24.0620 H       1  UNL1        0.2924
     31 C          -9.3173  -16.0387   24.1617 C.2     1  UNL1        0.2831
     32 O         -10.4887  -15.5911   24.2768 O.2     1  UNL1       -0.2666
     33 N          -8.9761  -16.8093   23.0006 N.am    1  UNL1       -0.2701
     34 C          -8.3739  -16.1465   21.8360 C.3     1  UNL1        0.1152
     35 C          -7.4990  -17.1216   21.0303 C.3     1  UNL1        0.1123
     36 N          -6.8139  -18.0618   21.9325 N.pl3   1  UNL1       -0.3041
     37 C          -7.5856  -18.8176   22.9344 C.3     1  UNL1        0.1123
     38 C          -9.0094  -18.2719   23.0685 C.3     1  UNL1        0.1152
     39 C          -5.4063  -18.3224   21.7771 C.ar    1  UNL1        0.0480
     40 C          -4.9481  -19.1559   20.7469 C.ar    1  UNL1        0.0160
     41 C          -3.5804  -19.3957   20.5856 C.ar    1  UNL1        0.0188
     42 C          -2.6409  -18.7917   21.4421 C.ar    1  UNL1        0.0642
     43 C          -3.1071  -17.9678   22.4809 C.ar    1  UNL1        0.0188
     44 C          -4.4736  -17.7381   22.6475 C.ar    1  UNL1        0.0160
     45 N          -1.2254  -18.9937   21.2459 N.ar    1  UNL1       -0.3036
     46 C          -0.4812  -20.0144   21.7236 C.ar    1  UNL1        0.0802
     47 C           0.8262  -19.8816   21.3047 C.ar    1  UNL1        0.0205
     48 C           0.8809  -18.7352   20.5394 C.ar    1  UNL1        0.0205
     49 C          -0.3943  -18.2113   20.5234 C.ar    1  UNL1        0.0802
@<TRIPOS>BOND
     1     1     2    2
     2     2    27    1
     3    27    28    2
     4    28    29    1
     5    28    31    1
     6    31    32    2
     7    31    33   am
     8    33    34    1
     9    34    35    1
    10    35    36    1
    11    36    39    1
    12    39    40   ar
    13    40    41   ar
    14    41    42   ar
    15    42    45    1
    16    45    46   ar
    17    46    47   ar
    18    47    48   ar
    19    48    49   ar
    20    42    43   ar
    21    43    44   ar
    22    36    37    1
    23    37    38    1
    24     2     3    1
    25     3     4    2
    26     4     5    1
    27     5    10    1
    28    10    11    1
    29    11    12   ar
    30    12    13   ar
    31    13    14    1
    32    13    15   ar
    33    15    16   ar
    34    16    17    1
    35    16    18   ar
    36     5     6    2
    37     6     7    1
    38     7    19    1
    39    19    20    1
    40    20    21   ar
    41    21    22   ar
    42    22    23   ar
    43    23    24   ar
    44    24    25   ar
    45    25    26    1
    46     7     8    1
    47     8     9    2
    48    38    33    1
    49     8     3    1
    50    44    39   ar
    51    18    11   ar
    52    25    20   ar
    53    49    45   ar
    54    29    30    1
@<TRIPOS>MOLECULE
*****
 49 54 0 0 0
SMALL
GASTEIGER

@<TRIPOS>ATOM
      1 O          -9.1540  -11.5714   34.3874 O.2     1  UNL1       -0.2861
      2 C          -8.9029  -11.0796   33.2538 C.2     1  UNL1        0.2080
      3 C          -9.9825  -10.9748   32.2474 C.2     1  UNL1        0.1445
      4 C         -11.1196  -11.7787   32.3699 C.2     1  UNL1        0.0149
      5 C         -12.1843  -11.6320   31.4772 C.2     1  UNL1        0.0516
      6 C         -12.0712  -10.7073   30.4324 C.2     1  UNL1        0.2813
      7 N         -10.9456   -9.9451   30.2859 N.am    1  UNL1       -0.1016
      8 C          -9.9091  -10.0552   31.1809 C.2     1  UNL1        0.4213
      9 O          -8.8724   -9.3482   31.0406 O.2     1  UNL1       -0.2139
     10 C         -13.4174  -12.4833   31.6101 C.3     1  UNL1        0.0590
     11 C         -13.1362  -13.6689   32.4915 C.ar    1  UNL1       -0.0131
     12 C         -12.8064  -13.4827   33.8443 C.ar    1  UNL1        0.0259
     13 C         -12.5077  -14.5831   34.6543 C.ar    1  UNL1        0.1421
     14 F         -12.1940  -14.3976   35.9602 F       1  UNL1       -0.2041
     15 C         -12.5277  -15.8738   34.1175 C.ar    1  UNL1        0.0592
     16 C         -12.8428  -16.0659   32.7691 C.ar    1  UNL1        0.1421
     17 F         -12.8539  -17.3175   32.2479 F       1  UNL1       -0.2041
     18 C         -13.1420  -14.9680   31.9561 C.ar    1  UNL1        0.0259
     19 C         -10.8772   -9.0017   29.1566 C.3     1  UNL1        0.3475
     20 C         -10.7607   -7.5819   29.6513 C.ar    1  UNL1        0.0823
     21 C          -9.6415   -6.8070   29.3012 C.ar    1  UNL1        0.0047
     22 C          -9.5398   -5.4802   29.7281 C.ar    1  UNL1        0.0000
     23 C         -10.5476   -4.9185   30.5152 C.ar    1  UNL1        0.0023
     24 C         -11.6523   -5.6867   30.8886 C.ar    1  UNL1        0.0295
     25 C         -11.7614   -7.0150   30.4642 C.ar    1  UNL1        0.1426
     26 F         -12.8475   -7.7389   30.8358 F       1  UNL1       -0.2043
     27 C          -7.5653  -10.5347   32.9443 C.2     1  UNL1        0.0837
     28 C          -7.2276   -9.2382   33.0311 C.2     1  UNL1        0.1910
     29 O          -8.1563   -8.3057   33.4959 O.2     1  UNL1       -0.5018
     30 H          -7.9350   -7.3199   33.5661 H       1  UNL1        0.2924
     31 C          -5.8647   -8.7868   32.6529 C.2     1  UNL1        0.2831
     32 O          -5.2736   -7.9252   33.3559 O.2     1  UNL1       -0.2666
     33 N          -5.2197   -9.2856   31.4725 N.am    1  UNL1       -0.2701
     34 C          -4.4234  -10.5183   31.5417 C.3     1  UNL1        0.1152
     35 C          -4.3889  -11.2366   30.1822 C.3     1  UNL1        0.1123
     36 N          -5.6788  -11.0855   29.4889 N.pl3   1  UNL1       -0.3041
     37 C          -6.2705   -9.7474   29.3153 C.3     1  UNL1        0.1123
     38 C          -5.5469   -8.7033   30.1692 C.3     1  UNL1        0.1152
     39 C          -6.3202  -12.2276   28.8912 C.ar    1  UNL1        0.0480
     40 C          -7.6401  -12.5585   29.2295 C.ar    1  UNL1        0.0160
     41 C          -8.2687  -13.6575   28.6369 C.ar    1  UNL1        0.0188
     42 C          -7.5945  -14.4385   27.6796 C.ar    1  UNL1        0.0642
     43 C          -6.2672  -14.1099   27.3544 C.ar    1  UNL1        0.0188
     44 C          -5.6372  -13.0189   27.9550 C.ar    1  UNL1        0.0160
     45 N          -8.2576  -15.5413   27.0260 N.ar    1  UNL1       -0.3036
     46 C          -8.5937  -15.6227   25.7206 C.ar    1  UNL1        0.0802
     47 C          -9.1878  -16.8402   25.4612 C.ar    1  UNL1        0.0205
     48 C          -9.2131  -17.5294   26.6559 C.ar    1  UNL1        0.0205
     49 C          -8.6365  -16.7048   27.5984 C.ar    1  UNL1        0.0802
@<TRIPOS>BOND
     1     1     2    2
     2     2    27    1
     3    27    28    2
     4    28    29    1
     5    28    31    1
     6    31    32    2
     7    31    33   am
     8    33    34    1
     9    34    35    1
    10    35    36    1
    11    36    39    1
    12    39    40   ar
    13    40    41   ar
    14    41    42   ar
    15    42    45    1
    16    45    46   ar
    17    46    47   ar
    18    47    48   ar
    19    48    49   ar
    20    42    43   ar
    21    43    44   ar
    22    36    37    1
    23    37    38    1
    24     2     3    1
    25     3     4    2
    26     4     5    1
    27     5    10    1
    28    10    11    1
    29    11    12   ar
    30    12    13   ar
    31    13    14    1
    32    13    15   ar
    33    15    16   ar
    34    16    17    1
    35    16    18   ar
    36     5     6    2
    37     6     7    1
    38     7    19    1
    39    19    20    1
    40    20    21   ar
    41    21    22   ar
    42    22    23   ar
    43    23    24   ar
    44    24    25   ar
    45    25    26    1
    46     7     8    1
    47     8     9    2
    48    38    33    1
    49     8     3    1
    50    44    39   ar
    51    18    11   ar
    52    25    20   ar
    53    49    45   ar
    54    29    30    1
@<TRIPOS>MOLECULE
*****
 49 54 0 0 0
SMALL
GASTEIGER

@<TRIPOS>ATOM
      1 O          -9.1064  -11.4753   34.3759 O.2     1  UNL1       -0.2861
      2 C          -8.8572  -10.9988   33.2354 C.2     1  UNL1        0.2080
      3 C          -9.9378  -10.9104   32.2285 C.2     1  UNL1        0.1445
      4 C         -11.0592  -11.7366   32.3464 C.2     1  UNL1        0.0149
      5 C         -12.1259  -11.6066   31.4533 C.2     1  UNL1        0.0516
      6 C         -12.0297  -10.6753   30.4127 C.2     1  UNL1        0.2813
      7 N         -10.9189   -9.8910   30.2705 N.am    1  UNL1       -0.1016
      8 C          -9.8812   -9.9850   31.1660 C.2     1  UNL1        0.4213
      9 O          -8.8582   -9.2576   31.0297 O.2     1  UNL1       -0.2139
     10 C         -13.3424  -12.4820   31.5815 C.3     1  UNL1        0.0590
     11 C         -13.0397  -13.6650   32.4593 C.ar    1  UNL1       -0.0131
     12 C         -13.0952  -14.9675   31.9357 C.ar    1  UNL1        0.0259
     13 C         -12.8510  -16.0695   32.7615 C.ar    1  UNL1        0.1421
     14 F         -12.9020  -17.3239   32.2497 F       1  UNL1       -0.2041
     15 C         -12.5591  -15.8790   34.1154 C.ar    1  UNL1        0.0592
     16 C         -12.5144  -14.5865   34.6464 C.ar    1  UNL1        0.1421
     17 F         -12.2391  -14.4037   35.9614 F       1  UNL1       -0.2041
     18 C         -12.7580  -13.4822   33.8236 C.ar    1  UNL1        0.0259
     19 C         -10.8677   -8.9416   29.1453 C.3     1  UNL1        0.3475
     20 C         -10.7399   -7.5247   29.6457 C.ar    1  UNL1        0.0823
     21 C          -9.6116   -6.7594   29.3037 C.ar    1  UNL1        0.0047
     22 C          -9.4990   -5.4352   29.7359 C.ar    1  UNL1        0.0000
     23 C         -10.5050   -4.8666   30.5202 C.ar    1  UNL1        0.0023
     24 C         -11.6189   -5.6254   30.8857 C.ar    1  UNL1        0.0295
     25 C         -11.7388   -6.9511   30.4560 C.ar    1  UNL1        0.1426
     26 F         -12.8336   -7.6657   30.8199 F       1  UNL1       -0.2043
     27 C          -7.5210  -10.4552   32.9173 C.2     1  UNL1        0.0837
     28 C          -7.1790   -9.1603   33.0105 C.2     1  UNL1        0.1910
     29 O          -8.1007   -8.2289   33.4910 O.2     1  UNL1       -0.5018
     30 H          -7.8759   -7.2442   33.5664 H       1  UNL1        0.2924
     31 C          -5.8185   -8.7098   32.6228 C.2     1  UNL1        0.2831
     32 O          -5.2247   -7.8436   33.3178 O.2     1  UNL1       -0.2666
     33 N          -5.1788   -9.2149   31.4422 N.am    1  UNL1       -0.2701
     34 C          -4.3810  -10.4464   31.5145 C.3     1  UNL1        0.1152
     35 C          -4.3526  -11.1726   30.1590 C.3     1  UNL1        0.1123
     36 N          -5.6462  -11.0268   29.4715 N.pl3   1  UNL1       -0.3041
     37 C          -6.2400   -9.6903   29.2930 C.3     1  UNL1        0.1123
     38 C          -5.5132   -8.6405   30.1371 C.3     1  UNL1        0.1152
     39 C          -6.2894  -12.1730   28.8837 C.ar    1  UNL1        0.0480
     40 C          -7.6023  -12.5116   29.2414 C.ar    1  UNL1        0.0160
     41 C          -8.2328  -13.6146   28.6585 C.ar    1  UNL1        0.0188
     42 C          -7.5681  -14.3921   27.6917 C.ar    1  UNL1        0.0642
     43 C          -6.2477  -14.0557   27.3470 C.ar    1  UNL1        0.0188
     44 C          -5.6156  -12.9607   27.9378 C.ar    1  UNL1        0.0160
     45 N          -8.2342  -15.4991   27.0483 N.ar    1  UNL1       -0.3036
     46 C          -8.5729  -15.5905   25.7443 C.ar    1  UNL1        0.0802
     47 C          -9.1693  -16.8093   25.4959 C.ar    1  UNL1        0.0205
     48 C          -9.1933  -17.4887   26.6962 C.ar    1  UNL1        0.0205
     49 C          -8.6136  -16.6573   27.6309 C.ar    1  UNL1        0.0802
@<TRIPOS>BOND
     1     1     2    2
     2     2    27    1
     3    27    28    2
     4    28    29    1
     5    28    31    1
     6    31    32    2
     7    31    33   am
     8    33    34    1
     9    34    35    1
    10    35    36    1
    11    36    39    1
    12    39    40   ar
    13    40    41   ar
    14    41    42   ar
    15    42    45    1
    16    45    46   ar
    17    46    47   ar
    18    47    48   ar
    19    48    49   ar
    20    42    43   ar
    21    43    44   ar
    22    36    37    1
    23    37    38    1
    24     2     3    1
    25     3     4    2
    26     4     5    1
    27     5    10    1
    28    10    11    1
    29    11    12   ar
    30    12    13   ar
    31    13    14    1
    32    13    15   ar
    33    15    16   ar
    34    16    17    1
    35    16    18   ar
    36     5     6    2
    37     6     7    1
    38     7    19    1
    39    19    20    1
    40    20    21   ar
    41    21    22   ar
    42    22    23   ar
    43    23    24   ar
    44    24    25   ar
    45    25    26    1
    46     7     8    1
    47     8     9    2
    48    38    33    1
    49     8     3    1
    50    44    39   ar
    51    18    11   ar
    52    25    20   ar
    53    49    45   ar
    54    29    30    1
@<TRIPOS>MOLECULE
*****
 49 54 0 0 0
SMALL
GASTEIGER

@<TRIPOS>ATOM
      1 O          -8.8655  -12.0709   34.7695 O.2     1  UNL1       -0.2861
      2 C          -8.8075  -11.4411   33.6786 C.2     1  UNL1        0.2080
      3 C         -10.0185  -11.3252   32.8365 C.2     1  UNL1        0.1445
      4 C          -9.9913  -10.5149   31.6977 C.2     1  UNL1        0.0149
      5 C         -11.0977  -10.4610   30.8461 C.2     1  UNL1        0.0516
      6 C         -12.2465  -11.1880   31.1795 C.2     1  UNL1        0.2813
      7 N         -12.2916  -11.9525   32.3121 N.am    1  UNL1       -0.1016
      8 C         -11.1956  -12.0419   33.1356 C.2     1  UNL1        0.4213
      9 O         -11.2432  -12.7499   34.1799 O.2     1  UNL1       -0.2139
     10 C         -11.0718   -9.6025   29.6111 C.3     1  UNL1        0.0590
     11 C         -11.0966   -8.1476   29.9906 C.ar    1  UNL1       -0.0131
     12 C         -10.1592   -7.2568   29.4414 C.ar    1  UNL1        0.0259
     13 C         -10.1583   -5.9114   29.8234 C.ar    1  UNL1        0.1421
     14 F          -9.2538   -5.0556   29.2870 F       1  UNL1       -0.2041
     15 C         -11.0861   -5.4492   30.7615 C.ar    1  UNL1        0.0592
     16 C         -12.0139   -6.3322   31.3217 C.ar    1  UNL1        0.1421
     17 F         -12.9079   -5.8843   32.2373 F       1  UNL1       -0.2041
     18 C         -12.0178   -7.6783   30.9420 C.ar    1  UNL1        0.0259
     19 C         -13.5343  -12.6812   32.6197 C.3     1  UNL1        0.3475
     20 C         -13.3114  -14.1713   32.5546 C.ar    1  UNL1        0.0823
     21 C         -14.1610  -15.0389   33.2625 C.ar    1  UNL1        0.0047
     22 C         -13.9823  -16.4227   33.1831 C.ar    1  UNL1        0.0000
     23 C         -12.9499  -16.9521   32.4057 C.ar    1  UNL1        0.0023
     24 C         -12.0853  -16.0983   31.7173 C.ar    1  UNL1        0.0295
     25 C         -12.2587  -14.7123   31.7913 C.ar    1  UNL1        0.1426
     26 F         -11.4087  -13.9042   31.1086 F       1  UNL1       -0.2043
     27 C          -7.5678  -10.7506   33.2680 C.2     1  UNL1        0.0837
     28 C          -7.3878   -9.4204   33.2932 C.2     1  UNL1        0.1910
     29 O          -8.3950   -8.5901   33.7872 O.2     1  UNL1       -0.5018
     30 H          -8.2930   -7.5827   33.8128 H       1  UNL1        0.2924
     31 C          -6.1157   -8.8223   32.8154 C.2     1  UNL1        0.2831
     32 O          -5.5469   -7.9320   33.5007 O.2     1  UNL1       -0.2666
     33 N          -5.5388   -9.2117   31.5609 N.am    1  UNL1       -0.2701
     34 C          -4.6252  -10.3607   31.5032 C.3     1  UNL1        0.1152
     35 C          -4.6490  -11.0226   30.1151 C.3     1  UNL1        0.1123
     36 N          -6.0065  -10.9758   29.5474 N.pl3   1  UNL1       -0.3041
     37 C          -6.7373   -9.6979   29.4876 C.3     1  UNL1        0.1123
     38 C          -6.0406   -8.6183   30.3195 C.3     1  UNL1        0.1152
     39 C          -6.5885  -12.1539   28.9587 C.ar    1  UNL1        0.0480
     40 C          -7.9202  -12.4993   29.2298 C.ar    1  UNL1        0.0160
     41 C          -8.4905  -13.6338   28.6452 C.ar    1  UNL1        0.0188
     42 C          -7.7443  -14.4372   27.7627 C.ar    1  UNL1        0.0642
     43 C          -6.4061  -14.0934   27.5052 C.ar    1  UNL1        0.0188
     44 C          -5.8348  -12.9666   28.0982 C.ar    1  UNL1        0.0160
     45 N          -8.3454  -15.5786   27.1153 N.ar    1  UNL1       -0.3036
     46 C          -8.6344  -15.7030   25.8021 C.ar    1  UNL1        0.0802
     47 C          -9.1755  -16.9473   25.5538 C.ar    1  UNL1        0.0205
     48 C          -9.2161  -17.6085   26.7637 C.ar    1  UNL1        0.0205
     49 C          -8.7013  -16.7414   27.7038 C.ar    1  UNL1        0.0802
@<TRIPOS>BOND
     1     1     2    2
     2     2    27    1
     3    27    28    2
     4    28    29    1
     5    28    31    1
     6    31    32    2
     7    31    33   am
     8    33    34    1
     9    34    35    1
    10    35    36    1
    11    36    39    1
    12    39    40   ar
    13    40    41   ar
    14    41    42   ar
    15    42    45    1
    16    45    46   ar
    17    46    47   ar
    18    47    48   ar
    19    48    49   ar
    20    42    43   ar
    21    43    44   ar
    22    36    37    1
    23    37    38    1
    24     2     3    1
    25     3     4    2
    26     4     5    1
    27     5    10    1
    28    10    11    1
    29    11    12   ar
    30    12    13   ar
    31    13    14    1
    32    13    15   ar
    33    15    16   ar
    34    16    17    1
    35    16    18   ar
    36     5     6    2
    37     6     7    1
    38     7    19    1
    39    19    20    1
    40    20    21   ar
    41    21    22   ar
    42    22    23   ar
    43    23    24   ar
    44    24    25   ar
    45    25    26    1
    46     7     8    1
    47     8     9    2
    48    38    33    1
    49     8     3    1
    50    44    39   ar
    51    18    11   ar
    52    25    20   ar
    53    49    45   ar
    54    29    30    1
@<TRIPOS>MOLECULE
*****
 49 54 0 0 0
SMALL
GASTEIGER

@<TRIPOS>ATOM
      1 O          -6.5161  -15.5382   28.1664 O.2     1  UNL1       -0.2861
      2 C          -7.4098  -14.6918   27.8928 C.2     1  UNL1        0.2080
      3 C          -7.4777  -13.4274   28.6583 C.2     1  UNL1        0.1445
      4 C          -6.3133  -12.6807   28.8606 C.2     1  UNL1        0.0149
      5 C          -6.3744  -11.4437   29.5073 C.2     1  UNL1        0.0516
      6 C          -7.6073  -10.9920   29.9927 C.2     1  UNL1        0.2813
      7 N          -8.7428  -11.7361   29.8307 N.am    1  UNL1       -0.1016
      8 C          -8.6993  -12.9358   29.1627 C.2     1  UNL1        0.4213
      9 O          -9.7515  -13.6182   29.0158 O.2     1  UNL1       -0.2139
     10 C          -5.1285  -10.6272   29.7168 C.3     1  UNL1        0.0590
     11 C          -5.4683   -9.3261   30.3899 C.ar    1  UNL1       -0.0131
     12 C          -5.9526   -8.2443   29.6356 C.ar    1  UNL1        0.0259
     13 C          -6.2324   -7.0225   30.2560 C.ar    1  UNL1        0.1421
     14 F          -6.7034   -5.9832   29.5235 F       1  UNL1       -0.2041
     15 C          -6.0224   -6.8702   31.6297 C.ar    1  UNL1        0.0592
     16 C          -5.5289   -7.9383   32.3846 C.ar    1  UNL1        0.1421
     17 F          -5.3181   -7.7867   33.7154 F       1  UNL1       -0.2041
     18 C          -5.2480   -9.1616   31.7678 C.ar    1  UNL1        0.0259
     19 C         -10.0078  -11.2170   30.3785 C.3     1  UNL1        0.3475
     20 C         -10.0038   -9.7091   30.3988 C.ar    1  UNL1        0.0823
     21 C          -9.6228   -9.0246   31.5659 C.ar    1  UNL1        0.0047
     22 C          -9.5851   -7.6278   31.5848 C.ar    1  UNL1        0.0000
     23 C          -9.9361   -6.9022   30.4443 C.ar    1  UNL1        0.0023
     24 C         -10.3391   -7.5717   29.2869 C.ar    1  UNL1        0.0295
     25 C         -10.3783   -8.9696   29.2602 C.ar    1  UNL1        0.1426
     26 F         -10.7679   -9.5967   28.1216 F       1  UNL1       -0.2043
     27 C          -8.3406  -14.9107   26.7668 C.2     1  UNL1        0.0837
     28 C          -7.9927  -15.4167   25.5730 C.2     1  UNL1        0.1910
     29 O          -6.6797  -15.8335   25.3484 O.2     1  UNL1       -0.5018
     30 H          -6.3840  -16.2125   24.4570 H       1  UNL1        0.2924
     31 C          -8.9990  -15.5547   24.4901 C.2     1  UNL1        0.2831
     32 O         -10.1542  -15.0781   24.6453 O.2     1  UNL1       -0.2666
     33 N          -8.6924  -16.2599   23.2789 N.am    1  UNL1       -0.2701
     34 C          -8.0784  -15.5435   22.1529 C.3     1  UNL1        0.1152
     35 C          -7.2422  -16.4925   21.2778 C.3     1  UNL1        0.1123
     36 N          -6.5808  -17.5100   22.1113 N.pl3   1  UNL1       -0.3041
     37 C          -7.3687  -18.3034   23.0708 C.3     1  UNL1        0.1123
     38 C          -8.7728  -17.7221   23.2538 C.3     1  UNL1        0.1152
     39 C          -5.1838  -17.8050   21.9254 C.ar    1  UNL1        0.0480
     40 C          -4.7260  -19.1297   21.9681 C.ar    1  UNL1        0.0160
     41 C          -3.3724  -19.4177   21.7710 C.ar    1  UNL1        0.0188
     42 C          -2.4509  -18.3865   21.5095 C.ar    1  UNL1        0.0642
     43 C          -2.9135  -17.0597   21.4809 C.ar    1  UNL1        0.0188
     44 C          -4.2634  -16.7726   21.6888 C.ar    1  UNL1        0.0160
     45 N          -1.0623  -18.6843   21.2523 N.ar    1  UNL1       -0.3036
     46 C          -0.3773  -19.7691   21.6736 C.ar    1  UNL1        0.0802
     47 C           0.9197  -19.7190   21.2068 C.ar    1  UNL1        0.0205
     48 C           1.0292  -18.5581   20.4698 C.ar    1  UNL1        0.0205
     49 C          -0.2040  -17.9434   20.5179 C.ar    1  UNL1        0.0802
@<TRIPOS>BOND
     1     1     2    2
     2     2    27    1
     3    27    28    2
     4    28    29    1
     5    28    31    1
     6    31    32    2
     7    31    33   am
     8    33    34    1
     9    34    35    1
    10    35    36    1
    11    36    39    1
    12    39    40   ar
    13    40    41   ar
    14    41    42   ar
    15    42    45    1
    16    45    46   ar
    17    46    47   ar
    18    47    48   ar
    19    48    49   ar
    20    42    43   ar
    21    43    44   ar
    22    36    37    1
    23    37    38    1
    24     2     3    1
    25     3     4    2
    26     4     5    1
    27     5    10    1
    28    10    11    1
    29    11    12   ar
    30    12    13   ar
    31    13    14    1
    32    13    15   ar
    33    15    16   ar
    34    16    17    1
    35    16    18   ar
    36     5     6    2
    37     6     7    1
    38     7    19    1
    39    19    20    1
    40    20    21   ar
    41    21    22   ar
    42    22    23   ar
    43    23    24   ar
    44    24    25   ar
    45    25    26    1
    46     7     8    1
    47     8     9    2
    48    38    33    1
    49     8     3    1
    50    44    39   ar
    51    18    11   ar
    52    25    20   ar
    53    49    45   ar
    54    29    30    1
