@<TRIPOS>MOLECULE
*****
 35 39 0 0 0
SMALL
GASTEIGER

@<TRIPOS>ATOM
      1 C         -22.6700   -8.2483   -9.0616 C.2     1  UNL1        0.2491
      2 O         -23.7621   -8.4697   -8.4699 O.2     1  UNL1       -0.2699
      3 N         -22.6883   -7.6538  -10.3727 N.am    1  UNL1       -0.2760
      4 C         -21.8100   -6.5224  -10.6915 C.3     1  UNL1        0.0954
      5 C         -21.1818   -6.6739  -12.0914 C.3     1  UNL1        0.0399
      6 C         -22.0212   -7.5388  -13.0885 C.3     1  UNL1        0.0645
      7 C         -23.5244   -7.4656  -12.7069 C.3     1  UNL1        0.0399
      8 C         -23.8001   -7.9666  -11.2788 C.3     1  UNL1        0.0954
      9 C         -21.5122   -9.0282  -13.0533 C.3     1  UNL1        0.0481
     10 C         -22.0308   -9.7993  -14.2296 C.ar    1  UNL1        0.0259
     11 C         -22.2644   -9.2248  -15.4358 C.ar    1  UNL1        0.1519
     12 N         -22.5535  -10.1566  -16.3562 N.ar    1  UNL1       -0.1647
     13 N         -22.4990  -11.3427  -15.7532 N.ar    1  UNL1       -0.2494
     14 C         -22.1579  -11.1555  -14.4426 C.ar    1  UNL1        0.1047
     15 I         -21.7971  -12.6041  -12.9309 I       1  UNL1       -0.0219
     16 C         -22.1495   -7.7861  -15.6199 C.2     1  UNL1        0.2650
     17 O         -22.2729   -7.2595  -16.7572 O.2     1  UNL1       -0.2684
     18 N         -21.8769   -6.9843  -14.4586 N.am    1  UNL1       -0.3023
     19 H         -21.8039   -5.9505  -14.5946 H       1  UNL1        0.1497
     20 C         -18.8545   -9.2420   -4.3582 C.ar    1  UNL1        0.2249
     21 C         -17.7460   -9.6845   -5.0867 C.ar    1  UNL1        0.0577
     22 C         -17.8197   -9.7599   -6.4792 C.ar    1  UNL1        0.0063
     23 C         -19.0012   -9.3918   -7.1348 C.ar    1  UNL1        0.0179
     24 C         -19.1114   -9.4582   -8.5293 C.ar    1  UNL1        0.0016
     25 C         -20.3035   -9.0843   -9.1561 C.ar    1  UNL1        0.0046
     26 C         -21.3994   -8.6301   -8.3999 C.ar    1  UNL1        0.0551
     27 C         -21.2904   -8.5775   -6.9987 C.ar    1  UNL1        0.0237
     28 C         -20.0994   -8.9502   -6.3664 C.ar    1  UNL1        0.0845
     29 N         -19.9972   -8.8879   -5.0115 N.ar    1  UNL1       -0.2117
     30 C         -18.0890   -8.1224   -2.2872 C.3     1  UNL1        0.2542
     31 O         -18.7748   -9.1688   -2.9645 O.3     1  UNL1       -0.4561
     32 C         -22.7518  -12.6160  -16.4719 C.3     1  UNL1        0.0871
     33 C         -24.1259  -13.1913  -16.0747 C.3     1  UNL1        0.0244
     34 C         -22.7683  -12.3724  -18.0005 C.3     1  UNL1        0.0244
     35 C         -21.6323  -13.6306  -16.1684 C.3     1  UNL1        0.0244
@<TRIPOS>BOND
     1    30    31    1
     2    31    20    1
     3    20    21   ar
     4    21    22   ar
     5    22    23   ar
     6    23    24   ar
     7    24    25   ar
     8    25    26   ar
     9    26     1    1
    10     1     2    2
    11     1     3   am
    12     3     4    1
    13     4     5    1
    14     5     6    1
    15     6     7    1
    16     7     8    1
    17     6     9    1
    18     9    10    1
    19    10    11   ar
    20    11    12   ar
    21    12    13   ar
    22    13    32    1
    23    32    33    1
    24    32    34    1
    25    32    35    1
    26    13    14   ar
    27    14    15    1
    28    11    16    1
    29    16    17    2
    30    16    18   am
    31    26    27   ar
    32    27    28   ar
    33    28    29   ar
    34    29    20   ar
    35    28    23   ar
    36     8     3    1
    37    14    10   ar
    38    18     6    1
    39    18    19    1
@<TRIPOS>MOLECULE
*****
 35 39 0 0 0
SMALL
GASTEIGER

@<TRIPOS>ATOM
      1 C         -22.2753   -8.6227  -13.9673 C.2     1  UNL1        0.2491
      2 O         -21.6073   -8.2833  -14.9824 O.2     1  UNL1       -0.2699
      3 N         -21.9768   -8.0189  -12.6948 N.am    1  UNL1       -0.2760
      4 C         -23.0528   -7.4904  -11.8487 C.3     1  UNL1        0.0954
      5 C         -22.8329   -7.8520  -10.3661 C.3     1  UNL1        0.0399
      6 C         -21.3375   -8.0854   -9.9707 C.3     1  UNL1        0.0645
      7 C         -20.4137   -7.2674  -10.9131 C.3     1  UNL1        0.0399
      8 C         -20.5892   -7.6466  -12.3935 C.3     1  UNL1        0.0954
      9 C         -21.0013   -9.6209  -10.0606 C.3     1  UNL1        0.0481
     10 C         -19.7139   -9.9292   -9.3570 C.ar    1  UNL1        0.0259
     11 C         -19.2902   -9.2375   -8.2700 C.ar    1  UNL1        0.1519
     12 N         -18.2087   -9.8191   -7.7306 N.ar    1  UNL1       -0.1647
     13 N         -17.9309  -10.8981   -8.4599 N.ar    1  UNL1       -0.2494
     14 C         -18.8566  -11.0039   -9.4606 C.ar    1  UNL1        0.1047
     15 I         -19.0798  -12.5265  -10.9253 I       1  UNL1       -0.0219
     16 C         -20.0041   -8.0596   -7.8012 C.2     1  UNL1        0.2650
     17 O         -19.6698   -7.4707   -6.7394 O.2     1  UNL1       -0.2684
     18 N         -21.1153   -7.5963   -8.5863 N.am    1  UNL1       -0.3023
     19 H         -21.6195   -6.7446   -8.2500 H       1  UNL1        0.1497
     20 C         -24.5844  -14.1927  -15.1123 C.ar    1  UNL1        0.2249
     21 C         -25.9298  -13.9105  -14.8565 C.ar    1  UNL1        0.0577
     22 C         -26.3042  -12.6221  -14.4696 C.ar    1  UNL1        0.0063
     23 C         -25.3309  -11.6232  -14.3415 C.ar    1  UNL1        0.0179
     24 C         -25.6702  -10.3214  -13.9524 C.ar    1  UNL1        0.0016
     25 C         -24.6771   -9.3451  -13.8329 C.ar    1  UNL1        0.0046
     26 C         -23.3323   -9.6525  -14.1090 C.ar    1  UNL1        0.0551
     27 C         -22.9928  -10.9642  -14.4864 C.ar    1  UNL1        0.0237
     28 C         -23.9831  -11.9450  -14.6079 C.ar    1  UNL1        0.0845
     29 N         -23.6494  -13.2093  -14.9825 N.ar    1  UNL1       -0.2117
     30 C         -22.8769  -15.8364  -15.8272 C.3     1  UNL1        0.2542
     31 O         -24.2157  -15.4844  -15.4990 O.3     1  UNL1       -0.4561
     32 C         -16.7973  -11.8030   -8.1473 C.3     1  UNL1        0.0871
     33 C         -16.2397  -11.4973   -6.7429 C.3     1  UNL1        0.0244
     34 C         -17.2724  -13.2763   -8.1539 C.3     1  UNL1        0.0244
     35 C         -15.6919  -11.6597   -9.2114 C.3     1  UNL1        0.0244
@<TRIPOS>BOND
     1    30    31    1
     2    31    20    1
     3    20    21   ar
     4    21    22   ar
     5    22    23   ar
     6    23    24   ar
     7    24    25   ar
     8    25    26   ar
     9    26     1    1
    10     1     2    2
    11     1     3   am
    12     3     4    1
    13     4     5    1
    14     5     6    1
    15     6     7    1
    16     7     8    1
    17     6     9    1
    18     9    10    1
    19    10    11   ar
    20    11    12   ar
    21    12    13   ar
    22    13    32    1
    23    32    33    1
    24    32    34    1
    25    32    35    1
    26    13    14   ar
    27    14    15    1
    28    11    16    1
    29    16    17    2
    30    16    18   am
    31    26    27   ar
    32    27    28   ar
    33    28    29   ar
    34    29    20   ar
    35    28    23   ar
    36     8     3    1
    37    14    10   ar
    38    18     6    1
    39    18    19    1
@<TRIPOS>MOLECULE
*****
 35 39 0 0 0
SMALL
GASTEIGER

@<TRIPOS>ATOM
      1 C         -25.8798   -4.2435  -15.9309 C.2     1  UNL1        0.2491
      2 O         -25.4450   -3.0615  -15.8551 O.2     1  UNL1       -0.2699
      3 N         -26.5205   -4.8321  -14.7838 N.am    1  UNL1       -0.2760
      4 C         -27.8008   -5.5352  -14.9230 C.3     1  UNL1        0.0954
      5 C         -27.8244   -6.8327  -14.0904 C.3     1  UNL1        0.0399
      6 C         -26.8724   -6.8240  -12.8493 C.3     1  UNL1        0.0645
      7 C         -26.6652   -5.3654  -12.3595 C.3     1  UNL1        0.0399
      8 C         -26.0600   -4.4552  -13.4419 C.3     1  UNL1        0.0954
      9 C         -25.4944   -7.4798  -13.2364 C.3     1  UNL1        0.0481
     10 C         -24.6985   -7.8163  -12.0113 C.ar    1  UNL1        0.0259
     11 C         -25.2774   -8.1741  -10.8382 C.ar    1  UNL1        0.1519
     12 N         -24.3520   -8.5898   -9.9609 N.ar    1  UNL1       -0.1647
     13 N         -23.1675   -8.5132  -10.5647 N.ar    1  UNL1       -0.2494
     14 C         -23.3520   -8.0577  -11.8405 C.ar    1  UNL1        0.1047
     15 I         -21.9218   -7.7899  -13.3886 I       1  UNL1       -0.0219
     16 C         -26.7210   -8.1221  -10.6636 C.2     1  UNL1        0.2650
     17 O         -27.2687   -8.5420   -9.6102 O.2     1  UNL1       -0.2684
     18 N         -27.5048   -7.5854  -11.7421 N.am    1  UNL1       -0.3023
     19 H         -28.5406   -7.5421  -11.6084 H       1  UNL1        0.1497
     20 C         -23.9975   -8.8821  -19.4816 C.ar    1  UNL1        0.2249
     21 C         -24.5079   -8.4243  -20.7002 C.ar    1  UNL1        0.0577
     22 C         -25.2004   -7.2125  -20.7478 C.ar    1  UNL1        0.0063
     23 C         -25.3777   -6.4656  -19.5765 C.ar    1  UNL1        0.0179
     24 C         -26.0696   -5.2481  -19.5868 C.ar    1  UNL1        0.0016
     25 C         -26.2310   -4.5244  -18.4020 C.ar    1  UNL1        0.0046
     26 C         -25.6958   -5.0016  -17.1915 C.ar    1  UNL1        0.0551
     27 C         -25.0132   -6.2313  -17.1818 C.ar    1  UNL1        0.0237
     28 C         -24.8486   -6.9594  -18.3650 C.ar    1  UNL1        0.0845
     29 N         -24.1791   -8.1434  -18.3506 N.ar    1  UNL1       -0.2117
     30 C         -23.3073  -10.9439  -18.2979 C.3     1  UNL1        0.2542
     31 O         -23.3055  -10.0960  -19.4403 O.3     1  UNL1       -0.4561
     32 C         -21.9033   -8.9087   -9.8960 C.3     1  UNL1        0.0871
     33 C         -20.8534   -7.7878  -10.0299 C.3     1  UNL1        0.0244
     34 C         -22.1490   -9.1446   -8.3859 C.3     1  UNL1        0.0244
     35 C         -21.3709  -10.2237  -10.4979 C.3     1  UNL1        0.0244
@<TRIPOS>BOND
     1    30    31    1
     2    31    20    1
     3    20    21   ar
     4    21    22   ar
     5    22    23   ar
     6    23    24   ar
     7    24    25   ar
     8    25    26   ar
     9    26     1    1
    10     1     2    2
    11     1     3   am
    12     3     4    1
    13     4     5    1
    14     5     6    1
    15     6     7    1
    16     7     8    1
    17     6     9    1
    18     9    10    1
    19    10    11   ar
    20    11    12   ar
    21    12    13   ar
    22    13    32    1
    23    32    33    1
    24    32    34    1
    25    32    35    1
    26    13    14   ar
    27    14    15    1
    28    11    16    1
    29    16    17    2
    30    16    18   am
    31    26    27   ar
    32    27    28   ar
    33    28    29   ar
    34    29    20   ar
    35    28    23   ar
    36     8     3    1
    37    14    10   ar
    38    18     6    1
    39    18    19    1
@<TRIPOS>MOLECULE
*****
 35 39 0 0 0
SMALL
GASTEIGER

@<TRIPOS>ATOM
      1 C         -22.3058   -8.2423   -9.1988 C.2     1  UNL1        0.2491
      2 O         -23.4112   -8.3325   -8.5972 O.2     1  UNL1       -0.2699
      3 N         -22.2651   -7.6497  -10.5103 N.am    1  UNL1       -0.2760
      4 C         -21.2616   -6.6306  -10.8379 C.3     1  UNL1        0.0954
      5 C         -20.6683   -6.8555  -12.2432 C.3     1  UNL1        0.0399
      6 C         -21.6134   -7.6144  -13.2320 C.3     1  UNL1        0.0645
      7 C         -23.0937   -7.3632  -12.8371 C.3     1  UNL1        0.0399
      8 C         -23.4142   -7.8281  -11.4061 C.3     1  UNL1        0.0954
      9 C         -21.2846   -9.1537  -13.1999 C.3     1  UNL1        0.0481
     10 C         -21.9016   -9.8577  -14.3709 C.ar    1  UNL1        0.0259
     11 C         -22.0761   -9.2593  -15.5754 C.ar    1  UNL1        0.1519
     12 N         -22.4820  -10.1500  -16.4923 N.ar    1  UNL1       -0.1647
     13 N         -22.5634  -11.3343  -15.8888 N.ar    1  UNL1       -0.2494
     14 C         -22.1908  -11.1891  -14.5814 C.ar    1  UNL1        0.1047
     15 I         -21.9911  -12.6705  -13.0716 I       1  UNL1       -0.0219
     16 C         -21.7927   -7.8444  -15.7619 C.2     1  UNL1        0.2650
     17 O         -21.8629   -7.3068  -16.8985 O.2     1  UNL1       -0.2684
     18 N         -21.4165   -7.0808  -14.6038 N.am    1  UNL1       -0.3023
     19 H         -21.2224   -6.0630  -14.7414 H       1  UNL1        0.1497
     20 C         -17.1555  -11.5500   -8.7503 C.ar    1  UNL1        0.2249
     21 C         -16.7768  -11.1611   -7.4617 C.ar    1  UNL1        0.0577
     22 C         -17.5711  -10.2593   -6.7505 C.ar    1  UNL1        0.0063
     23 C         -18.7399   -9.7522   -7.3321 C.ar    1  UNL1        0.0179
     24 C         -19.5582   -8.8437   -6.6493 C.ar    1  UNL1        0.0016
     25 C         -20.7189   -8.3545   -7.2552 C.ar    1  UNL1        0.0046
     26 C         -21.0838   -8.7724   -8.5481 C.ar    1  UNL1        0.0551
     27 C         -20.2528   -9.6743   -9.2367 C.ar    1  UNL1        0.0237
     28 C         -19.0902  -10.1673   -8.6345 C.ar    1  UNL1        0.0845
     29 N         -18.2958  -11.0468   -9.3022 N.ar    1  UNL1       -0.2117
     30 C         -14.9349  -12.3896   -9.4521 C.3     1  UNL1        0.2542
     31 O         -16.3562  -12.4529   -9.4573 O.3     1  UNL1       -0.4561
     32 C         -22.9721  -12.5685  -16.6039 C.3     1  UNL1        0.0871
     33 C         -24.3555  -13.0390  -16.1124 C.3     1  UNL1        0.0244
     34 C         -23.0816  -12.2939  -18.1234 C.3     1  UNL1        0.0244
     35 C         -21.9200  -13.6759  -16.3998 C.3     1  UNL1        0.0244
@<TRIPOS>BOND
     1    30    31    1
     2    31    20    1
     3    20    21   ar
     4    21    22   ar
     5    22    23   ar
     6    23    24   ar
     7    24    25   ar
     8    25    26   ar
     9    26     1    1
    10     1     2    2
    11     1     3   am
    12     3     4    1
    13     4     5    1
    14     5     6    1
    15     6     7    1
    16     7     8    1
    17     6     9    1
    18     9    10    1
    19    10    11   ar
    20    11    12   ar
    21    12    13   ar
    22    13    32    1
    23    32    33    1
    24    32    34    1
    25    32    35    1
    26    13    14   ar
    27    14    15    1
    28    11    16    1
    29    16    17    2
    30    16    18   am
    31    26    27   ar
    32    27    28   ar
    33    28    29   ar
    34    29    20   ar
    35    28    23   ar
    36     8     3    1
    37    14    10   ar
    38    18     6    1
    39    18    19    1
@<TRIPOS>MOLECULE
*****
 35 39 0 0 0
SMALL
GASTEIGER

@<TRIPOS>ATOM
      1 C         -26.9281   -8.1570  -12.5934 C.2     1  UNL1        0.2491
      2 O         -27.8872   -8.2135  -11.7756 O.2     1  UNL1       -0.2699
      3 N         -25.9937   -9.2505  -12.6582 N.am    1  UNL1       -0.2760
      4 C         -25.6047   -9.8241  -13.9514 C.3     1  UNL1        0.0954
      5 C         -24.0913  -10.1132  -14.0072 C.3     1  UNL1        0.0399
      6 C         -23.4283  -10.3687  -12.6136 C.3     1  UNL1        0.0645
      7 C         -24.4849  -10.9373  -11.6283 C.3     1  UNL1        0.0399
      8 C         -25.6823   -9.9920  -11.4302 C.3     1  UNL1        0.0954
      9 C         -22.8234   -9.0238  -12.0623 C.3     1  UNL1        0.0481
     10 C         -21.8817   -9.2864  -10.9257 C.ar    1  UNL1        0.0259
     11 C         -21.1328  -10.4140  -10.8416 C.ar    1  UNL1        0.1519
     12 N         -20.2540  -10.3247   -9.8323 N.ar    1  UNL1       -0.1647
     13 N         -20.4217   -9.1330   -9.2622 N.ar    1  UNL1       -0.2494
     14 C         -21.4072   -8.4600   -9.9294 C.ar    1  UNL1        0.1047
     15 I         -22.1218   -6.4823   -9.6268 I       1  UNL1       -0.0219
     16 C         -21.3018  -11.5034  -11.7913 C.2     1  UNL1        0.2650
     17 O         -20.5455  -12.5101  -11.7743 O.2     1  UNL1       -0.2684
     18 N         -22.3564  -11.3859  -12.7608 N.am    1  UNL1       -0.3023
     19 H         -22.4793  -12.1750  -13.4352 H       1  UNL1        0.1497
     20 C         -28.7505   -3.6593  -16.3507 C.ar    1  UNL1        0.2249
     21 C         -27.5216   -3.0086  -16.4984 C.ar    1  UNL1        0.0577
     22 C         -26.3941   -3.5036  -15.8400 C.ar    1  UNL1        0.0063
     23 C         -26.5020   -4.6469  -15.0383 C.ar    1  UNL1        0.0179
     24 C         -25.3928   -5.1688  -14.3611 C.ar    1  UNL1        0.0016
     25 C         -25.5308   -6.3114  -13.5679 C.ar    1  UNL1        0.0046
     26 C         -26.7763   -6.9544  -13.4470 C.ar    1  UNL1        0.0551
     27 C         -27.8912   -6.4201  -14.1174 C.ar    1  UNL1        0.0237
     28 C         -27.7584   -5.2769  -14.9129 C.ar    1  UNL1        0.0845
     29 N         -28.8386   -4.7707  -15.5664 N.ar    1  UNL1       -0.2117
     30 C         -29.7938   -2.4610  -18.2491 C.3     1  UNL1        0.2542
     31 O         -29.8757   -3.1589  -17.0121 O.3     1  UNL1       -0.4561
     32 C         -19.6050   -8.6768   -8.1104 C.3     1  UNL1        0.0871
     33 C         -19.0353   -7.2702   -8.3816 C.3     1  UNL1        0.0244
     34 C         -20.4795   -8.5920   -6.8359 C.3     1  UNL1        0.0244
     35 C         -18.4663   -9.6779   -7.8348 C.3     1  UNL1        0.0244
@<TRIPOS>BOND
     1    30    31    1
     2    31    20    1
     3    20    21   ar
     4    21    22   ar
     5    22    23   ar
     6    23    24   ar
     7    24    25   ar
     8    25    26   ar
     9    26     1    1
    10     1     2    2
    11     1     3   am
    12     3     4    1
    13     4     5    1
    14     5     6    1
    15     6     7    1
    16     7     8    1
    17     6     9    1
    18     9    10    1
    19    10    11   ar
    20    11    12   ar
    21    12    13   ar
    22    13    32    1
    23    32    33    1
    24    32    34    1
    25    32    35    1
    26    13    14   ar
    27    14    15    1
    28    11    16    1
    29    16    17    2
    30    16    18   am
    31    26    27   ar
    32    27    28   ar
    33    28    29   ar
    34    29    20   ar
    35    28    23   ar
    36     8     3    1
    37    14    10   ar
    38    18     6    1
    39    18    19    1
@<TRIPOS>MOLECULE
*****
 35 39 0 0 0
SMALL
GASTEIGER

@<TRIPOS>ATOM
      1 C         -22.0363   -9.3588  -14.8424 C.2     1  UNL1        0.2491
      2 O         -21.2857   -9.1356  -15.8316 O.2     1  UNL1       -0.2699
      3 N         -21.8472   -8.6035  -13.6313 N.am    1  UNL1       -0.2760
      4 C         -22.9916   -7.9903  -12.9477 C.3     1  UNL1        0.0954
      5 C         -22.8968   -8.1692  -11.4193 C.3     1  UNL1        0.0399
      6 C         -21.4397   -8.3359  -10.8752 C.3     1  UNL1        0.0645
      7 C         -20.4411   -7.6258  -11.8286 C.3     1  UNL1        0.0399
      8 C         -20.4905   -8.1816  -13.2622 C.3     1  UNL1        0.0954
      9 C         -21.0945   -9.8670  -10.7513 C.3     1  UNL1        0.0481
     10 C         -19.8704  -10.0737   -9.9107 C.ar    1  UNL1        0.0259
     11 C         -19.5411   -9.2519   -8.8833 C.ar    1  UNL1        0.1519
     12 N         -18.5079   -9.7519   -8.1894 N.ar    1  UNL1       -0.1647
     13 N         -18.1678  -10.9072   -8.7580 N.ar    1  UNL1       -0.2494
     14 C         -19.0056  -11.1429   -9.8124 C.ar    1  UNL1        0.1047
     15 I         -19.1020  -12.8324  -11.0968 I       1  UNL1       -0.0219
     16 C         -20.2940   -8.0348   -8.6208 C.2     1  UNL1        0.2650
     17 O         -20.0514   -7.3192   -7.6134 O.2     1  UNL1       -0.2684
     18 N         -21.3358   -7.6820   -9.5459 N.am    1  UNL1       -0.3023
     19 H         -21.8680   -6.8022   -9.3579 H       1  UNL1        0.1497
     20 C         -25.7363  -13.8292  -12.8439 C.ar    1  UNL1        0.2249
     21 C         -26.3964  -14.0985  -14.0468 C.ar    1  UNL1        0.0577
     22 C         -26.0665  -13.3731  -15.1935 C.ar    1  UNL1        0.0063
     23 C         -25.0779  -12.3831  -15.1306 C.ar    1  UNL1        0.0179
     24 C         -24.7241  -11.6343  -16.2599 C.ar    1  UNL1        0.0016
     25 C         -23.7336  -10.6525  -16.1668 C.ar    1  UNL1        0.0046
     26 C         -23.0758  -10.4107  -14.9469 C.ar    1  UNL1        0.0551
     27 C         -23.4428  -11.1549  -13.8113 C.ar    1  UNL1        0.0237
     28 C         -24.4333  -12.1390  -13.8992 C.ar    1  UNL1        0.0845
     29 N         -24.7768  -12.8620  -12.7994 N.ar    1  UNL1       -0.2117
     30 C         -27.4039  -14.6548  -11.2112 C.3     1  UNL1        0.2542
     31 O         -26.0711  -14.5585  -11.6993 O.3     1  UNL1       -0.4561
     32 C         -17.0630  -11.7547   -8.2452 C.3     1  UNL1        0.0871
     33 C         -16.6775  -11.3248   -6.8158 C.3     1  UNL1        0.0244
     34 C         -17.5092  -13.2358   -8.1864 C.3     1  UNL1        0.0244
     35 C         -15.8441  -11.6667   -9.1840 C.3     1  UNL1        0.0244
@<TRIPOS>BOND
     1    30    31    1
     2    31    20    1
     3    20    21   ar
     4    21    22   ar
     5    22    23   ar
     6    23    24   ar
     7    24    25   ar
     8    25    26   ar
     9    26     1    1
    10     1     2    2
    11     1     3   am
    12     3     4    1
    13     4     5    1
    14     5     6    1
    15     6     7    1
    16     7     8    1
    17     6     9    1
    18     9    10    1
    19    10    11   ar
    20    11    12   ar
    21    12    13   ar
    22    13    32    1
    23    32    33    1
    24    32    34    1
    25    32    35    1
    26    13    14   ar
    27    14    15    1
    28    11    16    1
    29    16    17    2
    30    16    18   am
    31    26    27   ar
    32    27    28   ar
    33    28    29   ar
    34    29    20   ar
    35    28    23   ar
    36     8     3    1
    37    14    10   ar
    38    18     6    1
    39    18    19    1
@<TRIPOS>MOLECULE
*****
 35 39 0 0 0
SMALL
GASTEIGER

@<TRIPOS>ATOM
      1 C         -19.5672   -8.9615  -11.1891 C.2     1  UNL1        0.2491
      2 O         -18.6754   -8.3471  -11.8364 O.2     1  UNL1       -0.2699
      3 N         -20.5373   -9.7500  -11.9033 N.am    1  UNL1       -0.2760
      4 C         -20.8507  -11.1172  -11.4726 C.3     1  UNL1        0.0954
      5 C         -22.3661  -11.3944  -11.5359 C.3     1  UNL1        0.0399
      6 C         -23.1417  -10.5223  -12.5774 C.3     1  UNL1        0.0645
      7 C         -22.1859  -10.1102  -13.7294 C.3     1  UNL1        0.0399
      8 C         -20.9698   -9.3085  -13.2347 C.3     1  UNL1        0.0954
      9 C         -23.7318   -9.2486  -11.8643 C.3     1  UNL1        0.0481
     10 C         -24.7661   -8.5851  -12.7230 C.ar    1  UNL1        0.0259
     11 C         -25.5639   -9.2769  -13.5741 C.ar    1  UNL1        0.1519
     12 N         -26.5118   -8.4794  -14.0883 N.ar    1  UNL1       -0.1647
     13 N         -26.3396   -7.2670  -13.5651 N.ar    1  UNL1       -0.2494
     14 C         -25.2805   -7.3061  -12.7015 C.ar    1  UNL1        0.1047
     15 I         -24.5117   -5.7695  -11.4520 I       1  UNL1       -0.0219
     16 C         -25.3680  -10.7006  -13.8011 C.2     1  UNL1        0.2650
     17 O         -26.1633  -11.3652  -14.5164 O.2     1  UNL1       -0.2684
     18 N         -24.2396  -11.3281  -13.1695 N.am    1  UNL1       -0.3023
     19 H         -24.0982  -12.3492  -13.3427 H       1  UNL1        0.1497
     20 C         -17.8007  -10.0031   -5.4044 C.ar    1  UNL1        0.2249
     21 C         -18.7236   -9.1746   -4.7587 C.ar    1  UNL1        0.0577
     22 C         -19.6504   -8.4525   -5.5134 C.ar    1  UNL1        0.0063
     23 C         -19.6491   -8.5637   -6.9095 C.ar    1  UNL1        0.0179
     24 C         -20.5618   -7.8517   -7.6977 C.ar    1  UNL1        0.0016
     25 C         -20.5368   -7.9827   -9.0890 C.ar    1  UNL1        0.0046
     26 C         -19.6059   -8.8335   -9.7126 C.ar    1  UNL1        0.0551
     27 C         -18.6817   -9.5368   -8.9193 C.ar    1  UNL1        0.0237
     28 C         -18.7028   -9.4095   -7.5262 C.ar    1  UNL1        0.0845
     29 N         -17.8124  -10.0999   -6.7640 N.ar    1  UNL1       -0.2117
     30 C         -15.5260  -10.9142   -5.0523 C.3     1  UNL1        0.2542
     31 O         -16.8753  -10.7232   -4.6436 O.3     1  UNL1       -0.4561
     32 C         -27.2216   -6.1211  -13.8979 C.3     1  UNL1        0.0871
     33 C         -27.3606   -5.1820  -12.6832 C.3     1  UNL1        0.0244
     34 C         -26.6137   -5.2992  -15.0603 C.3     1  UNL1        0.0244
     35 C         -28.6047   -6.6273  -14.3515 C.3     1  UNL1        0.0244
@<TRIPOS>BOND
     1    30    31    1
     2    31    20    1
     3    20    21   ar
     4    21    22   ar
     5    22    23   ar
     6    23    24   ar
     7    24    25   ar
     8    25    26   ar
     9    26     1    1
    10     1     2    2
    11     1     3   am
    12     3     4    1
    13     4     5    1
    14     5     6    1
    15     6     7    1
    16     7     8    1
    17     6     9    1
    18     9    10    1
    19    10    11   ar
    20    11    12   ar
    21    12    13   ar
    22    13    32    1
    23    32    33    1
    24    32    34    1
    25    32    35    1
    26    13    14   ar
    27    14    15    1
    28    11    16    1
    29    16    17    2
    30    16    18   am
    31    26    27   ar
    32    27    28   ar
    33    28    29   ar
    34    29    20   ar
    35    28    23   ar
    36     8     3    1
    37    14    10   ar
    38    18     6    1
    39    18    19    1
@<TRIPOS>MOLECULE
*****
 35 39 0 0 0
SMALL
GASTEIGER

@<TRIPOS>ATOM
      1 C         -21.3913   -9.2486  -15.2207 C.2     1  UNL1        0.2491
      2 O         -20.3787   -9.0269  -15.9400 O.2     1  UNL1       -0.2699
      3 N         -21.8218   -8.2440  -14.2836 N.am    1  UNL1       -0.2760
      4 C         -23.2336   -7.8516  -14.2061 C.3     1  UNL1        0.0954
      5 C         -23.6932   -7.6870  -12.7437 C.3     1  UNL1        0.0399
      6 C         -22.5480   -7.3268  -11.7409 C.3     1  UNL1        0.0645
      7 C         -21.4164   -6.5714  -12.4889 C.3     1  UNL1        0.0399
      8 C         -20.8127   -7.3941  -13.6400 C.3     1  UNL1        0.0954
      9 C         -21.9925   -8.6429  -11.0790 C.3     1  UNL1        0.0481
     10 C         -21.1632   -8.3260   -9.8710 C.ar    1  UNL1        0.0259
     11 C         -21.4098   -7.2564   -9.0742 C.ar    1  UNL1        0.1519
     12 N         -20.6423   -7.2978   -7.9751 N.ar    1  UNL1       -0.1647
     13 N         -19.9001   -8.4011   -8.0485 N.ar    1  UNL1       -0.2494
     14 C         -20.2148   -9.0681   -9.1997 C.ar    1  UNL1        0.1047
     15 I         -19.4956  -10.9386   -9.9051 I       1  UNL1       -0.0219
     16 C         -22.4215   -6.2719   -9.4264 C.2     1  UNL1        0.2650
     17 O         -22.7190   -5.3303   -8.6449 O.2     1  UNL1       -0.2684
     18 N         -23.0814   -6.4175  -10.6949 N.am    1  UNL1       -0.3023
     19 H         -23.8012   -5.7027  -10.9472 H       1  UNL1        0.1497
     20 C         -25.5600  -13.5400  -13.8520 C.ar    1  UNL1        0.2249
     21 C         -25.2061  -14.4827  -14.8222 C.ar    1  UNL1        0.0577
     22 C         -24.1527  -14.2111  -15.6977 C.ar    1  UNL1        0.0063
     23 C         -23.4591  -12.9986  -15.5974 C.ar    1  UNL1        0.0179
     24 C         -22.4000  -12.6918  -16.4608 C.ar    1  UNL1        0.0016
     25 C         -21.7261  -11.4735  -16.3370 C.ar    1  UNL1        0.0046
     26 C         -22.0942  -10.5481  -15.3434 C.ar    1  UNL1        0.0551
     27 C         -23.1671  -10.8531  -14.4865 C.ar    1  UNL1        0.0237
     28 C         -23.8446  -12.0713  -14.6060 C.ar    1  UNL1        0.0845
     29 N         -24.8751  -12.3644  -13.7680 N.ar    1  UNL1       -0.2117
     30 C         -26.4339  -14.5050  -11.7464 C.3     1  UNL1        0.2542
     31 O         -26.6156  -13.8174  -12.9786 O.3     1  UNL1       -0.4561
     32 C         -18.9333   -8.7849   -6.9904 C.3     1  UNL1        0.0871
     33 C         -17.9995   -7.6025   -6.6639 C.3     1  UNL1        0.0244
     34 C         -19.6855   -9.1624   -5.6911 C.3     1  UNL1        0.0244
     35 C         -18.1159  -10.0132   -7.4354 C.3     1  UNL1        0.0244
@<TRIPOS>BOND
     1    30    31    1
     2    31    20    1
     3    20    21   ar
     4    21    22   ar
     5    22    23   ar
     6    23    24   ar
     7    24    25   ar
     8    25    26   ar
     9    26     1    1
    10     1     2    2
    11     1     3   am
    12     3     4    1
    13     4     5    1
    14     5     6    1
    15     6     7    1
    16     7     8    1
    17     6     9    1
    18     9    10    1
    19    10    11   ar
    20    11    12   ar
    21    12    13   ar
    22    13    32    1
    23    32    33    1
    24    32    34    1
    25    32    35    1
    26    13    14   ar
    27    14    15    1
    28    11    16    1
    29    16    17    2
    30    16    18   am
    31    26    27   ar
    32    27    28   ar
    33    28    29   ar
    34    29    20   ar
    35    28    23   ar
    36     8     3    1
    37    14    10   ar
    38    18     6    1
    39    18    19    1
@<TRIPOS>MOLECULE
*****
 35 39 0 0 0
SMALL
GASTEIGER

@<TRIPOS>ATOM
      1 C         -22.1021   -8.9853  -14.7618 C.2     1  UNL1        0.2491
      2 O         -21.1313   -9.0299  -15.5664 O.2     1  UNL1       -0.2699
      3 N         -22.2214   -7.8653  -13.8651 N.am    1  UNL1       -0.2760
      4 C         -23.5020   -7.1657  -13.7110 C.3     1  UNL1        0.0954
      5 C         -23.7871   -6.8313  -12.2332 C.3     1  UNL1        0.0399
      6 C         -22.5089   -6.6857  -11.3432 C.3     1  UNL1        0.0645
      7 C         -21.3089   -6.2384  -12.2209 C.3     1  UNL1        0.0399
      8 C         -21.0000   -7.2304  -13.3554 C.3     1  UNL1        0.0954
      9 C         -22.1982   -8.0581  -10.6371 C.3     1  UNL1        0.0481
     10 C         -21.2189   -7.8744   -9.5169 C.ar    1  UNL1        0.0259
     11 C         -21.1574   -6.7390   -8.7777 C.ar    1  UNL1        0.1519
     12 N         -20.3256   -6.8957   -7.7373 N.ar    1  UNL1       -0.1647
     13 N         -19.8503   -8.1386   -7.7908 N.ar    1  UNL1       -0.2494
     14 C         -20.4005   -8.7748   -8.8687 C.ar    1  UNL1        0.1047
     15 I         -20.1689  -10.7907   -9.4979 I       1  UNL1       -0.0219
     16 C         -21.9572   -5.5727   -9.1200 C.2     1  UNL1        0.2650
     17 O         -21.9743   -4.5513   -8.3837 O.2     1  UNL1       -0.2684
     18 N         -22.7397   -5.6303  -10.3243 N.am    1  UNL1       -0.3023
     19 H         -23.3058   -4.7867  -10.5705 H       1  UNL1        0.1497
     20 C         -24.1199  -14.7094  -15.6736 C.ar    1  UNL1        0.2249
     21 C         -25.4122  -14.5521  -15.1632 C.ar    1  UNL1        0.0577
     22 C         -25.8120  -13.3105  -14.6647 C.ar    1  UNL1        0.0063
     23 C         -24.9171  -12.2332  -14.6803 C.ar    1  UNL1        0.0179
     24 C         -25.2832  -10.9752  -14.1856 C.ar    1  UNL1        0.0016
     25 C         -24.3687   -9.9185  -14.2142 C.ar    1  UNL1        0.0046
     26 C         -23.0788  -10.1005  -14.7454 C.ar    1  UNL1        0.0551
     27 C         -22.7095  -11.3686  -15.2289 C.ar    1  UNL1        0.0237
     28 C         -23.6212  -12.4295  -15.2030 C.ar    1  UNL1        0.0845
     29 N         -23.2610  -13.6509  -15.6811 N.ar    1  UNL1       -0.2117
     30 C         -22.3828  -16.2449  -16.5413 C.3     1  UNL1        0.2542
     31 O         -23.7254  -15.9548  -16.1709 O.3     1  UNL1       -0.4561
     32 C         -18.9028   -8.6752   -6.7829 C.3     1  UNL1        0.0871
     33 C         -17.8908   -7.5887   -6.3676 C.3     1  UNL1        0.0244
     34 C         -19.6681   -9.1151   -5.5112 C.3     1  UNL1        0.0244
     35 C         -18.1712   -9.9102   -7.3435 C.3     1  UNL1        0.0244
@<TRIPOS>BOND
     1    30    31    1
     2    31    20    1
     3    20    21   ar
     4    21    22   ar
     5    22    23   ar
     6    23    24   ar
     7    24    25   ar
     8    25    26   ar
     9    26     1    1
    10     1     2    2
    11     1     3   am
    12     3     4    1
    13     4     5    1
    14     5     6    1
    15     6     7    1
    16     7     8    1
    17     6     9    1
    18     9    10    1
    19    10    11   ar
    20    11    12   ar
    21    12    13   ar
    22    13    32    1
    23    32    33    1
    24    32    34    1
    25    32    35    1
    26    13    14   ar
    27    14    15    1
    28    11    16    1
    29    16    17    2
    30    16    18   am
    31    26    27   ar
    32    27    28   ar
    33    28    29   ar
    34    29    20   ar
    35    28    23   ar
    36     8     3    1
    37    14    10   ar
    38    18     6    1
    39    18    19    1
