@<TRIPOS>MOLECULE
*****
 46 51 0 0 0
SMALL
GASTEIGER

@<TRIPOS>ATOM
      1 C         -71.3155  -56.2347  -17.9086 C.ar    1  UNL1        0.0702
      2 C         -70.5146  -55.2913  -17.2545 C.ar    1  UNL1        0.0191
      3 C         -70.5370  -55.1928  -15.8624 C.ar    1  UNL1        0.0356
      4 C         -71.3804  -56.0367  -15.1201 C.ar    1  UNL1        0.1318
      5 N         -72.1774  -56.9207  -15.7832 N.ar    1  UNL1       -0.2279
      6 C         -72.1701  -57.0369  -17.1367 C.ar    1  UNL1        0.1149
      7 N         -71.4071  -55.9889  -13.6767 N.pl3   1  UNL1       -0.2932
      8 C         -72.5571  -56.5180  -12.9232 C.3     1  UNL1        0.0923
      9 C         -72.7149  -55.8079  -11.5654 C.3     1  UNL1        0.0252
     10 C         -72.3618  -54.3069  -11.6683 C.3     1  UNL1        0.0472
     11 C         -70.8967  -54.1113  -12.1511 C.3     1  UNL1        0.0252
     12 C         -70.3376  -55.3136  -12.9303 C.3     1  UNL1        0.0923
     13 C         -73.3942  -53.5596  -12.5437 C.3     1  UNL1        0.2054
     14 O         -74.1221  -54.4659  -13.3775 O.3     1  UNL1       -0.4755
     15 C         -74.3518  -54.3373  -14.7600 C.ar    1  UNL1        0.1388
     16 C         -75.1337  -55.2446  -15.5039 C.ar    1  UNL1        0.0369
     17 C         -75.3181  -55.0558  -16.8747 C.ar    1  UNL1        0.0033
     18 C         -74.7310  -53.9669  -17.5209 C.ar    1  UNL1        0.0066
     19 C         -73.9458  -53.0521  -16.7990 C.ar    1  UNL1        0.0785
     20 C         -73.7632  -53.2497  -15.4187 C.ar    1  UNL1        0.0433
     21 C         -73.3178  -51.8970  -17.4779 C.2     1  UNL1        0.3381
     22 O         -73.1138  -50.8217  -16.8518 O.2     1  UNL1       -0.2451
     23 O         -72.9454  -51.9868  -18.8168 O.3     1  UNL1       -0.4771
     24 H         -72.5149  -51.2018  -19.2909 H       1  UNL1        0.2954
     25 C         -71.8150  -55.3052  -20.2158 C.2     1  UNL1        0.2839
     26 O         -72.5535  -54.3929  -19.7559 O.2     1  UNL1       -0.2665
     27 N         -71.2902  -56.3194  -19.3437 N.am    1  UNL1       -0.2766
     28 H         -70.9502  -57.2094  -19.7738 H       1  UNL1        0.1553
     29 C         -73.7217  -56.4376  -22.5294 C.3     1  UNL1        0.0345
     30 C         -72.3504  -55.8493  -22.6737 C.ar    1  UNL1        0.0202
     31 C         -71.5206  -55.3566  -21.6604 C.ar    1  UNL1        0.1946
     32 O         -70.3868  -54.9179  -22.1779 O.2     1  UNL1       -0.4492
     33 C         -70.4382  -55.1014  -23.4746 C.ar    1  UNL1        0.1452
     34 C         -69.4613  -54.7829  -24.4113 C.ar    1  UNL1        0.0375
     35 C         -69.7254  -55.0655  -25.7626 C.ar    1  UNL1        0.0031
     36 C         -70.9552  -55.6592  -26.1559 C.ar    1  UNL1        0.0002
     37 C         -71.9231  -55.9683  -25.1702 C.ar    1  UNL1        0.0028
     38 C         -71.6273  -55.6743  -23.8382 C.ar    1  UNL1        0.0337
     39 C         -71.2231  -55.9529  -27.5866 C.ar    1  UNL1        0.0000
     40 C         -70.1844  -55.8989  -28.5350 C.ar    1  UNL1        0.0005
     41 C         -70.4389  -56.1748  -29.8817 C.ar    1  UNL1        0.0059
     42 C         -71.7312  -56.5088  -30.2979 C.ar    1  UNL1        0.0215
     43 S         -72.0543  -56.8622  -32.0226 S.3     1  UNL1       -0.1414
     44 C         -72.7705  -56.5657  -29.3648 C.ar    1  UNL1        0.0059
     45 C         -72.5203  -56.2894  -28.0173 C.ar    1  UNL1        0.0005
     46 H         -71.7858  -58.2327  -31.8477 H       1  UNL1        0.1071
@<TRIPOS>BOND
     1    29    30    1
     2    30    31   ar
     3    31    25    1
     4    25    26    2
     5    25    27   am
     6    27     1    1
     7     1     2   ar
     8     2     3   ar
     9     3     4   ar
    10     4     7    1
    11     7     8    1
    12     8     9    1
    13     9    10    1
    14    10    13    1
    15    13    14    1
    16    14    15    1
    17    15    16   ar
    18    16    17   ar
    19    17    18   ar
    20    18    19   ar
    21    19    21    1
    22    21    22    2
    23    21    23    1
    24    19    20   ar
    25    10    11    1
    26    11    12    1
    27     4     5   ar
    28     5     6   ar
    29    31    32   ar
    30    32    33   ar
    31    33    34   ar
    32    34    35   ar
    33    35    36   ar
    34    36    39    1
    35    39    40   ar
    36    40    41   ar
    37    41    42   ar
    38    42    43    1
    39    42    44   ar
    40    44    45   ar
    41    36    37   ar
    42    37    38   ar
    43    38    30   ar
    44     6     1   ar
    45    38    33   ar
    46    12     7    1
    47    45    39   ar
    48    20    15   ar
    49    27    28    1
    50    23    24    1
    51    43    46    1
@<TRIPOS>MOLECULE
*****
 46 51 0 0 0
SMALL
GASTEIGER

@<TRIPOS>ATOM
      1 C         -72.3272  -55.3637  -18.1950 C.ar    1  UNL1        0.0702
      2 C         -71.0388  -55.0984  -17.7164 C.ar    1  UNL1        0.0191
      3 C         -70.7539  -55.2215  -16.3556 C.ar    1  UNL1        0.0356
      4 C         -71.7724  -55.5992  -15.4644 C.ar    1  UNL1        0.1318
      5 N         -73.0267  -55.8155  -15.9506 N.ar    1  UNL1       -0.2279
      6 C         -73.3268  -55.7052  -17.2710 C.ar    1  UNL1        0.1149
      7 N         -71.5097  -55.7704  -14.0543 N.pl3   1  UNL1       -0.2932
      8 C         -72.6145  -55.8574  -13.0838 C.3     1  UNL1        0.0923
      9 C         -72.1778  -55.3708  -11.6891 C.3     1  UNL1        0.0252
     10 C         -71.2015  -54.1769  -11.7872 C.3     1  UNL1        0.0472
     11 C         -69.9259  -54.5650  -12.5874 C.3     1  UNL1        0.0252
     12 C         -70.1334  -55.7528  -13.5420 C.3     1  UNL1        0.0923
     13 C         -71.9170  -52.9288  -12.3536 C.3     1  UNL1        0.2054
     14 O         -71.9039  -52.9260  -13.7840 O.3     1  UNL1       -0.4755
     15 C         -72.9851  -52.6290  -14.6346 C.ar    1  UNL1        0.1388
     16 C         -74.3278  -52.6114  -14.2048 C.ar    1  UNL1        0.0369
     17 C         -75.3512  -52.3095  -15.1048 C.ar    1  UNL1        0.0033
     18 C         -75.0546  -52.0214  -16.4379 C.ar    1  UNL1        0.0066
     19 C         -73.7235  -52.0359  -16.8878 C.ar    1  UNL1        0.0785
     20 C         -72.6979  -52.3425  -15.9758 C.ar    1  UNL1        0.0433
     21 C         -73.4015  -51.7344  -18.3003 C.2     1  UNL1        0.3381
     22 O         -74.1899  -51.0443  -19.0019 O.2     1  UNL1       -0.2451
     23 O         -72.2230  -52.2106  -18.8690 O.3     1  UNL1       -0.4771
     24 H         -71.9932  -52.0099  -19.8351 H       1  UNL1        0.2954
     25 C         -72.1584  -56.1471  -20.6022 C.2     1  UNL1        0.2839
     26 O         -71.2742  -57.0022  -20.3266 O.2     1  UNL1       -0.2665
     27 N         -72.6098  -55.2239  -19.5978 N.am    1  UNL1       -0.2766
     28 H         -73.0960  -54.3540  -19.9130 H       1  UNL1        0.1553
     29 C         -70.5431  -55.4425  -23.2788 C.3     1  UNL1        0.0345
     30 C         -72.0019  -55.7594  -23.1417 C.ar    1  UNL1        0.0202
     31 C         -72.7037  -56.0658  -21.9705 C.ar    1  UNL1        0.1946
     32 O         -73.9757  -56.2881  -22.2506 O.2     1  UNL1       -0.4492
     33 C         -74.1352  -56.1409  -23.5431 C.ar    1  UNL1        0.1452
     34 C         -75.3120  -56.2828  -24.2697 C.ar    1  UNL1        0.0375
     35 C         -75.2582  -56.0801  -25.6596 C.ar    1  UNL1        0.0031
     36 C         -74.0357  -55.7402  -26.2995 C.ar    1  UNL1        0.0002
     37 C         -72.8600  -55.6050  -25.5226 C.ar    1  UNL1        0.0028
     38 C         -72.9501  -55.8132  -24.1454 C.ar    1  UNL1        0.0337
     39 C         -73.9910  -55.5287  -27.7686 C.ar    1  UNL1        0.0000
     40 C         -73.8465  -54.2339  -28.3011 C.ar    1  UNL1        0.0005
     41 C         -73.8057  -54.0368  -29.6846 C.ar    1  UNL1        0.0059
     42 C         -73.9074  -55.1281  -30.5526 C.ar    1  UNL1        0.0215
     43 S         -73.8543  -54.8732  -32.3235 S.3     1  UNL1       -0.1414
     44 C         -74.0511  -56.4187  -30.0349 C.ar    1  UNL1        0.0059
     45 C         -74.0934  -56.6199  -28.6520 C.ar    1  UNL1        0.0005
     46 H         -72.4541  -55.0127  -32.3558 H       1  UNL1        0.1071
@<TRIPOS>BOND
     1    29    30    1
     2    30    31   ar
     3    31    25    1
     4    25    26    2
     5    25    27   am
     6    27     1    1
     7     1     2   ar
     8     2     3   ar
     9     3     4   ar
    10     4     7    1
    11     7     8    1
    12     8     9    1
    13     9    10    1
    14    10    13    1
    15    13    14    1
    16    14    15    1
    17    15    16   ar
    18    16    17   ar
    19    17    18   ar
    20    18    19   ar
    21    19    21    1
    22    21    22    2
    23    21    23    1
    24    19    20   ar
    25    10    11    1
    26    11    12    1
    27     4     5   ar
    28     5     6   ar
    29    31    32   ar
    30    32    33   ar
    31    33    34   ar
    32    34    35   ar
    33    35    36   ar
    34    36    39    1
    35    39    40   ar
    36    40    41   ar
    37    41    42   ar
    38    42    43    1
    39    42    44   ar
    40    44    45   ar
    41    36    37   ar
    42    37    38   ar
    43    38    30   ar
    44     6     1   ar
    45    38    33   ar
    46    12     7    1
    47    45    39   ar
    48    20    15   ar
    49    27    28    1
    50    23    24    1
    51    43    46    1
@<TRIPOS>MOLECULE
*****
 46 51 0 0 0
SMALL
GASTEIGER

@<TRIPOS>ATOM
      1 C         -73.0200  -53.9947  -17.7967 C.ar    1  UNL1        0.0702
      2 C         -74.2790  -53.8093  -17.2136 C.ar    1  UNL1        0.0191
      3 C         -74.3911  -53.5580  -15.8452 C.ar    1  UNL1        0.0356
      4 C         -73.2328  -53.5068  -15.0515 C.ar    1  UNL1        0.1318
      5 N         -72.0225  -53.7275  -15.6370 N.ar    1  UNL1       -0.2279
      6 C         -71.8884  -53.9704  -16.9669 C.ar    1  UNL1        0.1149
      7 N         -73.3043  -53.2157  -13.6385 N.pl3   1  UNL1       -0.2932
      8 C         -72.0798  -53.0828  -12.8304 C.3     1  UNL1        0.0923
      9 C         -72.3375  -53.4434  -11.3551 C.3     1  UNL1        0.0252
     10 C         -73.3393  -54.6130  -11.2259 C.3     1  UNL1        0.0472
     11 C         -74.7021  -54.2540  -11.8831 C.3     1  UNL1        0.0252
     12 C         -74.6011  -53.1529  -12.9520 C.3     1  UNL1        0.0923
     13 C         -72.7270  -55.9224  -11.7746 C.3     1  UNL1        0.2054
     14 O         -71.3580  -55.7402  -12.1475 O.3     1  UNL1       -0.4755
     15 C         -70.7568  -56.1310  -13.3585 C.ar    1  UNL1        0.1388
     16 C         -71.4243  -56.8796  -14.3495 C.ar    1  UNL1        0.0369
     17 C         -70.7646  -57.2341  -15.5276 C.ar    1  UNL1        0.0033
     18 C         -69.4390  -56.8501  -15.7354 C.ar    1  UNL1        0.0066
     19 C         -68.7543  -56.1060  -14.7596 C.ar    1  UNL1        0.0785
     20 C         -69.4248  -55.7539  -13.5747 C.ar    1  UNL1        0.0433
     21 C         -67.3479  -55.6978  -14.9718 C.2     1  UNL1        0.3381
     22 O         -66.9771  -55.2388  -16.0861 O.2     1  UNL1       -0.2451
     23 O         -66.4190  -55.8169  -13.9411 O.3     1  UNL1       -0.4771
     24 H         -65.4538  -55.5404  -14.0759 H       1  UNL1        0.2954
     25 C         -72.6928  -55.5690  -19.7591 C.2     1  UNL1        0.2839
     26 O         -72.3225  -56.5174  -19.0159 O.2     1  UNL1       -0.2665
     27 N         -72.9190  -54.2623  -19.2058 N.am    1  UNL1       -0.2766
     28 H         -72.9225  -53.4462  -19.8587 H       1  UNL1        0.1553
     29 C         -70.3992  -55.4483  -21.9941 C.3     1  UNL1        0.0345
     30 C         -71.8572  -55.7384  -22.1875 C.ar    1  UNL1        0.0202
     31 C         -72.8559  -55.7894  -21.2086 C.ar    1  UNL1        0.1946
     32 O         -74.0197  -56.0760  -21.7646 O.2     1  UNL1       -0.4492
     33 C         -73.8275  -56.2128  -23.0538 C.ar    1  UNL1        0.1452
     34 C         -74.7786  -56.5168  -24.0212 C.ar    1  UNL1        0.0375
     35 C         -74.3526  -56.6191  -25.3568 C.ar    1  UNL1        0.0031
     36 C         -72.9894  -56.4169  -25.7041 C.ar    1  UNL1        0.0002
     37 C         -72.0529  -56.1085  -24.6883 C.ar    1  UNL1        0.0028
     38 C         -72.5109  -56.0146  -23.3732 C.ar    1  UNL1        0.0337
     39 C         -72.5509  -56.5277  -27.1185 C.ar    1  UNL1        0.0000
     40 C         -71.2965  -56.0310  -27.5198 C.ar    1  UNL1        0.0005
     41 C         -70.8860  -56.1354  -28.8521 C.ar    1  UNL1        0.0059
     42 C         -71.7206  -56.7370  -29.7989 C.ar    1  UNL1        0.0215
     43 S         -71.1924  -56.8699  -31.5039 S.3     1  UNL1       -0.1414
     44 C         -72.9685  -57.2339  -29.4116 C.ar    1  UNL1        0.0059
     45 C         -73.3832  -57.1305  -28.0805 C.ar    1  UNL1        0.0005
     46 H         -70.5926  -58.1227  -31.2767 H       1  UNL1        0.1071
@<TRIPOS>BOND
     1    29    30    1
     2    30    31   ar
     3    31    25    1
     4    25    26    2
     5    25    27   am
     6    27     1    1
     7     1     2   ar
     8     2     3   ar
     9     3     4   ar
    10     4     7    1
    11     7     8    1
    12     8     9    1
    13     9    10    1
    14    10    13    1
    15    13    14    1
    16    14    15    1
    17    15    16   ar
    18    16    17   ar
    19    17    18   ar
    20    18    19   ar
    21    19    21    1
    22    21    22    2
    23    21    23    1
    24    19    20   ar
    25    10    11    1
    26    11    12    1
    27     4     5   ar
    28     5     6   ar
    29    31    32   ar
    30    32    33   ar
    31    33    34   ar
    32    34    35   ar
    33    35    36   ar
    34    36    39    1
    35    39    40   ar
    36    40    41   ar
    37    41    42   ar
    38    42    43    1
    39    42    44   ar
    40    44    45   ar
    41    36    37   ar
    42    37    38   ar
    43    38    30   ar
    44     6     1   ar
    45    38    33   ar
    46    12     7    1
    47    45    39   ar
    48    20    15   ar
    49    27    28    1
    50    23    24    1
    51    43    46    1
@<TRIPOS>MOLECULE
*****
 46 51 0 0 0
SMALL
GASTEIGER

@<TRIPOS>ATOM
      1 C         -72.8184  -53.7050  -16.6840 C.ar    1  UNL1        0.0702
      2 C         -73.8477  -54.6066  -16.3891 C.ar    1  UNL1        0.0191
      3 C         -74.3910  -54.6593  -15.1045 C.ar    1  UNL1        0.0356
      4 C         -73.8884  -53.8119  -14.1028 C.ar    1  UNL1        0.1318
      5 N         -72.8611  -52.9698  -14.4062 N.ar    1  UNL1       -0.2279
      6 C         -72.3188  -52.8985  -15.6498 C.ar    1  UNL1        0.1149
      7 N         -74.4465  -53.8123  -12.7705 N.pl3   1  UNL1       -0.2932
      8 C         -74.0718  -52.7761  -11.7927 C.3     1  UNL1        0.0923
      9 C         -74.2015  -53.2932  -10.3474 C.3     1  UNL1        0.0252
     10 C         -73.7874  -54.7782  -10.2393 C.3     1  UNL1        0.0472
     11 C         -74.6714  -55.6709  -11.1555 C.3     1  UNL1        0.0252
     12 C         -75.3170  -54.9077  -12.3242 C.3     1  UNL1        0.0923
     13 C         -72.2737  -54.9460  -10.5061 C.3     1  UNL1        0.2054
     14 O         -71.9426  -54.6058  -11.8556 O.3     1  UNL1       -0.4755
     15 C         -71.3049  -55.4326  -12.7993 C.ar    1  UNL1        0.1388
     16 C         -71.9706  -56.4481  -13.5158 C.ar    1  UNL1        0.0369
     17 C         -71.2739  -57.2323  -14.4369 C.ar    1  UNL1        0.0033
     18 C         -69.9125  -57.0177  -14.6574 C.ar    1  UNL1        0.0066
     19 C         -69.2292  -56.0126  -13.9521 C.ar    1  UNL1        0.0785
     20 C         -69.9373  -55.2276  -13.0247 C.ar    1  UNL1        0.0433
     21 C         -67.7853  -55.7811  -14.1784 C.2     1  UNL1        0.3381
     22 O         -67.3593  -55.4771  -15.3256 O.2     1  UNL1       -0.2451
     23 O         -66.8820  -55.8970  -13.1250 O.3     1  UNL1       -0.4771
     24 H         -65.8914  -55.7407  -13.2693 H       1  UNL1        0.2954
     25 C         -71.1162  -54.4330  -18.4188 C.2     1  UNL1        0.2839
     26 O         -70.3875  -54.9953  -17.5575 O.2     1  UNL1       -0.2665
     27 N         -72.2610  -53.6674  -18.0089 N.am    1  UNL1       -0.2766
     28 H         -72.6583  -52.9771  -18.6857 H       1  UNL1        0.1553
     29 C         -72.8570  -55.8072  -20.7320 C.3     1  UNL1        0.0345
     30 C         -71.5287  -55.1248  -20.8632 C.ar    1  UNL1        0.0202
     31 C         -70.7712  -54.5265  -19.8500 C.ar    1  UNL1        0.1946
     32 O         -69.6563  -54.0275  -20.3537 O.2     1  UNL1       -0.4492
     33 C         -69.6513  -54.2719  -21.6413 C.ar    1  UNL1        0.1452
     34 C         -68.6702  -53.9231  -22.5626 C.ar    1  UNL1        0.0375
     35 C         -68.8680  -54.2845  -23.9064 C.ar    1  UNL1        0.0031
     36 C         -70.0372  -54.9858  -24.3077 C.ar    1  UNL1        0.0002
     37 C         -71.0116  -55.3225  -23.3376 C.ar    1  UNL1        0.0028
     38 C         -70.7824  -54.9481  -22.0127 C.ar    1  UNL1        0.0337
     39 C         -70.2354  -55.3623  -25.7304 C.ar    1  UNL1        0.0000
     40 C         -69.5458  -54.6840  -26.7529 C.ar    1  UNL1        0.0005
     41 C         -69.7346  -55.0393  -28.0918 C.ar    1  UNL1        0.0059
     42 C         -70.6118  -56.0754  -28.4263 C.ar    1  UNL1        0.0215
     43 S         -70.8513  -56.5287  -30.1412 S.3     1  UNL1       -0.1414
     44 C         -71.3019  -56.7561  -27.4190 C.ar    1  UNL1        0.0059
     45 C         -71.1167  -56.4031  -26.0790 C.ar    1  UNL1        0.0005
     46 H         -69.8035  -57.4673  -30.0953 H       1  UNL1        0.1071
@<TRIPOS>BOND
     1    29    30    1
     2    30    31   ar
     3    31    25    1
     4    25    26    2
     5    25    27   am
     6    27     1    1
     7     1     2   ar
     8     2     3   ar
     9     3     4   ar
    10     4     7    1
    11     7     8    1
    12     8     9    1
    13     9    10    1
    14    10    13    1
    15    13    14    1
    16    14    15    1
    17    15    16   ar
    18    16    17   ar
    19    17    18   ar
    20    18    19   ar
    21    19    21    1
    22    21    22    2
    23    21    23    1
    24    19    20   ar
    25    10    11    1
    26    11    12    1
    27     4     5   ar
    28     5     6   ar
    29    31    32   ar
    30    32    33   ar
    31    33    34   ar
    32    34    35   ar
    33    35    36   ar
    34    36    39    1
    35    39    40   ar
    36    40    41   ar
    37    41    42   ar
    38    42    43    1
    39    42    44   ar
    40    44    45   ar
    41    36    37   ar
    42    37    38   ar
    43    38    30   ar
    44     6     1   ar
    45    38    33   ar
    46    12     7    1
    47    45    39   ar
    48    20    15   ar
    49    27    28    1
    50    23    24    1
    51    43    46    1
@<TRIPOS>MOLECULE
*****
 46 51 0 0 0
SMALL
GASTEIGER

@<TRIPOS>ATOM
      1 C         -62.1692  -41.6357  -20.4037 C.ar    1  UNL1        0.0702
      2 C         -60.7959  -41.5685  -20.6663 C.ar    1  UNL1        0.0191
      3 C         -60.1144  -42.6896  -21.1426 C.ar    1  UNL1        0.0356
      4 C         -60.8119  -43.8927  -21.3434 C.ar    1  UNL1        0.1318
      5 N         -62.1404  -43.9419  -21.0449 N.ar    1  UNL1       -0.2279
      6 C         -62.8253  -42.8632  -20.5836 C.ar    1  UNL1        0.1149
      7 N         -60.1499  -45.0649  -21.8670 N.pl3   1  UNL1       -0.2932
      8 C         -58.8679  -44.9532  -22.5839 C.3     1  UNL1        0.0923
      9 C         -58.6843  -46.1041  -23.5911 C.3     1  UNL1        0.0252
     10 C         -60.0229  -46.4865  -24.2622 C.3     1  UNL1        0.0472
     11 C         -61.0700  -46.9314  -23.2023 C.3     1  UNL1        0.0252
     12 C         -60.7926  -46.3833  -21.7924 C.3     1  UNL1        0.0923
     13 C         -60.5274  -45.3417  -25.1707 C.3     1  UNL1        0.2054
     14 O         -61.6163  -44.6388  -24.5654 O.3     1  UNL1       -0.4755
     15 C         -62.2940  -43.5233  -25.0919 C.ar    1  UNL1        0.1388
     16 C         -62.2860  -43.1862  -26.4609 C.ar    1  UNL1        0.0369
     17 C         -62.9802  -42.0628  -26.9134 C.ar    1  UNL1        0.0033
     18 C         -63.6891  -41.2638  -26.0150 C.ar    1  UNL1        0.0066
     19 C         -63.7081  -41.5802  -24.6460 C.ar    1  UNL1        0.0785
     20 C         -63.0051  -42.7125  -24.1973 C.ar    1  UNL1        0.0433
     21 C         -64.4550  -40.7361  -23.6872 C.2     1  UNL1        0.3381
     22 O         -65.1030  -41.2629  -22.7425 O.2     1  UNL1       -0.2451
     23 O         -64.4492  -39.3499  -23.8194 O.3     1  UNL1       -0.4771
     24 H         -64.9573  -38.7629  -23.1684 H       1  UNL1        0.2954
     25 C         -62.6803  -39.1507  -20.4300 C.2     1  UNL1        0.2839
     26 O         -61.7169  -38.8981  -21.2026 O.2     1  UNL1       -0.2665
     27 N         -62.8574  -40.4763  -19.9043 N.am    1  UNL1       -0.2766
     28 H         -63.4532  -40.5917  -19.0532 H       1  UNL1        0.1553
     29 C         -65.8830  -39.2661  -20.4389 C.3     1  UNL1        0.0345
     30 C         -65.0053  -38.1208  -20.0326 C.ar    1  UNL1        0.0202
     31 C         -63.6066  -38.0742  -20.0310 C.ar    1  UNL1        0.1946
     32 O         -63.1941  -36.8935  -19.6050 O.2     1  UNL1       -0.4492
     33 C         -64.2530  -36.1716  -19.3309 C.ar    1  UNL1        0.1452
     34 C         -64.2839  -34.8661  -18.8535 C.ar    1  UNL1        0.0375
     35 C         -65.5391  -34.2768  -18.6237 C.ar    1  UNL1        0.0031
     36 C         -66.7387  -34.9968  -18.8732 C.ar    1  UNL1        0.0002
     37 C         -66.6629  -36.3240  -19.3597 C.ar    1  UNL1        0.0028
     38 C         -65.4001  -36.8775  -19.5767 C.ar    1  UNL1        0.0337
     39 C         -68.0591  -34.3637  -18.6266 C.ar    1  UNL1        0.0000
     40 C         -68.1845  -33.3045  -17.7081 C.ar    1  UNL1        0.0005
     41 C         -69.4287  -32.7106  -17.4766 C.ar    1  UNL1        0.0059
     42 C         -70.5615  -33.1648  -18.1586 C.ar    1  UNL1        0.0215
     43 S         -72.1532  -32.4023  -17.8608 S.3     1  UNL1       -0.1414
     44 C         -70.4487  -34.2161  -19.0732 C.ar    1  UNL1        0.0059
     45 C         -69.2065  -34.8134  -19.3068 C.ar    1  UNL1        0.0005
     46 H         -71.9511  -31.4557  -18.8826 H       1  UNL1        0.1071
@<TRIPOS>BOND
     1    29    30    1
     2    30    31   ar
     3    31    25    1
     4    25    26    2
     5    25    27   am
     6    27     1    1
     7     1     2   ar
     8     2     3   ar
     9     3     4   ar
    10     4     7    1
    11     7     8    1
    12     8     9    1
    13     9    10    1
    14    10    13    1
    15    13    14    1
    16    14    15    1
    17    15    16   ar
    18    16    17   ar
    19    17    18   ar
    20    18    19   ar
    21    19    21    1
    22    21    22    2
    23    21    23    1
    24    19    20   ar
    25    10    11    1
    26    11    12    1
    27     4     5   ar
    28     5     6   ar
    29    31    32   ar
    30    32    33   ar
    31    33    34   ar
    32    34    35   ar
    33    35    36   ar
    34    36    39    1
    35    39    40   ar
    36    40    41   ar
    37    41    42   ar
    38    42    43    1
    39    42    44   ar
    40    44    45   ar
    41    36    37   ar
    42    37    38   ar
    43    38    30   ar
    44     6     1   ar
    45    38    33   ar
    46    12     7    1
    47    45    39   ar
    48    20    15   ar
    49    27    28    1
    50    23    24    1
    51    43    46    1
@<TRIPOS>MOLECULE
*****
 46 51 0 0 0
SMALL
GASTEIGER

@<TRIPOS>ATOM
      1 C         -73.4561  -54.8609  -18.7571 C.ar    1  UNL1        0.0702
      2 C         -73.6886  -55.9969  -17.9729 C.ar    1  UNL1        0.0191
      3 C         -74.1955  -55.8674  -16.6788 C.ar    1  UNL1        0.0356
      4 C         -74.4576  -54.5880  -16.1606 C.ar    1  UNL1        0.1318
      5 N         -74.1876  -53.4970  -16.9308 N.ar    1  UNL1       -0.2279
      6 C         -73.6975  -53.5984  -18.1938 C.ar    1  UNL1        0.1149
      7 N         -75.0142  -54.4138  -14.8390 N.pl3   1  UNL1       -0.2932
      8 C         -75.1595  -53.0714  -14.2501 C.3     1  UNL1        0.0923
      9 C         -75.1122  -53.1240  -12.7113 C.3     1  UNL1        0.0252
     10 C         -74.1058  -54.1856  -12.2129 C.3     1  UNL1        0.0472
     11 C         -74.4841  -55.6003  -12.7356 C.3     1  UNL1        0.0252
     12 C         -75.3476  -55.5779  -14.0080 C.3     1  UNL1        0.0923
     13 C         -72.6572  -53.7756  -12.5651 C.3     1  UNL1        0.2054
     14 O         -72.3432  -54.0915  -13.9245 O.3     1  UNL1       -0.4755
     15 C         -71.3084  -54.9322  -14.3753 C.ar    1  UNL1        0.1388
     16 C         -70.5927  -55.8035  -13.5287 C.ar    1  UNL1        0.0369
     17 C         -69.5760  -56.6090  -14.0447 C.ar    1  UNL1        0.0033
     18 C         -69.2595  -56.5598  -15.4032 C.ar    1  UNL1        0.0066
     19 C         -69.9584  -55.6967  -16.2640 C.ar    1  UNL1        0.0785
     20 C         -70.9803  -54.8871  -15.7368 C.ar    1  UNL1        0.0433
     21 C         -69.6264  -55.6370  -17.7048 C.2     1  UNL1        0.3381
     22 O         -70.4331  -56.0831  -18.5652 O.2     1  UNL1       -0.2451
     23 O         -68.4181  -55.0867  -18.1247 O.3     1  UNL1       -0.4771
     24 H         -68.1811  -55.0411  -19.1087 H       1  UNL1        0.2954
     25 C         -73.2629  -56.0891  -20.9687 C.2     1  UNL1        0.2839
     26 O         -73.8603  -57.1070  -20.5260 O.2     1  UNL1       -0.2665
     27 N         -72.9248  -55.0076  -20.0850 N.am    1  UNL1       -0.2766
     28 H         -72.1835  -54.3370  -20.3905 H       1  UNL1        0.1553
     29 C         -75.1869  -56.4235  -23.5097 C.3     1  UNL1        0.0345
     30 C         -73.7097  -56.1682  -23.5021 C.ar    1  UNL1        0.0202
     31 C         -72.8728  -56.0236  -22.3898 C.ar    1  UNL1        0.1946
     32 O         -71.6304  -55.8073  -22.7839 O.2     1  UNL1       -0.4492
     33 C         -71.6181  -55.8048  -24.0945 C.ar    1  UNL1        0.1452
     34 C         -70.5219  -55.6126  -24.9278 C.ar    1  UNL1        0.0375
     35 C         -70.7343  -55.6474  -26.3168 C.ar    1  UNL1        0.0031
     36 C         -72.0323  -55.8728  -26.8498 C.ar    1  UNL1        0.0002
     37 C         -73.1216  -56.0645  -25.9663 C.ar    1  UNL1        0.0028
     38 C         -72.8743  -56.0238  -24.5932 C.ar    1  UNL1        0.0337
     39 C         -72.2446  -55.9072  -28.3191 C.ar    1  UNL1        0.0000
     40 C         -71.2656  -56.4521  -29.1711 C.ar    1  UNL1        0.0005
     41 C         -71.4670  -56.4826  -30.5542 C.ar    1  UNL1        0.0059
     42 C         -72.6468  -55.9716  -31.1034 C.ar    1  UNL1        0.0215
     43 S         -72.9025  -56.0124  -32.8744 S.3     1  UNL1       -0.1414
     44 C         -73.6261  -55.4281  -30.2668 C.ar    1  UNL1        0.0059
     45 C         -73.4281  -55.3948  -28.8832 C.ar    1  UNL1        0.0005
     46 H         -73.5128  -57.2791  -32.8113 H       1  UNL1        0.1071
@<TRIPOS>BOND
     1    29    30    1
     2    30    31   ar
     3    31    25    1
     4    25    26    2
     5    25    27   am
     6    27     1    1
     7     1     2   ar
     8     2     3   ar
     9     3     4   ar
    10     4     7    1
    11     7     8    1
    12     8     9    1
    13     9    10    1
    14    10    13    1
    15    13    14    1
    16    14    15    1
    17    15    16   ar
    18    16    17   ar
    19    17    18   ar
    20    18    19   ar
    21    19    21    1
    22    21    22    2
    23    21    23    1
    24    19    20   ar
    25    10    11    1
    26    11    12    1
    27     4     5   ar
    28     5     6   ar
    29    31    32   ar
    30    32    33   ar
    31    33    34   ar
    32    34    35   ar
    33    35    36   ar
    34    36    39    1
    35    39    40   ar
    36    40    41   ar
    37    41    42   ar
    38    42    43    1
    39    42    44   ar
    40    44    45   ar
    41    36    37   ar
    42    37    38   ar
    43    38    30   ar
    44     6     1   ar
    45    38    33   ar
    46    12     7    1
    47    45    39   ar
    48    20    15   ar
    49    27    28    1
    50    23    24    1
    51    43    46    1
@<TRIPOS>MOLECULE
*****
 46 51 0 0 0
SMALL
GASTEIGER

@<TRIPOS>ATOM
      1 C         -62.1644  -41.7634  -20.4500 C.ar    1  UNL1        0.0702
      2 C         -62.8840  -42.7366  -21.1531 C.ar    1  UNL1        0.0191
      3 C         -62.2341  -43.8622  -21.6619 C.ar    1  UNL1        0.0356
      4 C         -60.8487  -44.0066  -21.4777 C.ar    1  UNL1        0.1318
      5 N         -60.1654  -43.0268  -20.8222 N.ar    1  UNL1       -0.2279
      6 C         -60.7768  -41.9246  -20.3154 C.ar    1  UNL1        0.1149
      7 N         -60.1456  -45.1729  -21.9594 N.pl3   1  UNL1       -0.2932
      8 C         -58.8711  -45.0417  -22.6864 C.3     1  UNL1        0.0923
      9 C         -58.6487  -46.2230  -23.6497 C.3     1  UNL1        0.0252
     10 C         -59.9746  -46.6800  -24.2989 C.3     1  UNL1        0.0472
     11 C         -61.0008  -47.1220  -23.2175 C.3     1  UNL1        0.0252
     12 C         -60.7388  -46.5103  -21.8310 C.3     1  UNL1        0.0923
     13 C         -60.5244  -45.5904  -25.2481 C.3     1  UNL1        0.2054
     14 O         -60.1545  -45.8484  -26.6057 O.3     1  UNL1       -0.4755
     15 C         -60.4510  -45.0483  -27.7249 C.ar    1  UNL1        0.1388
     16 C         -61.3976  -44.0036  -27.7024 C.ar    1  UNL1        0.0369
     17 C         -61.6425  -43.2506  -28.8521 C.ar    1  UNL1        0.0033
     18 C         -60.9521  -43.5245  -30.0338 C.ar    1  UNL1        0.0066
     19 C         -60.0064  -44.5629  -30.0788 C.ar    1  UNL1        0.0785
     20 C         -59.7661  -45.3181  -28.9171 C.ar    1  UNL1        0.0433
     21 C         -59.2727  -44.8610  -31.3288 C.2     1  UNL1        0.3381
     22 O         -59.6369  -44.3474  -32.4212 O.2     1  UNL1       -0.2451
     23 O         -58.1712  -45.7129  -31.3103 O.3     1  UNL1       -0.4771
     24 H         -57.6620  -45.9235  -32.1605 H       1  UNL1        0.2954
     25 C         -62.6417  -39.2716  -20.4380 C.2     1  UNL1        0.2839
     26 O         -61.6639  -39.0182  -21.1921 O.2     1  UNL1       -0.2665
     27 N         -62.8442  -40.6039  -19.9393 N.am    1  UNL1       -0.2766
     28 H         -63.4537  -40.7267  -19.0991 H       1  UNL1        0.1553
     29 C         -65.8446  -39.3299  -20.5288 C.3     1  UNL1        0.0345
     30 C         -64.9579  -38.2116  -20.0698 C.ar    1  UNL1        0.0202
     31 C         -63.5592  -38.1900  -20.0326 C.ar    1  UNL1        0.1946
     32 O         -63.1373  -37.0287  -19.5644 O.2     1  UNL1       -0.4492
     33 C         -64.1903  -36.2957  -19.2968 C.ar    1  UNL1        0.1452
     34 C         -64.2108  -35.0032  -18.7848 C.ar    1  UNL1        0.0375
     35 C         -65.4611  -34.3980  -18.5699 C.ar    1  UNL1        0.0031
     36 C         -66.6662  -35.0897  -18.8684 C.ar    1  UNL1        0.0002
     37 C         -66.6010  -36.4044  -19.3890 C.ar    1  UNL1        0.0028
     38 C         -65.3428  -36.9743  -19.5900 C.ar    1  UNL1        0.0337
     39 C         -67.9814  -34.4401  -18.6370 C.ar    1  UNL1        0.0000
     40 C         -68.1050  -33.3823  -17.7168 C.ar    1  UNL1        0.0005
     41 C         -69.3443  -32.7728  -17.4997 C.ar    1  UNL1        0.0059
     42 C         -70.4738  -33.2100  -18.1981 C.ar    1  UNL1        0.0215
     43 S         -72.0592  -32.4277  -17.9187 S.3     1  UNL1       -0.1414
     44 C         -70.3628  -34.2598  -19.1145 C.ar    1  UNL1        0.0059
     45 C         -69.1254  -34.8727  -19.3338 C.ar    1  UNL1        0.0005
     46 H         -71.8314  -31.4806  -18.9346 H       1  UNL1        0.1071
@<TRIPOS>BOND
     1    29    30    1
     2    30    31   ar
     3    31    25    1
     4    25    26    2
     5    25    27   am
     6    27     1    1
     7     1     2   ar
     8     2     3   ar
     9     3     4   ar
    10     4     7    1
    11     7     8    1
    12     8     9    1
    13     9    10    1
    14    10    13    1
    15    13    14    1
    16    14    15    1
    17    15    16   ar
    18    16    17   ar
    19    17    18   ar
    20    18    19   ar
    21    19    21    1
    22    21    22    2
    23    21    23    1
    24    19    20   ar
    25    10    11    1
    26    11    12    1
    27     4     5   ar
    28     5     6   ar
    29    31    32   ar
    30    32    33   ar
    31    33    34   ar
    32    34    35   ar
    33    35    36   ar
    34    36    39    1
    35    39    40   ar
    36    40    41   ar
    37    41    42   ar
    38    42    43    1
    39    42    44   ar
    40    44    45   ar
    41    36    37   ar
    42    37    38   ar
    43    38    30   ar
    44     6     1   ar
    45    38    33   ar
    46    12     7    1
    47    45    39   ar
    48    20    15   ar
    49    27    28    1
    50    23    24    1
    51    43    46    1
@<TRIPOS>MOLECULE
*****
 46 51 0 0 0
SMALL
GASTEIGER

@<TRIPOS>ATOM
      1 C         -73.2012  -55.0802  -16.4489 C.ar    1  UNL1        0.0702
      2 C         -74.1337  -55.9084  -15.8135 C.ar    1  UNL1        0.0191
      3 C         -74.6004  -55.5931  -14.5364 C.ar    1  UNL1        0.0356
      4 C         -74.1173  -54.4462  -13.8841 C.ar    1  UNL1        0.1318
      5 N         -73.1822  -53.6772  -14.5093 N.ar    1  UNL1       -0.2279
      6 C         -72.7159  -53.9622  -15.7531 C.ar    1  UNL1        0.1149
      7 N         -74.6005  -54.0675  -12.5766 N.pl3   1  UNL1       -0.2932
      8 C         -74.3118  -52.7345  -12.0200 C.3     1  UNL1        0.0923
      9 C         -74.2984  -52.7588  -10.4798 C.3     1  UNL1        0.0252
     10 C         -73.6918  -54.0740   -9.9407 C.3     1  UNL1        0.0472
     11 C         -74.5002  -55.3054  -10.4387 C.3     1  UNL1        0.0252
     12 C         -75.2986  -55.0402  -11.7261 C.3     1  UNL1        0.0923
     13 C         -72.1850  -54.1609  -10.2766 C.3     1  UNL1        0.2054
     14 O         -71.9636  -54.1157  -11.6892 O.3     1  UNL1       -0.4755
     15 C         -71.3276  -55.0966  -12.4728 C.ar    1  UNL1        0.1388
     16 C         -71.9563  -56.2907  -12.8811 C.ar    1  UNL1        0.0369
     17 C         -71.2635  -57.2213  -13.6574 C.ar    1  UNL1        0.0033
     18 C         -69.9426  -56.9778  -14.0370 C.ar    1  UNL1        0.0066
     19 C         -69.2963  -55.7954  -13.6387 C.ar    1  UNL1        0.0785
     20 C         -70.0000  -54.8633  -12.8555 C.ar    1  UNL1        0.0433
     21 C         -67.8951  -55.5317  -14.0349 C.2     1  UNL1        0.3381
     22 O         -66.9674  -55.5974  -13.1834 O.2     1  UNL1       -0.2451
     23 O         -67.5874  -55.2080  -15.3539 O.3     1  UNL1       -0.4771
     24 H         -66.6315  -55.0256  -15.6355 H       1  UNL1        0.2954
     25 C         -73.4030  -55.0772  -18.9780 C.2     1  UNL1        0.2839
     26 O         -74.5948  -54.6681  -18.9440 O.2     1  UNL1       -0.2665
     27 N         -72.7214  -55.4214  -17.7607 N.am    1  UNL1       -0.2766
     28 H         -71.8747  -56.0306  -17.8270 H       1  UNL1        0.1553
     29 C         -70.5804  -53.8246  -19.8350 C.3     1  UNL1        0.0345
     30 C         -71.4848  -54.6980  -20.6515 C.ar    1  UNL1        0.0202
     31 C         -72.7173  -55.2424  -20.2737 C.ar    1  UNL1        0.1946
     32 O         -73.2170  -55.9605  -21.2638 O.2     1  UNL1       -0.4492
     33 C         -72.3724  -55.9093  -22.2647 C.ar    1  UNL1        0.1452
     34 C         -72.4972  -56.5225  -23.5063 C.ar    1  UNL1        0.0375
     35 C         -71.4642  -56.3364  -24.4412 C.ar    1  UNL1        0.0031
     36 C         -70.3278  -55.5444  -24.1233 C.ar    1  UNL1        0.0002
     37 C         -70.2402  -54.9371  -22.8476 C.ar    1  UNL1        0.0028
     38 C         -71.2841  -55.1429  -21.9443 C.ar    1  UNL1        0.0337
     39 C         -69.2426  -55.3552  -25.1191 C.ar    1  UNL1        0.0000
     40 C         -67.9236  -55.0986  -24.7001 C.ar    1  UNL1        0.0005
     41 C         -66.9036  -54.9197  -25.6393 C.ar    1  UNL1        0.0059
     42 C         -67.1866  -54.9957  -27.0064 C.ar    1  UNL1        0.0215
     43 S         -65.8788  -54.7668  -28.2067 S.3     1  UNL1       -0.1414
     44 C         -68.4930  -55.2500  -27.4340 C.ar    1  UNL1        0.0059
     45 C         -69.5161  -55.4285  -26.4980 C.ar    1  UNL1        0.0005
     46 H         -65.5775  -56.1416  -28.2205 H       1  UNL1        0.1071
@<TRIPOS>BOND
     1    29    30    1
     2    30    31   ar
     3    31    25    1
     4    25    26    2
     5    25    27   am
     6    27     1    1
     7     1     2   ar
     8     2     3   ar
     9     3     4   ar
    10     4     7    1
    11     7     8    1
    12     8     9    1
    13     9    10    1
    14    10    13    1
    15    13    14    1
    16    14    15    1
    17    15    16   ar
    18    16    17   ar
    19    17    18   ar
    20    18    19   ar
    21    19    21    1
    22    21    22    2
    23    21    23    1
    24    19    20   ar
    25    10    11    1
    26    11    12    1
    27     4     5   ar
    28     5     6   ar
    29    31    32   ar
    30    32    33   ar
    31    33    34   ar
    32    34    35   ar
    33    35    36   ar
    34    36    39    1
    35    39    40   ar
    36    40    41   ar
    37    41    42   ar
    38    42    43    1
    39    42    44   ar
    40    44    45   ar
    41    36    37   ar
    42    37    38   ar
    43    38    30   ar
    44     6     1   ar
    45    38    33   ar
    46    12     7    1
    47    45    39   ar
    48    20    15   ar
    49    27    28    1
    50    23    24    1
    51    43    46    1
@<TRIPOS>MOLECULE
*****
 46 51 0 0 0
SMALL
GASTEIGER

@<TRIPOS>ATOM
      1 C         -62.1478  -41.6956  -20.3917 C.ar    1  UNL1        0.0702
      2 C         -62.8523  -42.6381  -21.1498 C.ar    1  UNL1        0.0191
      3 C         -62.1998  -43.7620  -21.6591 C.ar    1  UNL1        0.0356
      4 C         -60.8262  -43.9354  -21.4194 C.ar    1  UNL1        0.1318
      5 N         -60.1558  -42.9845  -20.7102 N.ar    1  UNL1       -0.2279
      6 C         -60.7701  -41.8846  -20.2019 C.ar    1  UNL1        0.1149
      7 N         -60.1224  -45.1015  -21.9003 N.pl3   1  UNL1       -0.2932
      8 C         -58.9600  -44.9683  -22.7953 C.3     1  UNL1        0.0923
      9 C         -58.7921  -46.2121  -23.6885 C.3     1  UNL1        0.0252
     10 C         -60.1602  -46.7846  -24.1229 C.3     1  UNL1        0.0472
     11 C         -61.0137  -47.1862  -22.8867 C.3     1  UNL1        0.0252
     12 C         -60.6150  -46.4512  -21.5960 C.3     1  UNL1        0.0923
     13 C         -60.8887  -45.8041  -25.0709 C.3     1  UNL1        0.2054
     14 O         -62.1767  -46.3022  -25.4445 O.3     1  UNL1       -0.4755
     15 C         -62.7540  -46.2630  -26.7274 C.ar    1  UNL1        0.1388
     16 C         -62.9262  -45.0733  -27.4643 C.ar    1  UNL1        0.0369
     17 C         -63.5087  -45.1087  -28.7324 C.ar    1  UNL1        0.0033
     18 C         -63.9250  -46.3220  -29.2826 C.ar    1  UNL1        0.0066
     19 C         -63.7652  -47.5190  -28.5642 C.ar    1  UNL1        0.0785
     20 C         -63.1790  -47.4754  -27.2867 C.ar    1  UNL1        0.0433
     21 C         -64.2069  -48.8087  -29.1398 C.2     1  UNL1        0.3381
     22 O         -63.7081  -49.8935  -28.7342 O.2     1  UNL1       -0.2451
     23 O         -65.1791  -48.8367  -30.1364 O.3     1  UNL1       -0.4771
     24 H         -65.4884  -49.7142  -30.5372 H       1  UNL1        0.2954
     25 C         -62.6594  -39.2107  -20.4059 C.2     1  UNL1        0.2839
     26 O         -61.7059  -38.9561  -21.1901 O.2     1  UNL1       -0.2665
     27 N         -62.8297  -40.5374  -19.8810 N.am    1  UNL1       -0.2766
     28 H         -63.4146  -40.6549  -19.0227 H       1  UNL1        0.1553
     29 C         -65.8592  -39.2454  -20.5796 C.3     1  UNL1        0.0345
     30 C         -64.9781  -38.1467  -20.0661 C.ar    1  UNL1        0.0202
     31 C         -63.5807  -38.1352  -19.9927 C.ar    1  UNL1        0.1946
     32 O         -63.1642  -36.9907  -19.4805 O.2     1  UNL1       -0.4492
     33 C         -64.2195  -36.2588  -19.2186 C.ar    1  UNL1        0.1452
     34 C         -64.2456  -34.9816  -18.6701 C.ar    1  UNL1        0.0375
     35 C         -65.4975  -34.3747  -18.4695 C.ar    1  UNL1        0.0031
     36 C         -66.6985  -35.0495  -18.8185 C.ar    1  UNL1        0.0002
     37 C         -66.6276  -36.3491  -19.3751 C.ar    1  UNL1        0.0028
     38 C         -65.3680  -36.9212  -19.5605 C.ar    1  UNL1        0.0337
     39 C         -68.0154  -34.3984  -18.6019 C.ar    1  UNL1        0.0000
     40 C         -69.1550  -34.8385  -19.3010 C.ar    1  UNL1        0.0005
     41 C         -70.3936  -34.2234  -19.0963 C.ar    1  UNL1        0.0059
     42 C         -70.5105  -33.1637  -18.1918 C.ar    1  UNL1        0.0215
     43 S         -72.0976  -32.3783  -17.9312 S.3     1  UNL1       -0.1414
     44 C         -69.3853  -32.7183  -17.4918 C.ar    1  UNL1        0.0059
     45 C         -68.1447  -33.3301  -17.6944 C.ar    1  UNL1        0.0005
     46 H         -72.4269  -33.2670  -16.8906 H       1  UNL1        0.1071
@<TRIPOS>BOND
     1    29    30    1
     2    30    31   ar
     3    31    25    1
     4    25    26    2
     5    25    27   am
     6    27     1    1
     7     1     2   ar
     8     2     3   ar
     9     3     4   ar
    10     4     7    1
    11     7     8    1
    12     8     9    1
    13     9    10    1
    14    10    13    1
    15    13    14    1
    16    14    15    1
    17    15    16   ar
    18    16    17   ar
    19    17    18   ar
    20    18    19   ar
    21    19    21    1
    22    21    22    2
    23    21    23    1
    24    19    20   ar
    25    10    11    1
    26    11    12    1
    27     4     5   ar
    28     5     6   ar
    29    31    32   ar
    30    32    33   ar
    31    33    34   ar
    32    34    35   ar
    33    35    36   ar
    34    36    39    1
    35    39    40   ar
    36    40    41   ar
    37    41    42   ar
    38    42    43    1
    39    42    44   ar
    40    44    45   ar
    41    36    37   ar
    42    37    38   ar
    43    38    30   ar
    44     6     1   ar
    45    38    33   ar
    46    12     7    1
    47    45    39   ar
    48    20    15   ar
    49    27    28    1
    50    23    24    1
    51    43    46    1
