@<TRIPOS>MOLECULE
*****
 41 45 0 0 0
SMALL
GASTEIGER

@<TRIPOS>ATOM
      1 C           9.6251   79.6430   27.9061 C.3     1  UNL1        0.2392
      2 O           8.6246   78.7198   28.3494 O.3     1  UNL1       -0.4694
      3 C           7.8536   77.9858   27.4444 C.ar    1  UNL1        0.1723
      4 C           6.7040   77.3148   27.8667 C.ar    1  UNL1        0.0398
      5 C           5.9275   76.6115   26.9401 C.ar    1  UNL1        0.0026
      6 C           6.3041   76.5645   25.5842 C.ar    1  UNL1        0.0233
      7 C           7.4657   77.2408   25.1704 C.ar    1  UNL1        0.0393
      8 C           8.2452   77.9310   26.1027 C.ar    1  UNL1        0.1725
      9 O           9.4208   78.5755   25.7107 O.3     1  UNL1       -0.4679
     10 C          10.3674   79.0563   26.6712 C.3     1  UNL1        0.2305
     11 C           5.4468   75.8386   24.5746 C.3     1  UNL1        0.2223
     12 O           4.4546   76.7264   24.0563 O.3     1  UNL1       -0.4715
     13 C           3.6994   76.4113   22.9217 C.ar    1  UNL1        0.1478
     14 C           2.5393   77.1381   22.6514 C.ar    1  UNL1        0.0745
     15 C           1.7514   76.8332   21.5281 C.ar    1  UNL1        0.1500
     16 C           2.1376   75.7814   20.6829 C.ar    1  UNL1        0.0981
     17 I           0.9669   75.3410   18.9670 I       1  UNL1       -0.0362
     18 C           3.3040   75.0420   20.9514 C.ar    1  UNL1        0.1526
     19 C           4.1105   75.3784   22.0613 C.ar    1  UNL1        0.1057
     20 C           5.4133   74.7203   22.3419 C.2     1  UNL1        0.2095
     21 O           5.8258   73.7697   21.6238 O.2     1  UNL1       -0.2884
     22 C           6.3050   75.2630   23.4328 C.3     1  UNL1        0.2169
     23 O           7.1296   74.2444   23.9405 O.3     1  UNL1       -0.3739
     24 H           7.9050   74.1669   23.3250 H       1  UNL1        0.2110
     25 O           0.5831   77.5500   21.2236 O.3     1  UNL1       -0.4708
     26 C           0.3170   78.8812   21.6532 C.3     1  UNL1        0.2525
     27 O           3.6605   73.9902   20.1046 O.3     1  UNL1       -0.4707
     28 C           4.5548   74.1884   19.0160 C.3     1  UNL1        0.2525
     29 C          11.2662   80.0737   26.0064 C.ar    1  UNL1        0.0241
     30 C          10.8355   81.3981   25.8401 C.ar    1  UNL1        0.0026
     31 C          11.6744   82.3462   25.2534 C.ar    1  UNL1        0.0398
     32 C          12.9645   81.9863   24.8216 C.ar    1  UNL1        0.1724
     33 C          13.4052   80.6637   24.9826 C.ar    1  UNL1        0.1722
     34 C          12.5516   79.7114   25.5732 C.ar    1  UNL1        0.0393
     35 O          13.8376   82.9133   24.2302 O.3     1  UNL1       -0.4684
     36 C          13.6380   84.3231   24.2308 C.3     1  UNL1        0.2526
     37 O          14.6986   80.3352   24.5457 O.3     1  UNL1       -0.4684
     38 C          15.2442   79.0200   24.5548 C.3     1  UNL1        0.2526
     39 C          10.5673   79.9430   29.0863 C.3     1  UNL1        0.1897
     40 C           9.4532   80.4406   31.0646 C.3     1  UNL1        0.1743
     41 O          10.0625   79.4222   30.3023 O.3     1  UNL1       -0.3471
@<TRIPOS>BOND
     1    40    41    1
     2    41    39    1
     3    39     1    1
     4     1     2    1
     5     2     3    1
     6     3     4   ar
     7     4     5   ar
     8     5     6   ar
     9     6    11    1
    10    11    12    1
    11    12    13    1
    12    13    14   ar
    13    14    15   ar
    14    15    25    1
    15    25    26    1
    16    15    16   ar
    17    16    17    1
    18    16    18   ar
    19    18    27    1
    20    27    28    1
    21    18    19   ar
    22    19    20    1
    23    20    21    2
    24    20    22    1
    25    22    23    1
    26     6     7   ar
    27     7     8   ar
    28     8     9    1
    29     9    10    1
    30    10    29    1
    31    29    30   ar
    32    30    31   ar
    33    31    32   ar
    34    32    35    1
    35    35    36    1
    36    32    33   ar
    37    33    37    1
    38    37    38    1
    39    33    34   ar
    40    10     1    1
    41    34    29   ar
    42     8     3   ar
    43    22    11    1
    44    19    13   ar
    45    23    24    1
@<TRIPOS>MOLECULE
*****
 41 45 0 0 0
SMALL
GASTEIGER

@<TRIPOS>ATOM
      1 C           9.9491   75.7577   28.0068 C.3     1  UNL1        0.2392
      2 O          10.0918   74.9647   26.8234 O.3     1  UNL1       -0.4694
      3 C           9.5872   75.3904   25.5919 C.ar    1  UNL1        0.1723
      4 C           9.4761   74.5014   24.5207 C.ar    1  UNL1        0.0398
      5 C           8.9390   74.9380   23.3054 C.ar    1  UNL1        0.0026
      6 C           8.5203   76.2733   23.1499 C.ar    1  UNL1        0.0233
      7 C           8.6400   77.1611   24.2341 C.ar    1  UNL1        0.0393
      8 C           9.1897   76.7231   25.4419 C.ar    1  UNL1        0.1725
      9 O           9.3481   77.6046   26.5139 O.3     1  UNL1       -0.4679
     10 C          10.1412   77.2609   27.6552 C.3     1  UNL1        0.2305
     11 C           7.9040   76.7378   21.8516 C.3     1  UNL1        0.2223
     12 O           6.6928   76.0201   21.6080 O.3     1  UNL1       -0.4715
     13 C           5.7782   76.4224   20.6290 C.ar    1  UNL1        0.1478
     14 C           4.7948   75.5274   20.2057 C.ar    1  UNL1        0.0745
     15 C           3.8727   75.8977   19.2116 C.ar    1  UNL1        0.1500
     16 C           3.9558   77.1765   18.6394 C.ar    1  UNL1        0.0981
     17 I           2.5429   77.7497   17.1615 I       1  UNL1       -0.0362
     18 C           4.9469   78.0827   19.0586 C.ar    1  UNL1        0.1526
     19 C           5.8467   77.7165   20.0842 C.ar    1  UNL1        0.1057
     20 C           6.8429   78.6581   20.6587 C.2     1  UNL1        0.2095
     21 O           6.9725   79.8240   20.1967 O.2     1  UNL1       -0.2884
     22 C           7.6366   78.2541   21.8779 C.3     1  UNL1        0.2169
     23 O           8.8624   78.9408   21.9114 O.3     1  UNL1       -0.3739
     24 H           8.6825   79.8339   22.3064 H       1  UNL1        0.2110
     25 O           2.8666   75.0239   18.7692 O.3     1  UNL1       -0.4708
     26 C           1.6614   74.7546   19.4779 C.3     1  UNL1        0.2525
     27 O           5.0195   79.3445   18.4643 O.3     1  UNL1       -0.4707
     28 C           5.8762   79.5910   17.3556 C.3     1  UNL1        0.2525
     29 C           9.7671   78.1701   28.8034 C.ar    1  UNL1        0.0241
     30 C          10.4018   79.4111   28.9603 C.ar    1  UNL1        0.0026
     31 C          10.0377   80.2650   30.0019 C.ar    1  UNL1        0.0398
     32 C           9.0279   79.8928   30.9087 C.ar    1  UNL1        0.1724
     33 C           8.3869   78.6531   30.7614 C.ar    1  UNL1        0.1722
     34 C           8.7618   77.7951   29.7089 C.ar    1  UNL1        0.0393
     35 O           8.6327   80.7268   31.9667 O.3     1  UNL1       -0.4684
     36 C           9.0368   82.0837   32.1182 C.3     1  UNL1        0.2526
     37 O           7.3806   78.3109   31.6789 O.3     1  UNL1       -0.4684
     38 C           6.4010   77.3002   31.4631 C.3     1  UNL1        0.2526
     39 C          10.9573   75.2527   29.0552 C.3     1  UNL1        0.1897
     40 C           9.0521   74.0782   29.6822 C.3     1  UNL1        0.1743
     41 O          10.4595   74.1297   29.7593 O.3     1  UNL1       -0.3471
@<TRIPOS>BOND
     1    40    41    1
     2    41    39    1
     3    39     1    1
     4     1     2    1
     5     2     3    1
     6     3     4   ar
     7     4     5   ar
     8     5     6   ar
     9     6    11    1
    10    11    12    1
    11    12    13    1
    12    13    14   ar
    13    14    15   ar
    14    15    25    1
    15    25    26    1
    16    15    16   ar
    17    16    17    1
    18    16    18   ar
    19    18    27    1
    20    27    28    1
    21    18    19   ar
    22    19    20    1
    23    20    21    2
    24    20    22    1
    25    22    23    1
    26     6     7   ar
    27     7     8   ar
    28     8     9    1
    29     9    10    1
    30    10    29    1
    31    29    30   ar
    32    30    31   ar
    33    31    32   ar
    34    32    35    1
    35    35    36    1
    36    32    33   ar
    37    33    37    1
    38    37    38    1
    39    33    34   ar
    40    10     1    1
    41    34    29   ar
    42     8     3   ar
    43    22    11    1
    44    19    13   ar
    45    23    24    1
@<TRIPOS>MOLECULE
*****
 41 45 0 0 0
SMALL
GASTEIGER

@<TRIPOS>ATOM
      1 C          14.7229   87.7172   24.0499 C.3     1  UNL1        0.2392
      2 O          14.8126   86.9228   25.2376 O.3     1  UNL1       -0.4694
      3 C          14.3483   85.6055   25.2738 C.ar    1  UNL1        0.1723
      4 C          14.1770   84.9427   26.4910 C.ar    1  UNL1        0.0398
      5 C          13.6810   83.6351   26.5088 C.ar    1  UNL1        0.0026
      6 C          13.3644   82.9764   25.3053 C.ar    1  UNL1        0.0233
      7 C          13.5442   83.6519   24.0850 C.ar    1  UNL1        0.0393
      8 C          14.0526   84.9536   24.0721 C.ar    1  UNL1        0.1725
      9 O          14.2705   85.6215   22.8647 O.3     1  UNL1       -0.4679
     10 C          15.0291   86.8343   22.8061 C.3     1  UNL1        0.2305
     11 C          12.7921   81.5788   25.3234 C.3     1  UNL1        0.2223
     12 O          11.7106   81.4878   24.3942 O.3     1  UNL1       -0.4715
     13 C          11.1706   80.2575   24.0050 C.ar    1  UNL1        0.1478
     14 C           9.9288   80.2284   23.3691 C.ar    1  UNL1        0.0745
     15 C           9.3536   79.0059   22.9818 C.ar    1  UNL1        0.1500
     16 C          10.0368   77.8096   23.2495 C.ar    1  UNL1        0.0981
     17 I           9.1851   75.9640   22.6351 I       1  UNL1       -0.0362
     18 C          11.2875   77.8310   23.8935 C.ar    1  UNL1        0.1526
     19 C          11.8761   79.0658   24.2464 C.ar    1  UNL1        0.1057
     20 C          13.2419   79.1739   24.8226 C.2     1  UNL1        0.2095
     21 O          13.9158   78.1418   25.0873 O.2     1  UNL1       -0.2884
     22 C          13.8747   80.5339   24.9951 C.3     1  UNL1        0.2169
     23 O          14.8203   80.5035   26.0344 O.3     1  UNL1       -0.3739
     24 H          15.6620   80.1446   25.6486 H       1  UNL1        0.2110
     25 O           8.1097   78.9426   22.3334 O.3     1  UNL1       -0.4708
     26 C           7.8935   79.2763   20.9662 C.3     1  UNL1        0.2525
     27 O          11.9421   76.6271   24.1628 O.3     1  UNL1       -0.4707
     28 C          12.5583   75.8728   23.1257 C.3     1  UNL1        0.2525
     29 C          14.7177   87.5446   21.5086 C.ar    1  UNL1        0.0241
     30 C          15.6993   88.3169   20.8704 C.ar    1  UNL1        0.0026
     31 C          15.4236   88.9496   19.6578 C.ar    1  UNL1        0.0398
     32 C          14.1571   88.8202   19.0582 C.ar    1  UNL1        0.1724
     33 C          13.1674   88.0504   19.6886 C.ar    1  UNL1        0.1722
     34 C          13.4522   87.4169   20.9141 C.ar    1  UNL1        0.0393
     35 O          13.8442   89.4392   17.8375 O.3     1  UNL1       -0.4684
     36 C          14.1383   88.8909   16.5567 C.3     1  UNL1        0.2526
     37 O          11.9147   87.9364   19.0646 O.3     1  UNL1       -0.4684
     38 C          10.9245   88.9597   19.0488 C.3     1  UNL1        0.2526
     39 C          15.6845   88.9115   24.1898 C.3     1  UNL1        0.1897
     40 C          18.0019   88.8371   24.3522 C.3     1  UNL1        0.1743
     41 O          16.7849   88.6005   25.0247 O.3     1  UNL1       -0.3471
@<TRIPOS>BOND
     1    40    41    1
     2    41    39    1
     3    39     1    1
     4     1     2    1
     5     2     3    1
     6     3     4   ar
     7     4     5   ar
     8     5     6   ar
     9     6    11    1
    10    11    12    1
    11    12    13    1
    12    13    14   ar
    13    14    15   ar
    14    15    25    1
    15    25    26    1
    16    15    16   ar
    17    16    17    1
    18    16    18   ar
    19    18    27    1
    20    27    28    1
    21    18    19   ar
    22    19    20    1
    23    20    21    2
    24    20    22    1
    25    22    23    1
    26     6     7   ar
    27     7     8   ar
    28     8     9    1
    29     9    10    1
    30    10    29    1
    31    29    30   ar
    32    30    31   ar
    33    31    32   ar
    34    32    35    1
    35    35    36    1
    36    32    33   ar
    37    33    37    1
    38    37    38    1
    39    33    34   ar
    40    10     1    1
    41    34    29   ar
    42     8     3   ar
    43    22    11    1
    44    19    13   ar
    45    23    24    1
@<TRIPOS>MOLECULE
*****
 41 45 0 0 0
SMALL
GASTEIGER

@<TRIPOS>ATOM
      1 C          14.0202   87.6450   23.7710 C.3     1  UNL1        0.2392
      2 O          14.4593   86.9561   24.9468 O.3     1  UNL1       -0.4694
      3 C          14.1552   85.6095   25.1625 C.ar    1  UNL1        0.1723
      4 C          14.3345   85.0303   26.4204 C.ar    1  UNL1        0.0398
      5 C          13.9945   83.6891   26.6251 C.ar    1  UNL1        0.0026
      6 C          13.4836   82.9138   25.5667 C.ar    1  UNL1        0.0233
      7 C          13.3104   83.5061   24.3029 C.ar    1  UNL1        0.0393
      8 C          13.6642   84.8428   24.1004 C.ar    1  UNL1        0.1725
      9 O          13.5317   85.4321   22.8409 O.3     1  UNL1       -0.4679
     10 C          14.1266   86.6992   22.5405 C.3     1  UNL1        0.2305
     11 C          13.0791   81.4765   25.7943 C.3     1  UNL1        0.2223
     12 O          11.6605   81.3916   25.9415 O.3     1  UNL1       -0.4715
     13 C          10.9835   80.1683   25.8958 C.ar    1  UNL1        0.1478
     14 C           9.6714   80.0972   26.3655 C.ar    1  UNL1        0.0745
     15 C           8.9719   78.8782   26.3477 C.ar    1  UNL1        0.1500
     16 C           9.6098   77.7270   25.8605 C.ar    1  UNL1        0.0981
     17 I           8.5434   75.8916   25.8016 I       1  UNL1       -0.0362
     18 C          10.9337   77.7905   25.3887 C.ar    1  UNL1        0.1526
     19 C          11.6174   79.0266   25.3754 C.ar    1  UNL1        0.1057
     20 C          12.9719   79.1939   24.7868 C.2     1  UNL1        0.2095
     21 O          13.6045   78.2047   24.3278 O.2     1  UNL1       -0.2884
     22 C          13.5562   80.5782   24.6380 C.3     1  UNL1        0.2169
     23 O          14.9603   80.5183   24.6461 O.3     1  UNL1       -0.3739
     24 H          15.2447   80.2833   23.7242 H       1  UNL1        0.2110
     25 O           7.6486   78.7745   26.8056 O.3     1  UNL1       -0.4708
     26 C           7.2581   78.8556   28.1725 C.3     1  UNL1        0.2525
     27 O          11.5531   76.6289   24.9223 O.3     1  UNL1       -0.4707
     28 C          11.3171   76.1431   23.6060 C.3     1  UNL1        0.2525
     29 C          13.4566   87.2765   21.3146 C.ar    1  UNL1        0.0241
     30 C          12.0990   87.6273   21.3481 C.ar    1  UNL1        0.0026
     31 C          11.4855   88.1877   20.2272 C.ar    1  UNL1        0.0398
     32 C          12.2211   88.4095   19.0483 C.ar    1  UNL1        0.1724
     33 C          13.5800   88.0616   19.0037 C.ar    1  UNL1        0.1722
     34 C          14.1918   87.4936   20.1383 C.ar    1  UNL1        0.0393
     35 O          11.6390   88.9741   17.9022 O.3     1  UNL1       -0.4684
     36 C          10.3189   89.5050   17.8464 C.3     1  UNL1        0.2526
     37 O          14.2890   88.2983   17.8150 O.3     1  UNL1       -0.4684
     38 C          14.3705   87.3826   16.7275 C.3     1  UNL1        0.2526
     39 C          14.8587   88.9272   23.6170 C.3     1  UNL1        0.1897
     40 C          17.1301   88.9921   23.1285 C.3     1  UNL1        0.1743
     41 O          16.1668   88.7603   24.1323 O.3     1  UNL1       -0.3471
@<TRIPOS>BOND
     1    40    41    1
     2    41    39    1
     3    39     1    1
     4     1     2    1
     5     2     3    1
     6     3     4   ar
     7     4     5   ar
     8     5     6   ar
     9     6    11    1
    10    11    12    1
    11    12    13    1
    12    13    14   ar
    13    14    15   ar
    14    15    25    1
    15    25    26    1
    16    15    16   ar
    17    16    17    1
    18    16    18   ar
    19    18    27    1
    20    27    28    1
    21    18    19   ar
    22    19    20    1
    23    20    21    2
    24    20    22    1
    25    22    23    1
    26     6     7   ar
    27     7     8   ar
    28     8     9    1
    29     9    10    1
    30    10    29    1
    31    29    30   ar
    32    30    31   ar
    33    31    32   ar
    34    32    35    1
    35    35    36    1
    36    32    33   ar
    37    33    37    1
    38    37    38    1
    39    33    34   ar
    40    10     1    1
    41    34    29   ar
    42     8     3   ar
    43    22    11    1
    44    19    13   ar
    45    23    24    1
@<TRIPOS>MOLECULE
*****
 41 45 0 0 0
SMALL
GASTEIGER

@<TRIPOS>ATOM
      1 C           7.3647   74.7024   29.1282 C.3     1  UNL1        0.2392
      2 O           7.0586   73.6835   28.1702 O.3     1  UNL1       -0.4694
      3 C           6.8989   73.9784   26.8138 C.ar    1  UNL1        0.1723
      4 C           6.3270   73.0477   25.9439 C.ar    1  UNL1        0.0398
      5 C           6.1462   73.3732   24.5957 C.ar    1  UNL1        0.0026
      6 C           6.5490   74.6302   24.1057 C.ar    1  UNL1        0.0233
      7 C           7.1272   75.5587   24.9897 C.ar    1  UNL1        0.0393
      8 C           7.3177   75.2235   26.3330 C.ar    1  UNL1        0.1725
      9 O           7.9246   76.1229   27.2127 O.3     1  UNL1       -0.4679
     10 C           8.3708   75.7155   28.5106 C.3     1  UNL1        0.2305
     11 C           6.3195   74.9991   22.6591 C.3     1  UNL1        0.2223
     12 O           4.9187   75.1292   22.4103 O.3     1  UNL1       -0.4715
     13 C           4.4261   75.7186   21.2412 C.ar    1  UNL1        0.1478
     14 C           3.0879   75.5295   20.8938 C.ar    1  UNL1        0.0745
     15 C           2.5692   76.0955   19.7164 C.ar    1  UNL1        0.1500
     16 C           3.4141   76.8472   18.8852 C.ar    1  UNL1        0.0981
     17 I           2.6242   77.7310   17.1234 I       1  UNL1       -0.0362
     18 C           4.7652   77.0390   19.2274 C.ar    1  UNL1        0.1526
     19 C           5.2699   76.4981   20.4309 C.ar    1  UNL1        0.1057
     20 C           6.6514   76.7554   20.9150 C.2     1  UNL1        0.2095
     21 O           7.4654   77.4243   20.2227 O.2     1  UNL1       -0.2884
     22 C           7.0550   76.3029   22.2978 C.3     1  UNL1        0.2169
     23 O           8.4421   76.0838   22.3537 O.3     1  UNL1       -0.3739
     24 H           8.8684   76.9682   22.5027 H       1  UNL1        0.2110
     25 O           1.2260   75.9307   19.3423 O.3     1  UNL1       -0.4708
     26 C           0.6122   74.6759   19.0666 C.3     1  UNL1        0.2525
     27 O           5.5907   77.7783   18.3774 O.3     1  UNL1       -0.4707
     28 C           5.6277   79.1994   18.4351 C.3     1  UNL1        0.2525
     29 C           8.5507   76.9430   29.3743 C.ar    1  UNL1        0.0241
     30 C           9.7496   77.6697   29.3318 C.ar    1  UNL1        0.0026
     31 C           9.9074   78.8198   30.1059 C.ar    1  UNL1        0.0398
     32 C           8.8650   79.2666   30.9391 C.ar    1  UNL1        0.1724
     33 C           7.6614   78.5466   30.9898 C.ar    1  UNL1        0.1722
     34 C           7.5106   77.3849   30.2074 C.ar    1  UNL1        0.0393
     35 O           8.9859   80.4206   31.7295 O.3     1  UNL1       -0.4684
     36 C           9.1918   81.7323   31.2152 C.3     1  UNL1        0.2526
     37 O           6.6381   79.0188   31.8272 O.3     1  UNL1       -0.4684
     38 C           5.2714   78.6311   31.7293 C.3     1  UNL1        0.2526
     39 C           7.9003   74.0259   30.4034 C.3     1  UNL1        0.1897
     40 C           9.6191   72.7843   31.3555 C.3     1  UNL1        0.1743
     41 O           9.1428   73.3874   30.1728 O.3     1  UNL1       -0.3471
@<TRIPOS>BOND
     1    40    41    1
     2    41    39    1
     3    39     1    1
     4     1     2    1
     5     2     3    1
     6     3     4   ar
     7     4     5   ar
     8     5     6   ar
     9     6    11    1
    10    11    12    1
    11    12    13    1
    12    13    14   ar
    13    14    15   ar
    14    15    25    1
    15    25    26    1
    16    15    16   ar
    17    16    17    1
    18    16    18   ar
    19    18    27    1
    20    27    28    1
    21    18    19   ar
    22    19    20    1
    23    20    21    2
    24    20    22    1
    25    22    23    1
    26     6     7   ar
    27     7     8   ar
    28     8     9    1
    29     9    10    1
    30    10    29    1
    31    29    30   ar
    32    30    31   ar
    33    31    32   ar
    34    32    35    1
    35    35    36    1
    36    32    33   ar
    37    33    37    1
    38    37    38    1
    39    33    34   ar
    40    10     1    1
    41    34    29   ar
    42     8     3   ar
    43    22    11    1
    44    19    13   ar
    45    23    24    1
@<TRIPOS>MOLECULE
*****
 41 45 0 0 0
SMALL
GASTEIGER

@<TRIPOS>ATOM
      1 C          13.8923   79.8567   25.3373 C.3     1  UNL1        0.2392
      2 O          13.3954   78.6093   24.8407 O.3     1  UNL1       -0.4694
      3 C          12.0481   78.4365   24.5129 C.ar    1  UNL1        0.1723
      4 C          11.5222   77.1594   24.3070 C.ar    1  UNL1        0.0398
      5 C          10.1641   77.0043   24.0111 C.ar    1  UNL1        0.0026
      6 C           9.3243   78.1296   23.9066 C.ar    1  UNL1        0.0233
      7 C           9.8651   79.4115   24.1123 C.ar    1  UNL1        0.0393
      8 C          11.2255   79.5617   24.3946 C.ar    1  UNL1        0.1725
      9 O          11.7821   80.8316   24.5643 O.3     1  UNL1       -0.4679
     10 C          13.1996   81.0310   24.5880 C.3     1  UNL1        0.2305
     11 C           7.8497   77.9630   23.6256 C.3     1  UNL1        0.2223
     12 O           7.6550   77.6275   22.2505 O.3     1  UNL1       -0.4715
     13 C           6.4290   77.1554   21.7701 C.ar    1  UNL1        0.1478
     14 C           6.1890   77.1569   20.3955 C.ar    1  UNL1        0.0745
     15 C           4.9602   76.7042   19.8848 C.ar    1  UNL1        0.1500
     16 C           3.9695   76.2580   20.7731 C.ar    1  UNL1        0.0981
     17 I           2.1251   75.5423   20.0016 I       1  UNL1       -0.0362
     18 C           4.2031   76.2571   22.1604 C.ar    1  UNL1        0.1526
     19 C           5.4540   76.6787   22.6636 C.ar    1  UNL1        0.1057
     20 C           5.8144   76.5968   24.1032 C.2     1  UNL1        0.2095
     21 O           4.9761   76.2032   24.9586 O.2     1  UNL1       -0.2884
     22 C           7.2317   76.8858   24.5363 C.3     1  UNL1        0.2169
     23 O           7.2527   77.3362   25.8675 O.3     1  UNL1       -0.3739
     24 H           7.2249   76.5294   26.4458 H       1  UNL1        0.2110
     25 O           4.6901   76.6854   18.5071 O.3     1  UNL1       -0.4708
     26 C           4.5392   77.8470   17.6975 C.3     1  UNL1        0.2525
     27 O           3.1970   75.8225   23.0261 O.3     1  UNL1       -0.4707
     28 C           2.3075   76.7432   23.6468 C.3     1  UNL1        0.2525
     29 C          13.4953   82.3702   25.2239 C.ar    1  UNL1        0.0241
     30 C          13.7044   82.4668   26.6074 C.ar    1  UNL1        0.0026
     31 C          14.0066   83.6967   27.1928 C.ar    1  UNL1        0.0398
     32 C          14.1067   84.8568   26.4025 C.ar    1  UNL1        0.1724
     33 C          13.8987   84.7715   25.0172 C.ar    1  UNL1        0.1722
     34 C          13.5912   83.5267   24.4337 C.ar    1  UNL1        0.0393
     35 O          14.4122   86.1106   26.9554 O.3     1  UNL1       -0.4684
     36 C          14.3571   86.4140   28.3455 C.3     1  UNL1        0.2526
     37 O          14.0091   85.9449   24.2540 O.3     1  UNL1       -0.4684
     38 C          12.9539   86.5074   23.4808 C.3     1  UNL1        0.2526
     39 C          15.4242   79.8663   25.1826 C.3     1  UNL1        0.1897
     40 C          15.9890   78.6050   23.3138 C.3     1  UNL1        0.1743
     41 O          15.8109   79.9089   23.8212 O.3     1  UNL1       -0.3471
@<TRIPOS>BOND
     1    40    41    1
     2    41    39    1
     3    39     1    1
     4     1     2    1
     5     2     3    1
     6     3     4   ar
     7     4     5   ar
     8     5     6   ar
     9     6    11    1
    10    11    12    1
    11    12    13    1
    12    13    14   ar
    13    14    15   ar
    14    15    25    1
    15    25    26    1
    16    15    16   ar
    17    16    17    1
    18    16    18   ar
    19    18    27    1
    20    27    28    1
    21    18    19   ar
    22    19    20    1
    23    20    21    2
    24    20    22    1
    25    22    23    1
    26     6     7   ar
    27     7     8   ar
    28     8     9    1
    29     9    10    1
    30    10    29    1
    31    29    30   ar
    32    30    31   ar
    33    31    32   ar
    34    32    35    1
    35    35    36    1
    36    32    33   ar
    37    33    37    1
    38    37    38    1
    39    33    34   ar
    40    10     1    1
    41    34    29   ar
    42     8     3   ar
    43    22    11    1
    44    19    13   ar
    45    23    24    1
@<TRIPOS>MOLECULE
*****
 41 45 0 0 0
SMALL
GASTEIGER

@<TRIPOS>ATOM
      1 C          11.3511   76.6769   24.0563 C.3     1  UNL1        0.2392
      2 O          12.5471   77.0341   24.7574 O.3     1  UNL1       -0.4694
      3 C          12.9589   78.3644   24.8716 C.ar    1  UNL1        0.1723
      4 C          14.2511   78.6770   25.2989 C.ar    1  UNL1        0.0398
      5 C          14.6554   80.0137   25.3765 C.ar    1  UNL1        0.0026
      6 C          13.7630   81.0490   25.0384 C.ar    1  UNL1        0.0233
      7 C          12.4627   80.7231   24.6129 C.ar    1  UNL1        0.0393
      8 C          12.0597   79.3865   24.5498 C.ar    1  UNL1        0.1725
      9 O          10.7595   79.0517   24.1643 O.3     1  UNL1       -0.4679
     10 C          10.2420   77.7291   24.3447 C.3     1  UNL1        0.2305
     11 C          14.2087   82.4913   25.0839 C.3     1  UNL1        0.2223
     12 O          13.6702   83.1987   23.9655 O.3     1  UNL1       -0.4715
     13 C          13.6933   84.5955   23.8922 C.ar    1  UNL1        0.1478
     14 C          13.4651   85.2177   22.6642 C.ar    1  UNL1        0.0745
     15 C          13.4988   86.6187   22.5566 C.ar    1  UNL1        0.1500
     16 C          13.7743   87.3890   23.6970 C.ar    1  UNL1        0.0981
     17 I          13.7924   89.5068   23.5435 I       1  UNL1       -0.0362
     18 C          14.0089   86.7684   24.9375 C.ar    1  UNL1        0.1526
     19 C          13.9368   85.3617   25.0454 C.ar    1  UNL1        0.1057
     20 C          14.0579   84.6438   26.3412 C.2     1  UNL1        0.2095
     21 O          14.3026   85.2705   27.4075 O.2     1  UNL1       -0.2884
     22 C          13.7803   83.1610   26.4029 C.3     1  UNL1        0.2169
     23 O          14.4844   82.5769   27.4697 O.3     1  UNL1       -0.3739
     24 H          13.9440   82.7270   28.2891 H       1  UNL1        0.2110
     25 O          13.2659   87.2758   21.3378 O.3     1  UNL1       -0.4708
     26 C          12.0246   87.2683   20.6402 C.3     1  UNL1        0.2525
     27 O          14.2956   87.5547   26.0556 O.3     1  UNL1       -0.4707
     28 C          15.6017   88.0727   26.2794 C.3     1  UNL1        0.2525
     29 C           9.0355   77.5491   23.4518 C.ar    1  UNL1        0.0241
     30 C           7.8524   76.9954   23.9626 C.ar    1  UNL1        0.0026
     31 C           6.7280   76.8555   23.1484 C.ar    1  UNL1        0.0398
     32 C           6.7658   77.2691   21.8038 C.ar    1  UNL1        0.1724
     33 C           7.9448   77.8237   21.2823 C.ar    1  UNL1        0.1722
     34 C           9.0768   77.9593   22.1097 C.ar    1  UNL1        0.0393
     35 O           5.6537   77.1470   20.9555 O.3     1  UNL1       -0.4684
     36 C           5.1833   75.9168   20.4145 C.3     1  UNL1        0.2526
     37 O           7.9512   78.2308   19.9385 O.3     1  UNL1       -0.4684
     38 C           7.6324   79.5446   19.4914 C.3     1  UNL1        0.2526
     39 C          10.9492   75.2508   24.4751 C.3     1  UNL1        0.1897
     40 C          11.2768   74.3376   22.3630 C.3     1  UNL1        0.1743
     41 O          10.3496   74.5424   23.4059 O.3     1  UNL1       -0.3471
@<TRIPOS>BOND
     1    40    41    1
     2    41    39    1
     3    39     1    1
     4     1     2    1
     5     2     3    1
     6     3     4   ar
     7     4     5   ar
     8     5     6   ar
     9     6    11    1
    10    11    12    1
    11    12    13    1
    12    13    14   ar
    13    14    15   ar
    14    15    25    1
    15    25    26    1
    16    15    16   ar
    17    16    17    1
    18    16    18   ar
    19    18    27    1
    20    27    28    1
    21    18    19   ar
    22    19    20    1
    23    20    21    2
    24    20    22    1
    25    22    23    1
    26     6     7   ar
    27     7     8   ar
    28     8     9    1
    29     9    10    1
    30    10    29    1
    31    29    30   ar
    32    30    31   ar
    33    31    32   ar
    34    32    35    1
    35    35    36    1
    36    32    33   ar
    37    33    37    1
    38    37    38    1
    39    33    34   ar
    40    10     1    1
    41    34    29   ar
    42     8     3   ar
    43    22    11    1
    44    19    13   ar
    45    23    24    1
@<TRIPOS>MOLECULE
*****
 41 45 0 0 0
SMALL
GASTEIGER

@<TRIPOS>ATOM
      1 C           6.7229   79.0615   19.9057 C.3     1  UNL1        0.2392
      2 O           7.9548   79.4524   20.5216 O.3     1  UNL1       -0.4694
      3 C           8.3175   78.9918   21.7898 C.ar    1  UNL1        0.1723
      4 C           9.3632   79.5917   22.4946 C.ar    1  UNL1        0.0398
      5 C           9.6909   79.1374   23.7761 C.ar    1  UNL1        0.0026
      6 C           8.9810   78.0691   24.3569 C.ar    1  UNL1        0.0233
      7 C           7.9320   77.4697   23.6368 C.ar    1  UNL1        0.0393
      8 C           7.6174   77.9188   22.3514 C.ar    1  UNL1        0.1725
      9 O           6.6024   77.3075   21.6116 O.3     1  UNL1       -0.4679
     10 C           6.4373   77.5634   20.2127 C.3     1  UNL1        0.2305
     11 C           9.3068   77.6019   25.7557 C.3     1  UNL1        0.2223
     12 O           8.3560   76.6194   26.1704 O.3     1  UNL1       -0.4715
     13 C           8.5605   75.8226   27.3018 C.ar    1  UNL1        0.1478
     14 C           7.4824   75.1260   27.8492 C.ar    1  UNL1        0.0745
     15 C           7.6542   74.3310   28.9955 C.ar    1  UNL1        0.1500
     16 C           8.9217   74.2510   29.5927 C.ar    1  UNL1        0.0981
     17 I           9.1906   73.0239   31.3047 I       1  UNL1       -0.0362
     18 C          10.0124   74.9534   29.0484 C.ar    1  UNL1        0.1526
     19 C           9.8402   75.7207   27.8749 C.ar    1  UNL1        0.1057
     20 C          10.9669   76.3945   27.1781 C.2     1  UNL1        0.2095
     21 O          12.1337   76.3633   27.6547 O.2     1  UNL1       -0.2884
     22 C          10.7364   77.0342   25.8299 C.3     1  UNL1        0.2169
     23 O          11.6594   78.0727   25.6187 O.3     1  UNL1       -0.3739
     24 H          12.4976   77.6522   25.2922 H       1  UNL1        0.2110
     25 O           6.5920   73.6116   29.5664 O.3     1  UNL1       -0.4708
     26 C           5.2899   74.1397   29.7963 C.3     1  UNL1        0.2525
     27 O          11.2611   74.8704   29.6684 O.3     1  UNL1       -0.4707
     28 C          12.2496   73.9510   29.2192 C.3     1  UNL1        0.2525
     29 C           5.0431   77.1498   19.8003 C.ar    1  UNL1        0.0241
     30 C           4.8440   76.3895   18.6385 C.ar    1  UNL1        0.0026
     31 C           3.5613   75.9814   18.2714 C.ar    1  UNL1        0.0398
     32 C           2.4499   76.3264   19.0628 C.ar    1  UNL1        0.1724
     33 C           2.6377   77.0874   20.2270 C.ar    1  UNL1        0.1722
     34 C           3.9354   77.4981   20.5896 C.ar    1  UNL1        0.0393
     35 O           1.1452   75.9312   18.7273 O.3     1  UNL1       -0.4684
     36 C           0.5766   74.6670   19.0528 C.3     1  UNL1        0.2526
     37 O           1.5105   77.4129   20.9984 O.3     1  UNL1       -0.4684
     38 C           1.5237   78.2985   22.1135 C.3     1  UNL1        0.2526
     39 C           6.8175   79.3579   18.3977 C.3     1  UNL1        0.1897
     40 C           8.9525   79.2674   17.4836 C.3     1  UNL1        0.1743
     41 O           7.9830   80.0978   18.0835 O.3     1  UNL1       -0.3471
@<TRIPOS>BOND
     1    40    41    1
     2    41    39    1
     3    39     1    1
     4     1     2    1
     5     2     3    1
     6     3     4   ar
     7     4     5   ar
     8     5     6   ar
     9     6    11    1
    10    11    12    1
    11    12    13    1
    12    13    14   ar
    13    14    15   ar
    14    15    25    1
    15    25    26    1
    16    15    16   ar
    17    16    17    1
    18    16    18   ar
    19    18    27    1
    20    27    28    1
    21    18    19   ar
    22    19    20    1
    23    20    21    2
    24    20    22    1
    25    22    23    1
    26     6     7   ar
    27     7     8   ar
    28     8     9    1
    29     9    10    1
    30    10    29    1
    31    29    30   ar
    32    30    31   ar
    33    31    32   ar
    34    32    35    1
    35    35    36    1
    36    32    33   ar
    37    33    37    1
    38    37    38    1
    39    33    34   ar
    40    10     1    1
    41    34    29   ar
    42     8     3   ar
    43    22    11    1
    44    19    13   ar
    45    23    24    1
@<TRIPOS>MOLECULE
*****
 41 45 0 0 0
SMALL
GASTEIGER

@<TRIPOS>ATOM
      1 C           9.7405   77.8805   25.4691 C.3     1  UNL1        0.2392
      2 O           9.7081   79.1765   26.0766 O.3     1  UNL1       -0.4694
      3 C          10.6459   80.1603   25.7527 C.ar    1  UNL1        0.1723
      4 C          10.7835   81.3027   26.5440 C.ar    1  UNL1        0.0398
      5 C          11.7496   82.2614   26.2219 C.ar    1  UNL1        0.0026
      6 C          12.5775   82.0887   25.0962 C.ar    1  UNL1        0.0233
      7 C          12.4280   80.9362   24.3041 C.ar    1  UNL1        0.0393
      8 C          11.4522   79.9879   24.6228 C.ar    1  UNL1        0.1725
      9 O          11.2690   78.8575   23.8228 O.3     1  UNL1       -0.4679
     10 C          10.1190   78.0169   23.9663 C.3     1  UNL1        0.2305
     11 C          13.6477   83.1028   24.7681 C.3     1  UNL1        0.2223
     12 O          13.5592   83.4696   23.3901 O.3     1  UNL1       -0.4715
     13 C          14.2411   84.5764   22.8734 C.ar    1  UNL1        0.1478
     14 C          14.3910   84.7008   21.4917 C.ar    1  UNL1        0.0745
     15 C          15.0858   85.7932   20.9445 C.ar    1  UNL1        0.1500
     16 C          15.6378   86.7563   21.8032 C.ar    1  UNL1        0.0981
     17 I          16.6589   88.4249   20.9772 I       1  UNL1       -0.0362
     18 C          15.4938   86.6354   23.1974 C.ar    1  UNL1        0.1526
     19 C          14.7624   85.5545   23.7381 C.ar    1  UNL1        0.1057
     20 C          14.4700   85.4230   25.1895 C.2     1  UNL1        0.2095
     21 O          14.9307   86.2521   26.0199 O.2     1  UNL1       -0.2884
     22 C          13.5238   84.3473   25.6666 C.3     1  UNL1        0.2169
     23 O          13.8187   83.9923   26.9941 O.3     1  UNL1       -0.3739
     24 H          13.3749   84.6620   27.5776 H       1  UNL1        0.2110
     25 O          15.2476   85.9519   19.5588 O.3     1  UNL1       -0.4708
     26 C          14.4887   85.2602   18.5724 C.3     1  UNL1        0.2525
     27 O          16.0643   87.5982   24.0329 O.3     1  UNL1       -0.4707
     28 C          17.4654   87.6268   24.2785 C.3     1  UNL1        0.2525
     29 C          10.4071   76.6790   23.3244 C.ar    1  UNL1        0.0241
     30 C          11.6004   75.9990   23.6088 C.ar    1  UNL1        0.0026
     31 C          11.8556   74.7504   23.0406 C.ar    1  UNL1        0.0398
     32 C          10.9183   74.1562   22.1753 C.ar    1  UNL1        0.1724
     33 C           9.7214   74.8283   21.8833 C.ar    1  UNL1        0.1722
     34 C           9.4720   76.0898   22.4585 C.ar    1  UNL1        0.0393
     35 O          11.1388   72.9004   21.5876 O.3     1  UNL1       -0.4684
     36 C          12.4196   72.3002   21.4241 C.3     1  UNL1        0.2526
     37 O           8.8038   74.2089   21.0197 O.3     1  UNL1       -0.4684
     38 C           7.5284   73.7150   21.4164 C.3     1  UNL1        0.2526
     39 C           8.3726   77.2077   25.6851 C.3     1  UNL1        0.1897
     40 C           7.3612   75.1252   25.4783 C.3     1  UNL1        0.1743
     41 O           8.5061   75.8184   25.9232 O.3     1  UNL1       -0.3471
@<TRIPOS>BOND
     1    40    41    1
     2    41    39    1
     3    39     1    1
     4     1     2    1
     5     2     3    1
     6     3     4   ar
     7     4     5   ar
     8     5     6   ar
     9     6    11    1
    10    11    12    1
    11    12    13    1
    12    13    14   ar
    13    14    15   ar
    14    15    25    1
    15    25    26    1
    16    15    16   ar
    17    16    17    1
    18    16    18   ar
    19    18    27    1
    20    27    28    1
    21    18    19   ar
    22    19    20    1
    23    20    21    2
    24    20    22    1
    25    22    23    1
    26     6     7   ar
    27     7     8   ar
    28     8     9    1
    29     9    10    1
    30    10    29    1
    31    29    30   ar
    32    30    31   ar
    33    31    32   ar
    34    32    35    1
    35    35    36    1
    36    32    33   ar
    37    33    37    1
    38    37    38    1
    39    33    34   ar
    40    10     1    1
    41    34    29   ar
    42     8     3   ar
    43    22    11    1
    44    19    13   ar
    45    23    24    1
