@<TRIPOS>MOLECULE
*****
 43 47 0 0 0
SMALL
GASTEIGER

@<TRIPOS>ATOM
      1 C          45.8206   11.9447  -20.5088 C.3     1  UNL1        0.0323
      2 C          46.8688   11.4573  -21.4717 C.ar    1  UNL1       -0.0083
      3 C          47.9193   10.6518  -20.9992 C.ar    1  UNL1       -0.0018
      4 C          48.9252   10.2141  -21.8635 C.ar    1  UNL1        0.0144
      5 C          48.8864   10.5566  -23.2220 C.ar    1  UNL1        0.0518
      6 C          47.8010   11.2922  -23.7106 C.ar    1  UNL1        0.0290
      7 C          46.8125   11.7926  -22.8444 C.ar    1  UNL1        0.0477
      8 N          49.9305   10.1664  -24.1293 N.am    1  UNL1       -0.2803
      9 C          50.5189   11.0741  -25.0809 C.2     1  UNL1        0.2495
     10 O          50.3151   12.3145  -24.9757 O.2     1  UNL1       -0.2698
     11 H          50.0321    9.1415  -24.2976 H       1  UNL1        0.1552
     12 C          51.2890   10.5689  -26.2454 C.ar    1  UNL1        0.0537
     13 C          52.4324   11.2642  -26.6791 C.ar    1  UNL1        0.0042
     14 C          53.1129   10.8660  -27.8321 C.ar    1  UNL1       -0.0028
     15 C          52.6723    9.7553  -28.5653 C.ar    1  UNL1       -0.0061
     16 C          51.5616    9.0300  -28.1127 C.ar    1  UNL1       -0.0028
     17 C          50.8800    9.4267  -26.9589 C.ar    1  UNL1        0.0042
     18 C          53.3384    9.3808  -29.8630 C.3     1  UNL1        0.0992
     19 N          54.5641    8.5962  -29.6064 N.3     1  UNL1       -0.2665
     20 C          54.5022    7.2815  -30.2801 C.3     1  UNL1        0.0899
     21 C          55.7763    6.4815  -29.9950 C.3     1  UNL1        0.0897
     22 N          56.9578    7.2326  -30.4563 N.3     1  UNL1       -0.2691
     23 C          58.1814    6.4635  -30.1844 C.3     1  UNL1        0.0897
     24 C          57.0227    8.5418  -29.7818 C.3     1  UNL1        0.0897
     25 C          55.7495    9.3431  -30.0694 C.3     1  UNL1        0.0899
     26 N          45.7529   12.6273  -23.3559 N.pl3   1  UNL1       -0.2827
     27 H          44.8985   12.7716  -22.7725 H       1  UNL1        0.1551
     28 C          45.8469   13.3691  -24.5832 C.ar    1  UNL1        0.2207
     29 N          45.8142   14.7272  -24.5567 N.ar    1  UNL1       -0.2120
     30 C          45.9077   15.4497  -25.7032 C.ar    1  UNL1        0.1034
     31 C          46.0310   14.8010  -26.9330 C.ar    1  UNL1        0.0400
     32 C          46.0583   13.3973  -26.9545 C.ar    1  UNL1        0.0872
     33 N          45.9846   12.7274  -25.7738 N.ar    1  UNL1       -0.2135
     34 C          46.1478   12.6176  -28.2185 C.ar    1  UNL1        0.0372
     35 C          46.5564   11.2722  -28.2352 C.ar    1  UNL1        0.1003
     36 N          46.6719   10.6043  -29.4128 N.ar    1  UNL1       -0.2421
     37 C          46.4036   11.1945  -30.6061 C.ar    1  UNL1        0.1053
     38 C          45.9990   12.5354  -30.6559 C.ar    1  UNL1        0.0946
     39 C          45.8777   13.2427  -29.4491 C.ar    1  UNL1        0.0111
     40 C          45.7051   13.1857  -31.9513 C.2     1  UNL1        0.3396
     41 O          44.9951   12.5997  -32.8128 O.2     1  UNL1       -0.2450
     42 O          46.2141   14.4506  -32.2334 O.3     1  UNL1       -0.4771
     43 H          46.0162   14.9063  -33.1161 H       1  UNL1        0.2954
@<TRIPOS>BOND
     1     1     2    1
     2     2     3   ar
     3     3     4   ar
     4     4     5   ar
     5     5     8    1
     6     8     9   am
     7     9    10    2
     8     9    12    1
     9    12    13   ar
    10    13    14   ar
    11    14    15   ar
    12    15    18    1
    13    18    19    1
    14    19    20    1
    15    20    21    1
    16    21    22    1
    17    22    23    1
    18    22    24    1
    19    24    25    1
    20    15    16   ar
    21    16    17   ar
    22     5     6   ar
    23     6     7   ar
    24     7    26    1
    25    26    28    1
    26    28    29   ar
    27    29    30   ar
    28    30    31   ar
    29    31    32   ar
    30    32    34    1
    31    34    35   ar
    32    35    36   ar
    33    36    37   ar
    34    37    38   ar
    35    38    40    1
    36    40    41    2
    37    40    42    1
    38    38    39   ar
    39    32    33   ar
    40     7     2   ar
    41    33    28   ar
    42    17    12   ar
    43    39    34   ar
    44    25    19    1
    45     8    11    1
    46    26    27    1
    47    42    43    1
@<TRIPOS>MOLECULE
*****
 43 47 0 0 0
SMALL
GASTEIGER

@<TRIPOS>ATOM
      1 C          45.8829   12.4090  -31.7450 C.3     1  UNL1        0.0323
      2 C          46.0209   12.4655  -30.2479 C.ar    1  UNL1       -0.0083
      3 C          45.7325   13.6640  -29.5726 C.ar    1  UNL1       -0.0018
      4 C          45.8856   13.7555  -28.1874 C.ar    1  UNL1        0.0144
      5 C          46.3094   12.6419  -27.4495 C.ar    1  UNL1        0.0518
      6 C          46.5218   11.4259  -28.1084 C.ar    1  UNL1        0.0290
      7 C          46.4320   11.3320  -29.5087 C.ar    1  UNL1        0.0477
      8 N          46.5262   12.7143  -26.0306 N.am    1  UNL1       -0.2803
      9 C          47.7812   12.3693  -25.4128 C.2     1  UNL1        0.2495
     10 O          48.8156   12.2361  -26.1225 O.2     1  UNL1       -0.2698
     11 H          45.6688   12.7195  -25.4356 H       1  UNL1        0.1552
     12 C          47.8637   12.0739  -23.9602 C.ar    1  UNL1        0.0537
     13 C          48.2095   10.7797  -23.5310 C.ar    1  UNL1        0.0042
     14 C          48.1941   10.4522  -22.1732 C.ar    1  UNL1       -0.0028
     15 C          47.8476   11.4169  -21.2169 C.ar    1  UNL1       -0.0061
     16 C          47.5474   12.7210  -21.6341 C.ar    1  UNL1       -0.0028
     17 C          47.5630   13.0504  -22.9922 C.ar    1  UNL1        0.0042
     18 C          47.7302   11.0459  -19.7621 C.3     1  UNL1        0.0992
     19 N          48.6991   11.8149  -18.9536 N.3     1  UNL1       -0.2665
     20 C          48.4836   11.5855  -17.5089 C.3     1  UNL1        0.0899
     21 C          49.4908   12.3971  -16.6893 C.3     1  UNL1        0.0897
     22 N          50.8660   12.0203  -17.0630 N.3     1  UNL1       -0.2691
     23 C          51.8334   12.7981  -16.2746 C.3     1  UNL1        0.0897
     24 C          51.0831   12.2529  -18.5025 C.3     1  UNL1        0.0897
     25 C          50.0775   11.4388  -19.3223 C.3     1  UNL1        0.0899
     26 N          46.7462   10.0921  -30.1757 N.pl3   1  UNL1       -0.2827
     27 H          46.1536    9.7882  -30.9805 H       1  UNL1        0.1551
     28 C          47.9017    9.2946  -29.8690 C.ar    1  UNL1        0.2207
     29 N          48.2519    8.2685  -30.6879 N.ar    1  UNL1       -0.2120
     30 C          49.3435    7.5050  -30.4220 C.ar    1  UNL1        0.1034
     31 C          50.1203    7.7618  -29.2910 C.ar    1  UNL1        0.0400
     32 C          49.7502    8.8199  -28.4455 C.ar    1  UNL1        0.0872
     33 N          48.6615    9.5648  -28.7745 N.ar    1  UNL1       -0.2135
     34 C          50.4926    9.1449  -27.1978 C.ar    1  UNL1        0.0372
     35 C          50.2257    8.4913  -25.9816 C.ar    1  UNL1        0.1003
     36 N          50.8904    8.8463  -24.8511 N.ar    1  UNL1       -0.2421
     37 C          51.8256    9.8309  -24.8432 C.ar    1  UNL1        0.1053
     38 C          52.1310   10.5245  -26.0221 C.ar    1  UNL1        0.0946
     39 C          51.4513   10.1739  -27.1996 C.ar    1  UNL1        0.0111
     40 C          53.1480   11.5984  -26.0222 C.2     1  UNL1        0.3396
     41 O          53.4113   12.2278  -24.9619 O.2     1  UNL1       -0.2450
     42 O          53.8215   11.9275  -27.1955 O.3     1  UNL1       -0.4771
     43 H          54.5221   12.6590  -27.2058 H       1  UNL1        0.2954
@<TRIPOS>BOND
     1     1     2    1
     2     2     3   ar
     3     3     4   ar
     4     4     5   ar
     5     5     8    1
     6     8     9   am
     7     9    10    2
     8     9    12    1
     9    12    13   ar
    10    13    14   ar
    11    14    15   ar
    12    15    18    1
    13    18    19    1
    14    19    20    1
    15    20    21    1
    16    21    22    1
    17    22    23    1
    18    22    24    1
    19    24    25    1
    20    15    16   ar
    21    16    17   ar
    22     5     6   ar
    23     6     7   ar
    24     7    26    1
    25    26    28    1
    26    28    29   ar
    27    29    30   ar
    28    30    31   ar
    29    31    32   ar
    30    32    34    1
    31    34    35   ar
    32    35    36   ar
    33    36    37   ar
    34    37    38   ar
    35    38    40    1
    36    40    41    2
    37    40    42    1
    38    38    39   ar
    39    32    33   ar
    40     7     2   ar
    41    33    28   ar
    42    17    12   ar
    43    39    34   ar
    44    25    19    1
    45     8    11    1
    46    26    27    1
    47    42    43    1
@<TRIPOS>MOLECULE
*****
 43 47 0 0 0
SMALL
GASTEIGER

@<TRIPOS>ATOM
      1 C          45.9068   12.3444  -31.7864 C.3     1  UNL1        0.0323
      2 C          46.0149   12.4509  -30.2895 C.ar    1  UNL1       -0.0083
      3 C          45.7395   13.6785  -29.6629 C.ar    1  UNL1       -0.0018
      4 C          45.8658   13.8157  -28.2788 C.ar    1  UNL1        0.0144
      5 C          46.2491   12.7201  -27.4934 C.ar    1  UNL1        0.0518
      6 C          46.4479   11.4772  -28.1046 C.ar    1  UNL1        0.0290
      7 C          46.3851   11.3357  -29.5024 C.ar    1  UNL1        0.0477
      8 N          46.4380   12.8380  -26.0736 N.am    1  UNL1       -0.2803
      9 C          47.6571   12.4485  -25.4120 C.2     1  UNL1        0.2495
     10 O          48.6978   12.2283  -26.0901 O.2     1  UNL1       -0.2698
     11 H          45.5693   12.9159  -25.5005 H       1  UNL1        0.1552
     12 C          47.6901   12.2084  -23.9472 C.ar    1  UNL1        0.0537
     13 C          47.5704   10.8967  -23.4533 C.ar    1  UNL1        0.0042
     14 C          47.4966   10.6576  -22.0791 C.ar    1  UNL1       -0.0028
     15 C          47.5567   11.7242  -21.1714 C.ar    1  UNL1       -0.0061
     16 C          47.7230   13.0293  -21.6550 C.ar    1  UNL1       -0.0028
     17 C          47.7976   13.2702  -23.0296 C.ar    1  UNL1        0.0042
     18 C          47.3763   11.4852  -19.6955 C.3     1  UNL1        0.0992
     19 N          48.4752   12.1133  -18.9329 N.3     1  UNL1       -0.2665
     20 C          48.2977   11.9059  -17.4797 C.3     1  UNL1        0.0899
     21 C          49.4407   12.5710  -16.7078 C.3     1  UNL1        0.0897
     22 N          50.7347   12.0165  -17.1448 N.3     1  UNL1       -0.2691
     23 C          51.8325   12.6536  -16.4022 C.3     1  UNL1        0.0897
     24 C          50.9145   12.2267  -18.5929 C.3     1  UNL1        0.0897
     25 C          49.7727   11.5590  -19.3651 C.3     1  UNL1        0.0899
     26 N          46.6851   10.0664  -30.1187 N.pl3   1  UNL1       -0.2827
     27 H          46.0561    9.7109  -30.8730 H       1  UNL1        0.1551
     28 C          47.8693    9.3038  -29.8330 C.ar    1  UNL1        0.2207
     29 N          48.1804    8.2255  -30.5991 N.ar    1  UNL1       -0.2120
     30 C          49.2975    7.4933  -30.3521 C.ar    1  UNL1        0.1034
     31 C          50.1420    7.8370  -29.2952 C.ar    1  UNL1        0.0400
     32 C          49.8122    8.9488  -28.5035 C.ar    1  UNL1        0.0872
     33 N          48.6942    9.6581  -28.8121 N.ar    1  UNL1       -0.2135
     34 C          50.6289    9.3686  -27.3329 C.ar    1  UNL1        0.0372
     35 C          51.8343   10.0773  -27.4825 C.ar    1  UNL1        0.1003
     36 N          52.5785   10.4037  -26.3936 N.ar    1  UNL1       -0.2421
     37 C          52.2001   10.0664  -25.1338 C.ar    1  UNL1        0.1053
     38 C          51.0125    9.3535  -24.9199 C.ar    1  UNL1        0.0946
     39 C          50.2323    9.0041  -26.0337 C.ar    1  UNL1        0.0111
     40 C          50.5933    8.9820  -23.5511 C.2     1  UNL1        0.3396
     41 O          50.1659    7.8211  -23.3077 O.2     1  UNL1       -0.2450
     42 O          50.6627    9.9134  -22.5184 O.3     1  UNL1       -0.4771
     43 H          50.3812    9.6684  -21.5767 H       1  UNL1        0.2954
@<TRIPOS>BOND
     1     1     2    1
     2     2     3   ar
     3     3     4   ar
     4     4     5   ar
     5     5     8    1
     6     8     9   am
     7     9    10    2
     8     9    12    1
     9    12    13   ar
    10    13    14   ar
    11    14    15   ar
    12    15    18    1
    13    18    19    1
    14    19    20    1
    15    20    21    1
    16    21    22    1
    17    22    23    1
    18    22    24    1
    19    24    25    1
    20    15    16   ar
    21    16    17   ar
    22     5     6   ar
    23     6     7   ar
    24     7    26    1
    25    26    28    1
    26    28    29   ar
    27    29    30   ar
    28    30    31   ar
    29    31    32   ar
    30    32    34    1
    31    34    35   ar
    32    35    36   ar
    33    36    37   ar
    34    37    38   ar
    35    38    40    1
    36    40    41    2
    37    40    42    1
    38    38    39   ar
    39    32    33   ar
    40     7     2   ar
    41    33    28   ar
    42    17    12   ar
    43    39    34   ar
    44    25    19    1
    45     8    11    1
    46    26    27    1
    47    42    43    1
@<TRIPOS>MOLECULE
*****
 43 47 0 0 0
SMALL
GASTEIGER

@<TRIPOS>ATOM
      1 C          49.0998   19.2642  -27.4877 C.3     1  UNL1        0.0323
      2 C          49.6044   18.3308  -26.4210 C.ar    1  UNL1       -0.0083
      3 C          50.8370   18.5946  -25.7992 C.ar    1  UNL1       -0.0018
      4 C          51.3465   17.7266  -24.8310 C.ar    1  UNL1        0.0144
      5 C          50.6208   16.5894  -24.4513 C.ar    1  UNL1        0.0518
      6 C          49.3581   16.3658  -25.0113 C.ar    1  UNL1        0.0290
      7 C          48.8575   17.1950  -26.0309 C.ar    1  UNL1        0.0477
      8 N          51.1373   15.6482  -23.4959 N.am    1  UNL1       -0.2803
      9 C          50.2961   14.7375  -22.7620 C.2     1  UNL1        0.2495
     10 O          49.1002   14.5583  -23.1211 O.2     1  UNL1       -0.2698
     11 H          52.0886   15.8532  -23.1188 H       1  UNL1        0.1552
     12 C          50.7829   14.0715  -21.5276 C.ar    1  UNL1        0.0537
     13 C          49.8758   13.3778  -20.7061 C.ar    1  UNL1        0.0042
     14 C          50.2915   12.8311  -19.4899 C.ar    1  UNL1       -0.0028
     15 C          51.6260   12.9539  -19.0786 C.ar    1  UNL1       -0.0061
     16 C          52.5454   13.6030  -19.9141 C.ar    1  UNL1       -0.0028
     17 C          52.1312   14.1501  -21.1316 C.ar    1  UNL1        0.0042
     18 C          52.0593   12.4568  -17.7247 C.3     1  UNL1        0.0992
     19 N          50.9865   12.6667  -16.7303 N.3     1  UNL1       -0.2665
     20 C          50.0109   11.5561  -16.7612 C.3     1  UNL1        0.0899
     21 C          48.9041   11.7966  -15.7308 C.3     1  UNL1        0.0897
     22 N          49.4877   11.9217  -14.3829 N.3     1  UNL1       -0.2691
     23 C          48.4246   12.1508  -13.3929 C.3     1  UNL1        0.0897
     24 C          50.4573   13.0317  -14.3501 C.3     1  UNL1        0.0897
     25 C          51.5660   12.7895  -15.3788 C.3     1  UNL1        0.0899
     26 N          47.5949   16.8922  -26.6596 N.pl3   1  UNL1       -0.2827
     27 H          47.1798   17.5887  -27.3182 H       1  UNL1        0.1551
     28 C          46.9187   15.6319  -26.5197 C.ar    1  UNL1        0.2207
     29 N          46.3334   15.3060  -25.3375 N.ar    1  UNL1       -0.2120
     30 C          45.6833   14.1234  -25.1836 C.ar    1  UNL1        0.1034
     31 C          45.6150   13.2174  -26.2433 C.ar    1  UNL1        0.0400
     32 C          46.2267   13.5572  -27.4606 C.ar    1  UNL1        0.0872
     33 N          46.8430   14.7646  -27.5639 N.ar    1  UNL1       -0.2135
     34 C          46.2403   12.6411  -28.6329 C.ar    1  UNL1        0.0372
     35 C          46.6863   11.3112  -28.5326 C.ar    1  UNL1        0.1003
     36 N          46.7292   10.5167  -29.6339 N.ar    1  UNL1       -0.2421
     37 C          46.3511   10.9619  -30.8599 C.ar    1  UNL1        0.1053
     38 C          45.9041   12.2798  -31.0259 C.ar    1  UNL1        0.0946
     39 C          45.8565   13.1168  -29.8996 C.ar    1  UNL1        0.0111
     40 C          45.4907   12.7727  -32.3576 C.2     1  UNL1        0.3396
     41 O          46.3199   13.3547  -33.1082 O.2     1  UNL1       -0.2450
     42 O          44.1793   12.6023  -32.7933 O.3     1  UNL1       -0.4771
     43 H          43.8865   12.9332  -33.7049 H       1  UNL1        0.2954
@<TRIPOS>BOND
     1     1     2    1
     2     2     3   ar
     3     3     4   ar
     4     4     5   ar
     5     5     8    1
     6     8     9   am
     7     9    10    2
     8     9    12    1
     9    12    13   ar
    10    13    14   ar
    11    14    15   ar
    12    15    18    1
    13    18    19    1
    14    19    20    1
    15    20    21    1
    16    21    22    1
    17    22    23    1
    18    22    24    1
    19    24    25    1
    20    15    16   ar
    21    16    17   ar
    22     5     6   ar
    23     6     7   ar
    24     7    26    1
    25    26    28    1
    26    28    29   ar
    27    29    30   ar
    28    30    31   ar
    29    31    32   ar
    30    32    34    1
    31    34    35   ar
    32    35    36   ar
    33    36    37   ar
    34    37    38   ar
    35    38    40    1
    36    40    41    2
    37    40    42    1
    38    38    39   ar
    39    32    33   ar
    40     7     2   ar
    41    33    28   ar
    42    17    12   ar
    43    39    34   ar
    44    25    19    1
    45     8    11    1
    46    26    27    1
    47    42    43    1
@<TRIPOS>MOLECULE
*****
 43 47 0 0 0
SMALL
GASTEIGER

@<TRIPOS>ATOM
      1 C          46.3828   12.0654  -32.0251 C.3     1  UNL1        0.0323
      2 C          46.3092   12.0635  -30.5223 C.ar    1  UNL1       -0.0083
      3 C          45.7840   13.1838  -29.8553 C.ar    1  UNL1       -0.0018
      4 C          45.7360   13.2240  -28.4602 C.ar    1  UNL1        0.0144
      5 C          46.1929   12.1340  -27.7069 C.ar    1  UNL1        0.0518
      6 C          46.6434   10.9865  -28.3689 C.ar    1  UNL1        0.0290
      7 C          46.7559   10.9523  -29.7703 C.ar    1  UNL1        0.0477
      8 N          46.2053   12.1613  -26.2700 N.am    1  UNL1       -0.2803
      9 C          47.3211   12.6600  -25.5072 C.2     1  UNL1        0.2495
     10 O          48.2250   13.3288  -26.0791 O.2     1  UNL1       -0.2698
     11 H          45.5261   11.5281  -25.7937 H       1  UNL1        0.1552
     12 C          47.4781   12.3218  -24.0700 C.ar    1  UNL1        0.0537
     13 C          47.9699   11.0563  -23.7019 C.ar    1  UNL1        0.0042
     14 C          48.0301   10.6795  -22.3582 C.ar    1  UNL1       -0.0028
     15 C          47.6141   11.5665  -21.3556 C.ar    1  UNL1       -0.0061
     16 C          47.1670   12.8461  -21.7126 C.ar    1  UNL1       -0.0028
     17 C          47.1068   13.2249  -23.0565 C.ar    1  UNL1        0.0042
     18 C          47.5803   11.1320  -19.9140 C.3     1  UNL1        0.0992
     19 N          48.6012   11.8597  -19.1316 N.3     1  UNL1       -0.2665
     20 C          48.3645   11.7069  -17.6802 C.3     1  UNL1        0.0899
     21 C          49.4267   12.4746  -16.8882 C.3     1  UNL1        0.0897
     22 N          50.7713   11.9815  -17.2375 N.3     1  UNL1       -0.2691
     23 C          51.7914   12.7173  -16.4756 C.3     1  UNL1        0.0897
     24 C          51.0097   12.1376  -18.6839 C.3     1  UNL1        0.0897
     25 C          49.9489   11.3673  -19.4760 C.3     1  UNL1        0.0899
     26 N          47.3105    9.7937  -30.4268 N.pl3   1  UNL1       -0.2827
     27 H          47.0523    9.6058  -31.4214 H       1  UNL1        0.1551
     28 C          48.2925    8.9332  -29.8262 C.ar    1  UNL1        0.2207
     29 N          48.1530    8.5489  -28.5304 N.ar    1  UNL1       -0.2120
     30 C          49.0648    7.7312  -27.9433 C.ar    1  UNL1        0.1034
     31 C          50.1695    7.2784  -28.6666 C.ar    1  UNL1        0.0400
     32 C          50.3113    7.6835  -30.0035 C.ar    1  UNL1        0.0872
     33 N          49.3551    8.4838  -30.5454 N.ar    1  UNL1       -0.2135
     34 C          51.4739    7.2847  -30.8419 C.ar    1  UNL1        0.0372
     35 C          51.3164    6.8220  -32.1605 C.ar    1  UNL1        0.1003
     36 N          52.3963    6.4218  -32.8812 N.ar    1  UNL1       -0.2421
     37 C          53.6545    6.4490  -32.3709 C.ar    1  UNL1        0.1053
     38 C          53.8758    6.8931  -31.0602 C.ar    1  UNL1        0.0946
     39 C          52.7711    7.3071  -30.2988 C.ar    1  UNL1        0.0111
     40 C          55.2429    6.9256  -30.4967 C.2     1  UNL1        0.3396
     41 O          55.9772    7.9371  -30.6622 O.2     1  UNL1       -0.2450
     42 O          55.7335    5.8365  -29.7813 O.3     1  UNL1       -0.4771
     43 H          56.6671    5.8498  -29.3885 H       1  UNL1        0.2954
@<TRIPOS>BOND
     1     1     2    1
     2     2     3   ar
     3     3     4   ar
     4     4     5   ar
     5     5     8    1
     6     8     9   am
     7     9    10    2
     8     9    12    1
     9    12    13   ar
    10    13    14   ar
    11    14    15   ar
    12    15    18    1
    13    18    19    1
    14    19    20    1
    15    20    21    1
    16    21    22    1
    17    22    23    1
    18    22    24    1
    19    24    25    1
    20    15    16   ar
    21    16    17   ar
    22     5     6   ar
    23     6     7   ar
    24     7    26    1
    25    26    28    1
    26    28    29   ar
    27    29    30   ar
    28    30    31   ar
    29    31    32   ar
    30    32    34    1
    31    34    35   ar
    32    35    36   ar
    33    36    37   ar
    34    37    38   ar
    35    38    40    1
    36    40    41    2
    37    40    42    1
    38    38    39   ar
    39    32    33   ar
    40     7     2   ar
    41    33    28   ar
    42    17    12   ar
    43    39    34   ar
    44    25    19    1
    45     8    11    1
    46    26    27    1
    47    42    43    1
@<TRIPOS>MOLECULE
*****
 43 47 0 0 0
SMALL
GASTEIGER

@<TRIPOS>ATOM
      1 C          46.4965   11.3429  -20.0060 C.3     1  UNL1        0.0323
      2 C          47.3749   10.9232  -21.1532 C.ar    1  UNL1       -0.0083
      3 C          48.3874    9.9728  -20.9359 C.ar    1  UNL1       -0.0018
      4 C          49.2401    9.5908  -21.9738 C.ar    1  UNL1        0.0144
      5 C          49.0810   10.1370  -23.2547 C.ar    1  UNL1        0.0518
      6 C          48.0254   11.0239  -23.4932 C.ar    1  UNL1        0.0290
      7 C          47.1963   11.4661  -22.4468 C.ar    1  UNL1        0.0477
      8 N          49.9713    9.8052  -24.3330 N.am    1  UNL1       -0.2803
      9 C          50.7316   10.7954  -25.0521 C.2     1  UNL1        0.2495
     10 O          50.8368   11.9646  -24.5903 O.2     1  UNL1       -0.2698
     11 H          49.8171    8.8775  -24.7857 H       1  UNL1        0.1552
     12 C          51.3204   10.4922  -26.3809 C.ar    1  UNL1        0.0537
     13 C          50.8211    9.4144  -27.1345 C.ar    1  UNL1        0.0042
     14 C          51.4254    9.0479  -28.3393 C.ar    1  UNL1       -0.0028
     15 C          52.5312    9.7619  -28.8217 C.ar    1  UNL1       -0.0061
     16 C          53.0046   10.8658  -28.0993 C.ar    1  UNL1       -0.0028
     17 C          52.4007   11.2341  -26.8939 C.ar    1  UNL1        0.0042
     18 C          53.2502    9.3117  -30.0661 C.3     1  UNL1        0.0992
     19 N          54.4712    8.5581  -29.7125 N.3     1  UNL1       -0.2665
     20 C          54.4843    7.2329  -30.3682 C.3     1  UNL1        0.0899
     21 C          55.7519    6.4654  -29.9825 C.3     1  UNL1        0.0897
     22 N          56.9468    7.2358  -30.3722 N.3     1  UNL1       -0.2691
     23 C          58.1643    6.4980  -30.0038 C.3     1  UNL1        0.0897
     24 C          56.9367    8.5557  -29.7155 C.3     1  UNL1        0.0897
     25 C          55.6701    9.3244  -30.1035 C.3     1  UNL1        0.0899
     26 N          46.1734   12.4519  -22.6971 N.pl3   1  UNL1       -0.2827
     27 H          45.3269   12.4668  -22.0851 H       1  UNL1        0.1551
     28 C          46.2977   13.4960  -23.6767 C.ar    1  UNL1        0.2207
     29 N          46.4920   14.7798  -23.2759 N.ar    1  UNL1       -0.2120
     30 C          46.6187   15.7823  -24.1836 C.ar    1  UNL1        0.1034
     31 C          46.5420   15.5056  -25.5496 C.ar    1  UNL1        0.0400
     32 C          46.3353   14.1781  -25.9575 C.ar    1  UNL1        0.0872
     33 N          46.2393   13.2127  -25.0051 N.ar    1  UNL1       -0.2135
     34 C          46.2011   13.7917  -27.3880 C.ar    1  UNL1        0.0372
     35 C          45.7317   14.6922  -28.3609 C.ar    1  UNL1        0.1003
     36 N          45.5773   14.2912  -29.6498 N.ar    1  UNL1       -0.2421
     37 C          45.8632   13.0257  -30.0508 C.ar    1  UNL1        0.1053
     38 C          46.3279   12.0799  -29.1268 C.ar    1  UNL1        0.0946
     39 C          46.4901   12.4751  -27.7893 C.ar    1  UNL1        0.0111
     40 C          46.6414   10.6994  -29.5552 C.2     1  UNL1        0.3396
     41 O          46.6673   10.4019  -30.7801 O.2     1  UNL1       -0.2450
     42 O          46.9066    9.7136  -28.6083 O.3     1  UNL1       -0.4771
     43 H          47.1256    8.7659  -28.8910 H       1  UNL1        0.2954
@<TRIPOS>BOND
     1     1     2    1
     2     2     3   ar
     3     3     4   ar
     4     4     5   ar
     5     5     8    1
     6     8     9   am
     7     9    10    2
     8     9    12    1
     9    12    13   ar
    10    13    14   ar
    11    14    15   ar
    12    15    18    1
    13    18    19    1
    14    19    20    1
    15    20    21    1
    16    21    22    1
    17    22    23    1
    18    22    24    1
    19    24    25    1
    20    15    16   ar
    21    16    17   ar
    22     5     6   ar
    23     6     7   ar
    24     7    26    1
    25    26    28    1
    26    28    29   ar
    27    29    30   ar
    28    30    31   ar
    29    31    32   ar
    30    32    34    1
    31    34    35   ar
    32    35    36   ar
    33    36    37   ar
    34    37    38   ar
    35    38    40    1
    36    40    41    2
    37    40    42    1
    38    38    39   ar
    39    32    33   ar
    40     7     2   ar
    41    33    28   ar
    42    17    12   ar
    43    39    34   ar
    44    25    19    1
    45     8    11    1
    46    26    27    1
    47    42    43    1
@<TRIPOS>MOLECULE
*****
 43 47 0 0 0
SMALL
GASTEIGER

@<TRIPOS>ATOM
      1 C          45.9439   11.8892  -20.1330 C.3     1  UNL1        0.0323
      2 C          46.9514   11.3893  -21.1324 C.ar    1  UNL1       -0.0083
      3 C          47.9963   10.5541  -20.7008 C.ar    1  UNL1       -0.0018
      4 C          48.9656   10.1037  -21.5998 C.ar    1  UNL1        0.0144
      5 C          48.8944   10.4634  -22.9525 C.ar    1  UNL1        0.0518
      6 C          47.8126   11.2298  -23.4000 C.ar    1  UNL1        0.0290
      7 C          46.8623   11.7425  -22.4989 C.ar    1  UNL1        0.0477
      8 N          49.9017   10.0602  -23.8950 N.am    1  UNL1       -0.2803
      9 C          50.6351   10.9992  -24.7050 C.2     1  UNL1        0.2495
     10 O          50.5986   12.2297  -24.4299 O.2     1  UNL1       -0.2698
     11 H          49.8681    9.0638  -24.2036 H       1  UNL1        0.1552
     12 C          51.3629   10.5562  -25.9210 C.ar    1  UNL1        0.0537
     13 C          52.3037   11.4131  -26.5206 C.ar    1  UNL1        0.0042
     14 C          52.9249   11.0596  -27.7207 C.ar    1  UNL1       -0.0028
     15 C          52.6289    9.8356  -28.3366 C.ar    1  UNL1       -0.0061
     16 C          51.7276    8.9567  -27.7203 C.ar    1  UNL1       -0.0028
     17 C          51.1057    9.3085  -26.5192 C.ar    1  UNL1        0.0042
     18 C          53.2167    9.4919  -29.6799 C.3     1  UNL1        0.0992
     19 N          54.4359    8.6732  -29.5156 N.3     1  UNL1       -0.2665
     20 C          54.3226    7.3994  -30.2576 C.3     1  UNL1        0.0899
     21 C          55.5910    6.5628  -30.0676 C.3     1  UNL1        0.0897
     22 N          56.7682    7.3180  -30.5332 N.3     1  UNL1       -0.2691
     23 C          57.9862    6.5141  -30.3526 C.3     1  UNL1        0.0897
     24 C          56.8844    8.5863  -29.7907 C.3     1  UNL1        0.0897
     25 C          55.6168    9.4242  -29.9832 C.3     1  UNL1        0.0899
     26 N          45.8079   12.6076  -22.9688 N.pl3   1  UNL1       -0.2827
     27 H          44.9703   12.7567  -22.3627 H       1  UNL1        0.1551
     28 C          45.8880   13.3717  -24.1833 C.ar    1  UNL1        0.2207
     29 N          45.5007   12.8138  -25.3602 N.ar    1  UNL1       -0.2120
     30 C          45.5615   13.5186  -26.5197 C.ar    1  UNL1        0.1034
     31 C          46.0339   14.8321  -26.5183 C.ar    1  UNL1        0.0400
     32 C          46.4381   15.4013  -25.3000 C.ar    1  UNL1        0.0872
     33 N          46.3330   14.6562  -24.1676 N.ar    1  UNL1       -0.2135
     34 C          46.9912   16.7791  -25.2045 C.ar    1  UNL1        0.0372
     35 C          46.5728   17.6815  -24.2104 C.ar    1  UNL1        0.1003
     36 N          47.0647   18.9477  -24.1816 N.ar    1  UNL1       -0.2421
     37 C          47.9660   19.3924  -25.0949 C.ar    1  UNL1        0.1053
     38 C          48.4163   18.5429  -26.1146 C.ar    1  UNL1        0.0946
     39 C          47.9161   17.2319  -26.1625 C.ar    1  UNL1        0.0111
     40 C          49.3976   19.0195  -27.1133 C.2     1  UNL1        0.3396
     41 O          50.5982   18.6380  -27.0606 O.2     1  UNL1       -0.2450
     42 O          49.0050   19.8982  -28.1195 O.3     1  UNL1       -0.4771
     43 H          49.6681   20.2281  -28.8104 H       1  UNL1        0.2954
@<TRIPOS>BOND
     1     1     2    1
     2     2     3   ar
     3     3     4   ar
     4     4     5   ar
     5     5     8    1
     6     8     9   am
     7     9    10    2
     8     9    12    1
     9    12    13   ar
    10    13    14   ar
    11    14    15   ar
    12    15    18    1
    13    18    19    1
    14    19    20    1
    15    20    21    1
    16    21    22    1
    17    22    23    1
    18    22    24    1
    19    24    25    1
    20    15    16   ar
    21    16    17   ar
    22     5     6   ar
    23     6     7   ar
    24     7    26    1
    25    26    28    1
    26    28    29   ar
    27    29    30   ar
    28    30    31   ar
    29    31    32   ar
    30    32    34    1
    31    34    35   ar
    32    35    36   ar
    33    36    37   ar
    34    37    38   ar
    35    38    40    1
    36    40    41    2
    37    40    42    1
    38    38    39   ar
    39    32    33   ar
    40     7     2   ar
    41    33    28   ar
    42    17    12   ar
    43    39    34   ar
    44    25    19    1
    45     8    11    1
    46    26    27    1
    47    42    43    1
@<TRIPOS>MOLECULE
*****
 43 47 0 0 0
SMALL
GASTEIGER

@<TRIPOS>ATOM
      1 C          48.9957    7.0184  -31.3822 C.3     1  UNL1        0.0323
      2 C          49.4644    7.8319  -30.2065 C.ar    1  UNL1       -0.0083
      3 C          50.7084    7.5434  -29.6192 C.ar    1  UNL1       -0.0018
      4 C          51.1530    8.2588  -28.5052 C.ar    1  UNL1        0.0144
      5 C          50.3701    9.2916  -27.9717 C.ar    1  UNL1        0.0518
      6 C          49.1681    9.6331  -28.6013 C.ar    1  UNL1        0.0290
      7 C          48.6763    8.8841  -29.6853 C.ar    1  UNL1        0.0477
      8 N          50.7727   10.0144  -26.7966 N.am    1  UNL1       -0.2803
      9 C          50.5128    9.5419  -25.4606 C.2     1  UNL1        0.2495
     10 O          50.1478    8.3486  -25.2758 O.2     1  UNL1       -0.2698
     11 H          50.9751   11.0296  -26.9298 H       1  UNL1        0.1552
     12 C          50.5758   10.4623  -24.2973 C.ar    1  UNL1        0.0537
     13 C          49.9839   10.0855  -23.0781 C.ar    1  UNL1        0.0042
     14 C          49.9419   10.9754  -22.0023 C.ar    1  UNL1       -0.0028
     15 C          50.5047   12.2539  -22.1197 C.ar    1  UNL1       -0.0061
     16 C          51.1374   12.6189  -23.3161 C.ar    1  UNL1       -0.0028
     17 C          51.1808   11.7294  -24.3932 C.ar    1  UNL1        0.0042
     18 C          50.3746   13.2540  -21.0012 C.3     1  UNL1        0.0992
     19 N          50.0782   12.5672  -19.7268 N.3     1  UNL1       -0.2665
     20 C          51.1361   12.8263  -18.7268 C.3     1  UNL1        0.0899
     21 C          50.8149   12.0996  -17.4178 C.3     1  UNL1        0.0897
     22 N          49.5083   12.5449  -16.9007 N.3     1  UNL1       -0.2691
     23 C          49.2005   11.8486  -15.6425 C.3     1  UNL1        0.0897
     24 C          48.4522   12.2829  -17.8954 C.3     1  UNL1        0.0897
     25 C          48.7721   13.0121  -19.2037 C.3     1  UNL1        0.0899
     26 N          47.3903    9.1955  -30.2599 N.pl3   1  UNL1       -0.2827
     27 H          46.7964    8.4149  -30.6195 H       1  UNL1        0.1551
     28 C          46.8219   10.5153  -30.2692 C.ar    1  UNL1        0.2207
     29 N          46.4342   11.0765  -31.4444 N.ar    1  UNL1       -0.2120
     30 C          45.8887   12.3200  -31.4773 C.ar    1  UNL1        0.1034
     31 C          45.7258   13.0459  -30.2962 C.ar    1  UNL1        0.0400
     32 C          46.1335   12.4631  -29.0856 C.ar    1  UNL1        0.0872
     33 N          46.6514   11.2064  -29.1109 N.ar    1  UNL1       -0.2135
     34 C          46.0359   13.1738  -27.7821 C.ar    1  UNL1        0.0372
     35 C          45.9611   14.5758  -27.7030 C.ar    1  UNL1        0.1003
     36 N          45.9203   15.1940  -26.4938 N.ar    1  UNL1       -0.2421
     37 C          45.9499   14.4995  -25.3272 C.ar    1  UNL1        0.1053
     38 C          46.0315   13.1004  -25.3399 C.ar    1  UNL1        0.0946
     39 C          46.0784   12.4444  -26.5803 C.ar    1  UNL1        0.0111
     40 C          46.0645   12.3364  -24.0739 C.2     1  UNL1        0.3396
     41 O          47.1096   11.7227  -23.7261 O.2     1  UNL1       -0.2450
     42 O          44.9391   12.2842  -23.2558 O.3     1  UNL1       -0.4771
     43 H          44.9520   11.7666  -22.3852 H       1  UNL1        0.2954
@<TRIPOS>BOND
     1     1     2    1
     2     2     3   ar
     3     3     4   ar
     4     4     5   ar
     5     5     8    1
     6     8     9   am
     7     9    10    2
     8     9    12    1
     9    12    13   ar
    10    13    14   ar
    11    14    15   ar
    12    15    18    1
    13    18    19    1
    14    19    20    1
    15    20    21    1
    16    21    22    1
    17    22    23    1
    18    22    24    1
    19    24    25    1
    20    15    16   ar
    21    16    17   ar
    22     5     6   ar
    23     6     7   ar
    24     7    26    1
    25    26    28    1
    26    28    29   ar
    27    29    30   ar
    28    30    31   ar
    29    31    32   ar
    30    32    34    1
    31    34    35   ar
    32    35    36   ar
    33    36    37   ar
    34    37    38   ar
    35    38    40    1
    36    40    41    2
    37    40    42    1
    38    38    39   ar
    39    32    33   ar
    40     7     2   ar
    41    33    28   ar
    42    17    12   ar
    43    39    34   ar
    44    25    19    1
    45     8    11    1
    46    26    27    1
    47    42    43    1
@<TRIPOS>MOLECULE
*****
 43 47 0 0 0
SMALL
GASTEIGER

@<TRIPOS>ATOM
      1 C          51.3155    8.3155  -30.0753 C.3     1  UNL1        0.0323
      2 C          51.0920    8.8301  -28.6793 C.ar    1  UNL1       -0.0083
      3 C          52.1965    9.0395  -27.8355 C.ar    1  UNL1       -0.0018
      4 C          52.0163    9.4829  -26.5235 C.ar    1  UNL1        0.0144
      5 C          50.7280    9.7462  -26.0386 C.ar    1  UNL1        0.0518
      6 C          49.6332    9.6139  -26.8999 C.ar    1  UNL1        0.0290
      7 C          49.7900    9.1102  -28.2035 C.ar    1  UNL1        0.0477
      8 N          50.5016   10.1548  -24.6794 N.am    1  UNL1       -0.2803
      9 C          50.0878    9.2398  -23.6465 C.2     1  UNL1        0.2495
     10 O          50.1574    7.9958  -23.8437 O.2     1  UNL1       -0.2698
     11 H          50.3398   11.1747  -24.5284 H       1  UNL1        0.1552
     12 C          49.4894    9.7340  -22.3808 C.ar    1  UNL1        0.0537
     13 C          48.7262   10.9157  -22.3858 C.ar    1  UNL1        0.0042
     14 C          48.2396   11.4538  -21.1922 C.ar    1  UNL1       -0.0028
     15 C          48.4935   10.8123  -19.9719 C.ar    1  UNL1       -0.0061
     16 C          49.2133    9.6096  -19.9647 C.ar    1  UNL1       -0.0028
     17 C          49.7004    9.0696  -21.1581 C.ar    1  UNL1        0.0042
     18 C          48.0600   11.4383  -18.6725 C.3     1  UNL1        0.0992
     19 N          49.1828   11.4638  -17.7120 N.3     1  UNL1       -0.2665
     20 C          50.1633   12.5106  -18.0710 C.3     1  UNL1        0.0899
     21 C          51.3218   12.5147  -17.0697 C.3     1  UNL1        0.0897
     22 N          50.8101   12.7452  -15.7066 N.3     1  UNL1       -0.2691
     23 C          51.9227   12.7512  -14.7451 C.3     1  UNL1        0.0897
     24 C          49.8356   11.6993  -15.3462 C.3     1  UNL1        0.0897
     25 C          48.6754   11.6972  -16.3462 C.3     1  UNL1        0.0899
     26 N          48.6368    8.8938  -29.0427 N.pl3   1  UNL1       -0.2827
     27 H          48.4077    7.9200  -29.3435 H       1  UNL1        0.1551
     28 C          47.7106    9.9313  -29.4046 C.ar    1  UNL1        0.2207
     29 N          47.1807    9.9587  -30.6555 N.ar    1  UNL1       -0.2120
     30 C          46.2986   10.9258  -31.0184 C.ar    1  UNL1        0.1034
     31 C          45.9288   11.9159  -30.1066 C.ar    1  UNL1        0.0400
     32 C          46.4842   11.8857  -28.8173 C.ar    1  UNL1        0.0872
     33 N          47.3438   10.8805  -28.5030 N.ar    1  UNL1       -0.2135
     34 C          46.1810   12.9190  -27.7906 C.ar    1  UNL1        0.0372
     35 C          45.9207   14.2571  -28.1362 C.ar    1  UNL1        0.1003
     36 N          45.6939   15.1841  -27.1692 N.ar    1  UNL1       -0.2421
     37 C          45.7083   14.8675  -25.8487 C.ar    1  UNL1        0.1053
     38 C          45.9688   13.5523  -25.4404 C.ar    1  UNL1        0.0946
     39 C          46.2094   12.5814  -26.4256 C.ar    1  UNL1        0.0111
     40 C          45.9866   13.1992  -24.0043 C.2     1  UNL1        0.3396
     41 O          46.6462   13.8939  -23.1845 O.2     1  UNL1       -0.2450
     42 O          45.2779   12.0923  -23.5446 O.3     1  UNL1       -0.4771
     43 H          45.2807   11.8435  -22.5627 H       1  UNL1        0.2954
@<TRIPOS>BOND
     1     1     2    1
     2     2     3   ar
     3     3     4   ar
     4     4     5   ar
     5     5     8    1
     6     8     9   am
     7     9    10    2
     8     9    12    1
     9    12    13   ar
    10    13    14   ar
    11    14    15   ar
    12    15    18    1
    13    18    19    1
    14    19    20    1
    15    20    21    1
    16    21    22    1
    17    22    23    1
    18    22    24    1
    19    24    25    1
    20    15    16   ar
    21    16    17   ar
    22     5     6   ar
    23     6     7   ar
    24     7    26    1
    25    26    28    1
    26    28    29   ar
    27    29    30   ar
    28    30    31   ar
    29    31    32   ar
    30    32    34    1
    31    34    35   ar
    32    35    36   ar
    33    36    37   ar
    34    37    38   ar
    35    38    40    1
    36    40    41    2
    37    40    42    1
    38    38    39   ar
    39    32    33   ar
    40     7     2   ar
    41    33    28   ar
    42    17    12   ar
    43    39    34   ar
    44    25    19    1
    45     8    11    1
    46    26    27    1
    47    42    43    1
