@<TRIPOS>MOLECULE
*****
 42 46 0 0 0
SMALL
GASTEIGER

@<TRIPOS>ATOM
      1 C         -28.8188   50.7392  -11.9104 C.3     1  UNL1        0.1332
      2 N         -27.4233   51.0688  -12.2010 N.ar    1  UNL1       -0.2977
      3 C         -26.8425   51.3091  -13.4121 C.ar    1  UNL1        0.2018
      4 N         -25.5066   51.5424  -13.3424 N.ar    1  UNL1       -0.2135
      5 C         -25.2566   51.4775  -12.0235 C.ar    1  UNL1        0.0999
      6 C         -24.0278   51.6857  -11.3839 C.ar    1  UNL1        0.0282
      7 C         -23.9868   51.6343   -9.9677 C.ar    1  UNL1        0.0888
      8 C         -25.1894   51.3450   -9.2774 C.ar    1  UNL1        0.1401
      9 C         -26.3801   51.1300   -9.9334 C.ar    1  UNL1        0.0327
     10 C         -26.4054   51.2038  -11.3294 C.ar    1  UNL1        0.0789
     11 C         -27.4583   50.8384   -8.9485 C.3     1  UNL1        0.0709
     12 C         -26.7151   50.9672   -7.5784 C.3     1  UNL1        0.1375
     13 C         -26.7993   49.6679   -6.7667 C.3     1  UNL1        0.0439
     14 C         -27.2596   52.1459   -6.7599 C.3     1  UNL1        0.0439
     15 O         -25.3502   51.2244   -7.9129 O.3     1  UNL1       -0.4824
     16 C         -22.7120   51.8630   -9.2558 C.2     1  UNL1        0.2525
     17 O         -22.6195   51.5153   -8.0473 O.2     1  UNL1       -0.2697
     18 N         -21.5914   52.4717   -9.9235 N.am    1  UNL1       -0.2803
     19 H         -21.7020   52.7812  -10.9142 H       1  UNL1        0.1552
     20 C         -20.3359   52.7599   -9.2864 C.ar    1  UNL1        0.0517
     21 C         -20.1894   53.8545   -8.4183 C.ar    1  UNL1        0.0287
     22 C         -18.9580   54.1106   -7.8013 C.ar    1  UNL1        0.0427
     23 N         -18.8100   55.2390   -6.9349 N.pl3   1  UNL1       -0.3570
     24 C         -17.8733   53.2546   -8.0333 C.ar    1  UNL1        0.0180
     25 C         -18.0184   52.1246   -8.8556 C.ar    1  UNL1        0.0739
     26 C         -19.2514   51.8947   -9.4897 C.ar    1  UNL1        0.0186
     27 H         -19.6114   55.8840   -6.7548 H       1  UNL1        0.1424
     28 H         -17.8975   55.4386   -6.4674 H       1  UNL1        0.1424
     29 C         -16.8394   51.2252   -9.1322 C.3     1  UNL1        0.4187
     30 F         -16.2602   51.5910  -10.3327 F       1  UNL1       -0.1659
     31 F         -17.2408   49.9026   -9.2096 F       1  UNL1       -0.1659
     32 F         -15.8957   51.3315   -8.1252 F       1  UNL1       -0.1659
     33 N         -27.5465   51.3498  -14.6617 N.pl3   1  UNL1       -0.2814
     34 H         -28.4496   51.8741  -14.6901 H       1  UNL1        0.1551
     35 C         -27.1219   50.6731  -15.8561 C.ar    1  UNL1        0.0889
     36 C         -25.9079   51.0516  -16.4538 C.ar    1  UNL1        0.1543
     37 F         -25.1489   52.0298  -15.8984 F       1  UNL1       -0.2028
     38 C         -25.4563   50.4072  -17.6086 C.ar    1  UNL1        0.0310
     39 C         -26.2182   49.3914  -18.1871 C.ar    1  UNL1        0.0033
     40 C         -27.4406   49.0255  -17.6207 C.ar    1  UNL1        0.0128
     41 C         -27.9050   49.6636  -16.4639 C.ar    1  UNL1        0.0733
     42 CL        -29.4984   49.2207  -15.8610 Cl      1  UNL1       -0.0809
@<TRIPOS>BOND
     1     1     2    1
     2     2     3   ar
     3     3    33    1
     4    33    35    1
     5    35    36   ar
     6    36    37    1
     7    36    38   ar
     8    38    39   ar
     9    39    40   ar
    10    40    41   ar
    11    41    42    1
    12     3     4   ar
    13     4     5   ar
    14     5     6   ar
    15     6     7   ar
    16     7    16    1
    17    16    17    2
    18    16    18   am
    19    18    20    1
    20    20    21   ar
    21    21    22   ar
    22    22    23    1
    23    22    24   ar
    24    24    25   ar
    25    25    29    1
    26    29    30    1
    27    29    31    1
    28    29    32    1
    29    25    26   ar
    30     7     8   ar
    31     8     9   ar
    32     9    10   ar
    33     9    11    1
    34    11    12    1
    35    12    13    1
    36    12    14    1
    37    12    15    1
    38    10     2   ar
    39    41    35   ar
    40    10     5   ar
    41    26    20   ar
    42    15     8    1
    43    33    34    1
    44    18    19    1
    45    23    27    1
    46    23    28    1
@<TRIPOS>MOLECULE
*****
 42 46 0 0 0
SMALL
GASTEIGER

@<TRIPOS>ATOM
      1 C         -29.7518   47.4509   -8.3311 C.3     1  UNL1        0.1332
      2 N         -28.3797   47.7887   -7.9517 N.ar    1  UNL1       -0.2977
      3 C         -27.5673   47.1575   -7.0553 C.ar    1  UNL1        0.2018
      4 N         -26.3580   47.7546   -6.8969 N.ar    1  UNL1       -0.2135
      5 C         -26.4127   48.7824   -7.7612 C.ar    1  UNL1        0.0999
      6 C         -25.4013   49.7121   -8.0352 C.ar    1  UNL1        0.0282
      7 C         -25.6361   50.6895   -9.0350 C.ar    1  UNL1        0.0888
      8 C         -26.8958   50.6896   -9.6826 C.ar    1  UNL1        0.1401
      9 C         -27.8768   49.7723   -9.3822 C.ar    1  UNL1        0.0327
     10 C         -27.6205   48.8037   -8.4070 C.ar    1  UNL1        0.0789
     11 C         -29.0860   50.0301  -10.2122 C.3     1  UNL1        0.0709
     12 C         -28.6394   51.2350  -11.1037 C.3     1  UNL1        0.1375
     13 C         -29.5599   52.4480  -10.9150 C.3     1  UNL1        0.0439
     14 C         -28.5758   50.8367  -12.5845 C.3     1  UNL1        0.0439
     15 O         -27.3248   51.5688  -10.6549 O.3     1  UNL1       -0.4824
     16 C         -24.5880   51.6787   -9.3629 C.2     1  UNL1        0.2525
     17 O         -24.9296   52.8669   -9.6111 O.2     1  UNL1       -0.2697
     18 N         -23.1998   51.2999   -9.4003 N.am    1  UNL1       -0.2803
     19 H         -22.9440   50.3035   -9.2236 H       1  UNL1        0.1552
     20 C         -22.1313   52.1959   -9.7479 C.ar    1  UNL1        0.0517
     21 C         -21.9774   52.6787  -11.0581 C.ar    1  UNL1        0.0287
     22 C         -20.9334   53.5587  -11.3717 C.ar    1  UNL1        0.0427
     23 N         -20.7698   54.0299  -12.7122 N.pl3   1  UNL1       -0.3570
     24 C         -20.0528   53.9784  -10.3660 C.ar    1  UNL1        0.0180
     25 C         -20.2258   53.5478   -9.0398 C.ar    1  UNL1        0.0739
     26 C         -21.2607   52.6440   -8.7444 C.ar    1  UNL1        0.0186
     27 H         -21.4200   53.7237  -13.4701 H       1  UNL1        0.1424
     28 H         -19.9968   54.6881  -12.9574 H       1  UNL1        0.1424
     29 C         -19.2549   53.9725   -7.9663 C.3     1  UNL1        0.4187
     30 F         -19.8118   53.7249   -6.7257 F       1  UNL1       -0.1659
     31 F         -18.9698   55.3231   -8.0713 F       1  UNL1       -0.1659
     32 F         -18.0668   53.2708   -8.0755 F       1  UNL1       -0.1659
     33 N         -27.9092   45.9570   -6.3476 N.pl3   1  UNL1       -0.2814
     34 H         -28.2492   45.1452   -6.9103 H       1  UNL1        0.1551
     35 C         -27.8686   45.8168   -4.9180 C.ar    1  UNL1        0.0889
     36 C         -26.6306   45.5852   -4.2951 C.ar    1  UNL1        0.1543
     37 F         -25.4963   45.5112   -5.0362 F       1  UNL1       -0.2028
     38 C         -26.5504   45.4568   -2.9059 C.ar    1  UNL1        0.0310
     39 C         -27.7050   45.5415   -2.1270 C.ar    1  UNL1        0.0033
     40 C         -28.9455   45.7416   -2.7353 C.ar    1  UNL1        0.0128
     41 C         -29.0400   45.8714   -4.1264 C.ar    1  UNL1        0.0733
     42 CL        -30.6449   46.0230   -4.8334 Cl      1  UNL1       -0.0809
@<TRIPOS>BOND
     1     1     2    1
     2     2     3   ar
     3     3    33    1
     4    33    35    1
     5    35    36   ar
     6    36    37    1
     7    36    38   ar
     8    38    39   ar
     9    39    40   ar
    10    40    41   ar
    11    41    42    1
    12     3     4   ar
    13     4     5   ar
    14     5     6   ar
    15     6     7   ar
    16     7    16    1
    17    16    17    2
    18    16    18   am
    19    18    20    1
    20    20    21   ar
    21    21    22   ar
    22    22    23    1
    23    22    24   ar
    24    24    25   ar
    25    25    29    1
    26    29    30    1
    27    29    31    1
    28    29    32    1
    29    25    26   ar
    30     7     8   ar
    31     8     9   ar
    32     9    10   ar
    33     9    11    1
    34    11    12    1
    35    12    13    1
    36    12    14    1
    37    12    15    1
    38    10     2   ar
    39    41    35   ar
    40    10     5   ar
    41    26    20   ar
    42    15     8    1
    43    33    34    1
    44    18    19    1
    45    23    27    1
    46    23    28    1
@<TRIPOS>MOLECULE
*****
 42 46 0 0 0
SMALL
GASTEIGER

@<TRIPOS>ATOM
      1 C         -30.6191   50.1000   -9.0595 C.3     1  UNL1        0.1332
      2 N         -29.4678   50.4109   -9.9071 N.ar    1  UNL1       -0.2977
      3 C         -29.4335   50.5911  -11.2593 C.ar    1  UNL1        0.2018
      4 N         -28.1887   50.8232  -11.7496 N.ar    1  UNL1       -0.2135
      5 C         -27.4232   50.8207  -10.6449 C.ar    1  UNL1        0.0999
      6 C         -26.0441   51.0554  -10.5707 C.ar    1  UNL1        0.0282
      7 C         -25.4302   51.0716   -9.2928 C.ar    1  UNL1        0.0888
      8 C         -26.2434   50.8196   -8.1608 C.ar    1  UNL1        0.1401
      9 C         -27.5941   50.5773   -8.2653 C.ar    1  UNL1        0.0327
     10 C         -28.1859   50.5842   -9.5320 C.ar    1  UNL1        0.0789
     11 C         -28.1740   50.3366   -6.9149 C.3     1  UNL1        0.0709
     12 C         -26.9404   50.5285   -5.9730 C.3     1  UNL1        0.1375
     13 C         -26.6658   49.2698   -5.1396 C.3     1  UNL1        0.0439
     14 C         -27.1245   51.7466   -5.0577 C.3     1  UNL1        0.0439
     15 O         -25.8337   50.7649   -6.8449 O.3     1  UNL1       -0.4824
     16 C         -23.9800   51.3301   -9.1722 C.2     1  UNL1        0.2525
     17 O         -23.4195   51.1424   -8.0584 O.2     1  UNL1       -0.2697
     18 N         -23.2144   51.7884  -10.3017 N.am    1  UNL1       -0.2803
     19 H         -23.7061   51.9682  -11.2047 H       1  UNL1        0.1552
     20 C         -21.8117   52.0967  -10.2501 C.ar    1  UNL1        0.0517
     21 C         -20.9523   51.7786  -11.3148 C.ar    1  UNL1        0.0287
     22 C         -19.5898   52.0971  -11.2460 C.ar    1  UNL1        0.0427
     23 N         -18.7164   51.7515  -12.3247 N.pl3   1  UNL1       -0.3570
     24 C         -19.0871   52.7590  -10.1180 C.ar    1  UNL1        0.0180
     25 C         -19.9433   53.1328   -9.0686 C.ar    1  UNL1        0.0739
     26 C         -21.3028   52.7831   -9.1385 C.ar    1  UNL1        0.0186
     27 H         -19.0798   51.2579  -13.1703 H       1  UNL1        0.1424
     28 H         -17.6993   51.9860  -12.2857 H       1  UNL1        0.1424
     29 C         -19.3932   53.8130   -7.8398 C.3     1  UNL1        0.4187
     30 F         -20.0094   53.2921   -6.7175 F       1  UNL1       -0.1659
     31 F         -19.6258   55.1766   -7.8901 F       1  UNL1       -0.1659
     32 F         -18.0275   53.6115   -7.7389 F       1  UNL1       -0.1659
     33 N         -30.5852   50.5742  -12.1149 N.pl3   1  UNL1       -0.2814
     34 H         -31.3567   51.2448  -11.8992 H       1  UNL1        0.1551
     35 C         -30.7713   49.6617  -13.2093 C.ar    1  UNL1        0.0889
     36 C         -31.2851   50.1535  -14.4212 C.ar    1  UNL1        0.1543
     37 F         -31.5840   51.4706  -14.5519 F       1  UNL1       -0.2028
     38 C         -31.4672   49.2986  -15.5114 C.ar    1  UNL1        0.0310
     39 C         -31.1545   47.9434  -15.3986 C.ar    1  UNL1        0.0033
     40 C         -30.6713   47.4357  -14.1913 C.ar    1  UNL1        0.0128
     41 C         -30.4847   48.2813  -13.0908 C.ar    1  UNL1        0.0733
     42 CL        -29.9664   47.5569  -11.5726 Cl      1  UNL1       -0.0809
@<TRIPOS>BOND
     1     1     2    1
     2     2     3   ar
     3     3    33    1
     4    33    35    1
     5    35    36   ar
     6    36    37    1
     7    36    38   ar
     8    38    39   ar
     9    39    40   ar
    10    40    41   ar
    11    41    42    1
    12     3     4   ar
    13     4     5   ar
    14     5     6   ar
    15     6     7   ar
    16     7    16    1
    17    16    17    2
    18    16    18   am
    19    18    20    1
    20    20    21   ar
    21    21    22   ar
    22    22    23    1
    23    22    24   ar
    24    24    25   ar
    25    25    29    1
    26    29    30    1
    27    29    31    1
    28    29    32    1
    29    25    26   ar
    30     7     8   ar
    31     8     9   ar
    32     9    10   ar
    33     9    11    1
    34    11    12    1
    35    12    13    1
    36    12    14    1
    37    12    15    1
    38    10     2   ar
    39    41    35   ar
    40    10     5   ar
    41    26    20   ar
    42    15     8    1
    43    33    34    1
    44    18    19    1
    45    23    27    1
    46    23    28    1
@<TRIPOS>MOLECULE
*****
 42 46 0 0 0
SMALL
GASTEIGER

@<TRIPOS>ATOM
      1 C         -30.4062   49.9588   -6.4385 C.3     1  UNL1        0.1332
      2 N         -28.9488   50.0493   -6.3481 N.ar    1  UNL1       -0.2977
      3 C         -28.1470   49.7860   -5.2758 C.ar    1  UNL1        0.2018
      4 N         -26.8288   50.0144   -5.5081 N.ar    1  UNL1       -0.2135
      5 C         -26.8115   50.4037   -6.7944 C.ar    1  UNL1        0.0999
      6 C         -25.6876   50.7279   -7.5652 C.ar    1  UNL1        0.0282
      7 C         -25.8779   51.0554   -8.9314 C.ar    1  UNL1        0.0888
      8 C         -27.2017   51.0652   -9.4350 C.ar    1  UNL1        0.1401
      9 C         -28.2892   50.7564   -8.6500 C.ar    1  UNL1        0.0327
     10 C         -28.0805   50.4170   -7.3098 C.ar    1  UNL1        0.0789
     11 C         -29.5409   50.8639   -9.4495 C.3     1  UNL1        0.0709
     12 C         -29.0087   51.2424  -10.8705 C.3     1  UNL1        0.1375
     13 C         -29.5973   52.5731  -11.3574 C.3     1  UNL1        0.0439
     14 C         -29.2944   50.1275  -11.8859 C.3     1  UNL1        0.0439
     15 O         -27.5950   51.3820  -10.7185 O.3     1  UNL1       -0.4824
     16 C         -24.7154   51.3892   -9.7809 C.2     1  UNL1        0.2525
     17 O         -24.7093   51.0045  -10.9817 O.2     1  UNL1       -0.2697
     18 N         -23.6059   52.1396   -9.2537 N.am    1  UNL1       -0.2803
     19 H         -23.6183   52.4189   -8.2480 H       1  UNL1        0.1552
     20 C         -22.4269   52.4676  -10.0073 C.ar    1  UNL1        0.0517
     21 C         -22.5075   53.1464  -11.2345 C.ar    1  UNL1        0.0287
     22 C         -21.3439   53.4638  -11.9472 C.ar    1  UNL1        0.0427
     23 N         -21.4343   54.1365  -13.2062 N.pl3   1  UNL1       -0.3570
     24 C         -20.0914   53.1230  -11.4198 C.ar    1  UNL1        0.0180
     25 C         -19.9910   52.4927  -10.1681 C.ar    1  UNL1        0.0739
     26 C         -21.1672   52.1559   -9.4765 C.ar    1  UNL1        0.0186
     27 H         -22.3624   54.3952  -13.6093 H       1  UNL1        0.1424
     28 H         -20.5736   54.3805  -13.7455 H       1  UNL1        0.1424
     29 C         -18.6434   52.0947   -9.6196 C.3     1  UNL1        0.4187
     30 F         -18.7044   50.7906   -9.1657 F       1  UNL1       -0.1659
     31 F         -18.2790   52.9209   -8.5704 F       1  UNL1       -0.1659
     32 F         -17.6697   52.1862  -10.5992 F       1  UNL1       -0.1659
     33 N         -28.6101   49.2856   -4.0132 N.pl3   1  UNL1       -0.2814
     34 H         -29.1358   49.9448   -3.3962 H       1  UNL1        0.1551
     35 C         -28.3512   47.9613   -3.5195 C.ar    1  UNL1        0.0889
     36 C         -29.3143   46.9599   -3.7295 C.ar    1  UNL1        0.1543
     37 F         -30.4593   47.2434   -4.4003 F       1  UNL1       -0.2028
     38 C         -29.0915   45.6573   -3.2753 C.ar    1  UNL1        0.0310
     39 C         -27.9148   45.3450   -2.5935 C.ar    1  UNL1        0.0033
     40 C         -26.9627   46.3370   -2.3518 C.ar    1  UNL1        0.0128
     41 C         -27.1737   47.6464   -2.8011 C.ar    1  UNL1        0.0733
     42 CL        -25.9785   48.8667   -2.3761 Cl      1  UNL1       -0.0809
@<TRIPOS>BOND
     1     1     2    1
     2     2     3   ar
     3     3    33    1
     4    33    35    1
     5    35    36   ar
     6    36    37    1
     7    36    38   ar
     8    38    39   ar
     9    39    40   ar
    10    40    41   ar
    11    41    42    1
    12     3     4   ar
    13     4     5   ar
    14     5     6   ar
    15     6     7   ar
    16     7    16    1
    17    16    17    2
    18    16    18   am
    19    18    20    1
    20    20    21   ar
    21    21    22   ar
    22    22    23    1
    23    22    24   ar
    24    24    25   ar
    25    25    29    1
    26    29    30    1
    27    29    31    1
    28    29    32    1
    29    25    26   ar
    30     7     8   ar
    31     8     9   ar
    32     9    10   ar
    33     9    11    1
    34    11    12    1
    35    12    13    1
    36    12    14    1
    37    12    15    1
    38    10     2   ar
    39    41    35   ar
    40    10     5   ar
    41    26    20   ar
    42    15     8    1
    43    33    34    1
    44    18    19    1
    45    23    27    1
    46    23    28    1
@<TRIPOS>MOLECULE
*****
 42 46 0 0 0
SMALL
GASTEIGER

@<TRIPOS>ATOM
      1 C         -25.8180   51.2259  -12.1786 C.3     1  UNL1        0.1332
      2 N         -25.2232   51.1816  -10.8426 N.ar    1  UNL1       -0.2977
      3 C         -23.9781   51.5827  -10.4542 C.ar    1  UNL1        0.2018
      4 N         -23.7164   51.3619   -9.1402 N.ar    1  UNL1       -0.2135
      5 C         -24.8655   50.8316   -8.6880 C.ar    1  UNL1        0.0999
      6 C         -25.1616   50.4505   -7.3729 C.ar    1  UNL1        0.0282
      7 C         -26.4635   49.9674   -7.0871 C.ar    1  UNL1        0.0888
      8 C         -27.3864   49.8691   -8.1571 C.ar    1  UNL1        0.1401
      9 C         -27.0628   50.2374   -9.4431 C.ar    1  UNL1        0.0327
     10 C         -25.7801   50.7297   -9.7026 C.ar    1  UNL1        0.0789
     11 C         -28.2256   50.0106  -10.3453 C.3     1  UNL1        0.0709
     12 C         -29.3248   49.4883   -9.3631 C.3     1  UNL1        0.1375
     13 C         -29.8298   48.0976   -9.7695 C.3     1  UNL1        0.0439
     14 C         -30.4962   50.4752   -9.2649 C.3     1  UNL1        0.0439
     15 O         -28.6821   49.4011   -8.0903 O.3     1  UNL1       -0.4824
     16 C         -26.8187   49.5690   -5.7089 C.2     1  UNL1        0.2525
     17 O         -26.4247   50.2847   -4.7484 O.2     1  UNL1       -0.2697
     18 N         -27.6000   48.3860   -5.4595 N.am    1  UNL1       -0.2803
     19 H         -27.8869   47.7915   -6.2680 H       1  UNL1        0.1552
     20 C         -27.9505   47.9162   -4.1474 C.ar    1  UNL1        0.0517
     21 C         -27.2074   46.9107   -3.5068 C.ar    1  UNL1        0.0287
     22 C         -27.5625   46.4749   -2.2236 C.ar    1  UNL1        0.0427
     23 N         -26.8143   45.4361   -1.5856 N.pl3   1  UNL1       -0.3570
     24 C         -28.6509   47.0636   -1.5663 C.ar    1  UNL1        0.0180
     25 C         -29.3706   48.1079   -2.1709 C.ar    1  UNL1        0.0739
     26 C         -29.0207   48.5167   -3.4692 C.ar    1  UNL1        0.0186
     27 H         -26.0014   44.9899   -2.0660 H       1  UNL1        0.1424
     28 H         -27.0681   45.1047   -0.6281 H       1  UNL1        0.1424
     29 C         -30.5639   48.7149   -1.4760 C.3     1  UNL1        0.4187
     30 F         -30.1849   49.1537   -0.2213 F       1  UNL1       -0.1659
     31 F         -31.5778   47.7822   -1.3405 F       1  UNL1       -0.1659
     32 F         -31.0579   49.7872   -2.1986 F       1  UNL1       -0.1659
     33 N         -23.0167   52.2100  -11.3151 N.pl3   1  UNL1       -0.2814
     34 H         -23.2279   52.2339  -12.3380 H       1  UNL1        0.1551
     35 C         -21.7627   52.7545  -10.8726 C.ar    1  UNL1        0.0889
     36 C         -20.6469   51.9045  -10.7895 C.ar    1  UNL1        0.1543
     37 F         -20.7567   50.5973  -11.1367 F       1  UNL1       -0.2028
     38 C         -19.4080   52.4013  -10.3759 C.ar    1  UNL1        0.0310
     39 C         -19.2740   53.7454  -10.0258 C.ar    1  UNL1        0.0033
     40 C         -20.3811   54.5943  -10.0752 C.ar    1  UNL1        0.0128
     41 C         -21.6284   54.1092  -10.4873 C.ar    1  UNL1        0.0733
     42 CL        -23.0008   55.2100  -10.4316 Cl      1  UNL1       -0.0809
@<TRIPOS>BOND
     1     1     2    1
     2     2     3   ar
     3     3    33    1
     4    33    35    1
     5    35    36   ar
     6    36    37    1
     7    36    38   ar
     8    38    39   ar
     9    39    40   ar
    10    40    41   ar
    11    41    42    1
    12     3     4   ar
    13     4     5   ar
    14     5     6   ar
    15     6     7   ar
    16     7    16    1
    17    16    17    2
    18    16    18   am
    19    18    20    1
    20    20    21   ar
    21    21    22   ar
    22    22    23    1
    23    22    24   ar
    24    24    25   ar
    25    25    29    1
    26    29    30    1
    27    29    31    1
    28    29    32    1
    29    25    26   ar
    30     7     8   ar
    31     8     9   ar
    32     9    10   ar
    33     9    11    1
    34    11    12    1
    35    12    13    1
    36    12    14    1
    37    12    15    1
    38    10     2   ar
    39    41    35   ar
    40    10     5   ar
    41    26    20   ar
    42    15     8    1
    43    33    34    1
    44    18    19    1
    45    23    27    1
    46    23    28    1
@<TRIPOS>MOLECULE
*****
 42 46 0 0 0
SMALL
GASTEIGER

@<TRIPOS>ATOM
      1 C         -28.9566   50.7263  -12.0260 C.3     1  UNL1        0.1332
      2 N         -27.5544   51.0438  -12.2972 N.ar    1  UNL1       -0.2977
      3 C         -26.9519   51.2657  -13.5013 C.ar    1  UNL1        0.2018
      4 N         -25.6160   51.4916  -13.4122 N.ar    1  UNL1       -0.2135
      5 C         -25.3884   51.4415  -12.0885 C.ar    1  UNL1        0.0999
      6 C         -24.1691   51.6501  -11.4311 C.ar    1  UNL1        0.0282
      7 C         -24.1520   51.6159  -10.0139 C.ar    1  UNL1        0.0888
      8 C         -25.3677   51.3424   -9.3403 C.ar    1  UNL1        0.1401
      9 C         -26.5486   51.1267  -10.0134 C.ar    1  UNL1        0.0327
     10 C         -26.5503   51.1834  -11.4104 C.ar    1  UNL1        0.0789
     11 C         -27.6449   50.8538   -9.0432 C.3     1  UNL1        0.0709
     12 C         -26.9238   50.9950   -7.6626 C.3     1  UNL1        0.1375
     13 C         -27.0297   49.7063   -6.8365 C.3     1  UNL1        0.0439
     14 C         -27.4744   52.1869   -6.8677 C.3     1  UNL1        0.0439
     15 O         -25.5519   51.2396   -7.9773 O.3     1  UNL1       -0.4824
     16 C         -22.8878   51.8456   -9.2836 C.2     1  UNL1        0.2525
     17 O         -22.7957   51.4531   -8.0889 O.2     1  UNL1       -0.2697
     18 N         -21.7770   52.5053   -9.9183 N.am    1  UNL1       -0.2803
     19 H         -21.8878   52.8507  -10.8971 H       1  UNL1        0.1552
     20 C         -20.5329   52.7969   -9.2606 C.ar    1  UNL1        0.0517
     21 C         -19.4789   51.8684   -9.2425 C.ar    1  UNL1        0.0287
     22 C         -18.2716   52.1782   -8.6029 C.ar    1  UNL1        0.0427
     23 N         -17.2101   51.2202   -8.5700 N.pl3   1  UNL1       -0.3570
     24 C         -18.1070   53.4318   -7.9991 C.ar    1  UNL1        0.0180
     25 C         -19.1313   54.3918   -8.0557 C.ar    1  UNL1        0.0739
     26 C         -20.3470   54.0581   -8.6768 C.ar    1  UNL1        0.0186
     27 H         -17.3214   50.2826   -9.0164 H       1  UNL1        0.1424
     28 H         -16.3046   51.4408   -8.0983 H       1  UNL1        0.1424
     29 C         -18.9649   55.7270   -7.3738 C.3     1  UNL1        0.4187
     30 F         -19.8341   55.8015   -6.3016 F       1  UNL1       -0.1659
     31 F         -19.2408   56.7619   -8.2508 F       1  UNL1       -0.1659
     32 F         -17.6684   55.8841   -6.9150 F       1  UNL1       -0.1659
     33 N         -27.6348   51.2952  -14.7629 N.pl3   1  UNL1       -0.2814
     34 H         -28.5320   51.8280  -14.8138 H       1  UNL1        0.1551
     35 C         -27.1974   50.5971  -15.9403 C.ar    1  UNL1        0.0889
     36 C         -25.9718   50.9577  -16.5253 C.ar    1  UNL1        0.1543
     37 F         -25.2140   51.9388  -15.9735 F       1  UNL1       -0.2028
     38 C         -25.5078   50.2922  -17.6631 C.ar    1  UNL1        0.0310
     39 C         -26.2685   49.2732  -18.2375 C.ar    1  UNL1        0.0033
     40 C         -27.5020   48.9249  -17.6840 C.ar    1  UNL1        0.0128
     41 C         -27.9789   49.5841  -16.5443 C.ar    1  UNL1        0.0733
     42 CL        -29.5844   49.1621  -15.9588 Cl      1  UNL1       -0.0809
@<TRIPOS>BOND
     1     1     2    1
     2     2     3   ar
     3     3    33    1
     4    33    35    1
     5    35    36   ar
     6    36    37    1
     7    36    38   ar
     8    38    39   ar
     9    39    40   ar
    10    40    41   ar
    11    41    42    1
    12     3     4   ar
    13     4     5   ar
    14     5     6   ar
    15     6     7   ar
    16     7    16    1
    17    16    17    2
    18    16    18   am
    19    18    20    1
    20    20    21   ar
    21    21    22   ar
    22    22    23    1
    23    22    24   ar
    24    24    25   ar
    25    25    29    1
    26    29    30    1
    27    29    31    1
    28    29    32    1
    29    25    26   ar
    30     7     8   ar
    31     8     9   ar
    32     9    10   ar
    33     9    11    1
    34    11    12    1
    35    12    13    1
    36    12    14    1
    37    12    15    1
    38    10     2   ar
    39    41    35   ar
    40    10     5   ar
    41    26    20   ar
    42    15     8    1
    43    33    34    1
    44    18    19    1
    45    23    27    1
    46    23    28    1
@<TRIPOS>MOLECULE
*****
 42 46 0 0 0
SMALL
GASTEIGER

@<TRIPOS>ATOM
      1 C         -30.2002   50.2014  -10.2722 C.3     1  UNL1        0.1332
      2 N         -28.9631   50.4948  -10.9961 N.ar    1  UNL1       -0.2977
      3 C         -28.7750   50.6115  -12.3426 C.ar    1  UNL1        0.2018
      4 N         -27.4852   50.8449  -12.6974 N.ar    1  UNL1       -0.2135
      5 C         -26.8528   50.9099  -11.5133 C.ar    1  UNL1        0.0999
      6 C         -25.4952   51.1754  -11.2926 C.ar    1  UNL1        0.0282
      7 C         -25.0336   51.2643   -9.9550 C.ar    1  UNL1        0.0888
      8 C         -25.9686   51.0498   -8.9130 C.ar    1  UNL1        0.1401
      9 C         -27.2946   50.7759   -9.1599 C.ar    1  UNL1        0.0327
     10 C         -27.7358   50.7111  -10.4851 C.ar    1  UNL1        0.0789
     11 C         -28.0234   50.5879   -7.8750 C.3     1  UNL1        0.0709
     12 C         -26.9100   50.8486   -6.8081 C.3     1  UNL1        0.1375
     13 C         -26.7157   49.6365   -5.8876 C.3     1  UNL1        0.0439
     14 C         -27.2164   52.1048   -5.9812 C.3     1  UNL1        0.0439
     15 O         -25.7133   51.0656   -7.5576 O.3     1  UNL1       -0.4824
     16 C         -23.6110   51.5570   -9.6814 C.2     1  UNL1        0.2525
     17 O         -23.2316   51.6636   -8.4836 O.2     1  UNL1       -0.2697
     18 N         -22.6694   51.7193  -10.7580 N.am    1  UNL1       -0.2803
     19 H         -23.0129   51.6593  -11.7418 H       1  UNL1        0.1552
     20 C         -21.2817   52.0423  -10.5702 C.ar    1  UNL1        0.0517
     21 C         -20.3280   51.7840  -11.5688 C.ar    1  UNL1        0.0287
     22 C         -18.9820   52.1160  -11.3669 C.ar    1  UNL1        0.0427
     23 N         -18.0127   51.8311  -12.3794 N.pl3   1  UNL1       -0.3570
     24 C         -18.5900   52.7316  -10.1709 C.ar    1  UNL1        0.0180
     25 C         -19.5402   53.0463   -9.1848 C.ar    1  UNL1        0.0739
     26 C         -20.8825   52.6833   -9.3888 C.ar    1  UNL1        0.0186
     27 H         -18.2932   51.3723  -13.2747 H       1  UNL1        0.1424
     28 H         -17.0068   52.0762  -12.2412 H       1  UNL1        0.1424
     29 C         -19.1100   53.6762   -7.8834 C.3     1  UNL1        0.4187
     30 F         -17.7379   53.5671   -7.7571 F       1  UNL1       -0.1659
     31 F         -19.7135   53.0429   -6.8105 F       1  UNL1       -0.1659
     32 F         -19.4613   55.0146   -7.8478 F       1  UNL1       -0.1659
     33 N         -29.8195   50.5311  -13.3230 N.pl3   1  UNL1       -0.2814
     34 H         -30.4544   51.3550  -13.4206 H       1  UNL1        0.1551
     35 C         -30.0839   49.3762  -14.1361 C.ar    1  UNL1        0.0889
     36 C         -30.9672   48.3958  -13.6533 C.ar    1  UNL1        0.1543
     37 F         -31.5670   48.5518  -12.4461 F       1  UNL1       -0.2028
     38 C         -31.2586   47.2656  -14.4217 C.ar    1  UNL1        0.0310
     39 C         -30.6598   47.0943  -15.6704 C.ar    1  UNL1        0.0033
     40 C         -29.7574   48.0457  -16.1493 C.ar    1  UNL1        0.0128
     41 C         -29.4562   49.1826  -15.3892 C.ar    1  UNL1        0.0733
     42 CL        -28.2368   50.2901  -16.0096 Cl      1  UNL1       -0.0809
@<TRIPOS>BOND
     1     1     2    1
     2     2     3   ar
     3     3    33    1
     4    33    35    1
     5    35    36   ar
     6    36    37    1
     7    36    38   ar
     8    38    39   ar
     9    39    40   ar
    10    40    41   ar
    11    41    42    1
    12     3     4   ar
    13     4     5   ar
    14     5     6   ar
    15     6     7   ar
    16     7    16    1
    17    16    17    2
    18    16    18   am
    19    18    20    1
    20    20    21   ar
    21    21    22   ar
    22    22    23    1
    23    22    24   ar
    24    24    25   ar
    25    25    29    1
    26    29    30    1
    27    29    31    1
    28    29    32    1
    29    25    26   ar
    30     7     8   ar
    31     8     9   ar
    32     9    10   ar
    33     9    11    1
    34    11    12    1
    35    12    13    1
    36    12    14    1
    37    12    15    1
    38    10     2   ar
    39    41    35   ar
    40    10     5   ar
    41    26    20   ar
    42    15     8    1
    43    33    34    1
    44    18    19    1
    45    23    27    1
    46    23    28    1
@<TRIPOS>MOLECULE
*****
 42 46 0 0 0
SMALL
GASTEIGER

@<TRIPOS>ATOM
      1 C         -24.0026   52.6662  -11.3444 C.3     1  UNL1        0.1332
      2 N         -23.7692   52.0381  -10.0438 N.ar    1  UNL1       -0.2977
      3 C         -22.6414   52.0697   -9.2762 C.ar    1  UNL1        0.2018
      4 N         -22.7346   51.3393   -8.1353 N.ar    1  UNL1       -0.2135
      5 C         -23.9903   50.8625   -8.1831 C.ar    1  UNL1        0.0999
      6 C         -24.6319   50.0708   -7.2219 C.ar    1  UNL1        0.0282
      7 C         -25.9901   49.7227   -7.4317 C.ar    1  UNL1        0.0888
      8 C         -26.6161   50.1719   -8.6202 C.ar    1  UNL1        0.1401
      9 C         -25.9560   50.9369   -9.5548 C.ar    1  UNL1        0.0327
     10 C         -24.6225   51.2867   -9.3218 C.ar    1  UNL1        0.0789
     11 C         -26.8639   51.2431  -10.6948 C.3     1  UNL1        0.0709
     12 C         -28.2051   50.5693  -10.2556 C.3     1  UNL1        0.1375
     13 C         -28.6725   49.5243  -11.2773 C.3     1  UNL1        0.0439
     14 C         -29.3022   51.6167  -10.0212 C.3     1  UNL1        0.0439
     15 O         -27.9120   49.9179   -9.0183 O.3     1  UNL1       -0.4824
     16 C         -26.7057   48.9007   -6.4334 C.2     1  UNL1        0.2525
     17 O         -27.3206   47.8707   -6.8220 O.2     1  UNL1       -0.2697
     18 N         -26.7056   49.2635   -5.0404 N.am    1  UNL1       -0.2803
     19 H         -26.2174   50.1382   -4.7471 H       1  UNL1        0.1552
     20 C         -27.4094   48.5358   -4.0203 C.ar    1  UNL1        0.0517
     21 C         -26.8053   47.4709   -3.3314 C.ar    1  UNL1        0.0287
     22 C         -27.5078   46.7819   -2.3343 C.ar    1  UNL1        0.0427
     23 N         -26.8942   45.6851   -1.6513 N.pl3   1  UNL1       -0.3570
     24 C         -28.8122   47.1740   -2.0061 C.ar    1  UNL1        0.0180
     25 C         -29.4108   48.2715   -2.6476 C.ar    1  UNL1        0.0739
     26 C         -28.7050   48.9366   -3.6647 C.ar    1  UNL1        0.0186
     27 H         -25.9225   45.3837   -1.8876 H       1  UNL1        0.1424
     28 H         -27.4071   45.1654   -0.9044 H       1  UNL1        0.1424
     29 C         -30.8281   48.6687   -2.3178 C.3     1  UNL1        0.4187
     30 F         -31.4423   49.1508   -3.4583 F       1  UNL1       -0.1659
     31 F         -30.8462   49.6535   -1.3451 F       1  UNL1       -0.1659
     32 F         -31.5436   47.5821   -1.8451 F       1  UNL1       -0.1659
     33 N         -21.4578   52.8158   -9.5943 N.pl3   1  UNL1       -0.2814
     34 H         -21.5729   53.6840  -10.1638 H       1  UNL1        0.1551
     35 C         -20.1252   52.4195   -9.2310 C.ar    1  UNL1        0.0889
     36 C         -19.6744   52.6767   -7.9251 C.ar    1  UNL1        0.1543
     37 F         -20.4944   53.2758   -7.0251 F       1  UNL1       -0.2028
     38 C         -18.3894   52.2938   -7.5318 C.ar    1  UNL1        0.0310
     39 C         -17.5365   51.6664   -8.4407 C.ar    1  UNL1        0.0033
     40 C         -17.9608   51.4316   -9.7498 C.ar    1  UNL1        0.0128
     41 C         -19.2458   51.8108  -10.1572 C.ar    1  UNL1        0.0733
     42 CL        -19.6788   51.5738  -11.8468 Cl      1  UNL1       -0.0809
@<TRIPOS>BOND
     1     1     2    1
     2     2     3   ar
     3     3    33    1
     4    33    35    1
     5    35    36   ar
     6    36    37    1
     7    36    38   ar
     8    38    39   ar
     9    39    40   ar
    10    40    41   ar
    11    41    42    1
    12     3     4   ar
    13     4     5   ar
    14     5     6   ar
    15     6     7   ar
    16     7    16    1
    17    16    17    2
    18    16    18   am
    19    18    20    1
    20    20    21   ar
    21    21    22   ar
    22    22    23    1
    23    22    24   ar
    24    24    25   ar
    25    25    29    1
    26    29    30    1
    27    29    31    1
    28    29    32    1
    29    25    26   ar
    30     7     8   ar
    31     8     9   ar
    32     9    10   ar
    33     9    11    1
    34    11    12    1
    35    12    13    1
    36    12    14    1
    37    12    15    1
    38    10     2   ar
    39    41    35   ar
    40    10     5   ar
    41    26    20   ar
    42    15     8    1
    43    33    34    1
    44    18    19    1
    45    23    27    1
    46    23    28    1
@<TRIPOS>MOLECULE
*****
 42 46 0 0 0
SMALL
GASTEIGER

@<TRIPOS>ATOM
      1 C         -24.3052   52.3841  -11.3924 C.3     1  UNL1        0.1332
      2 N         -23.9527   51.8480  -10.0776 N.ar    1  UNL1       -0.2977
      3 C         -22.7841   51.9919   -9.3879 C.ar    1  UNL1        0.2018
      4 N         -22.7602   51.3249   -8.2053 N.ar    1  UNL1       -0.2135
      5 C         -23.9835   50.7716   -8.1454 C.ar    1  UNL1        0.0999
      6 C         -24.5130   50.0002   -7.1029 C.ar    1  UNL1        0.0282
      7 C         -25.8567   49.5594   -7.2046 C.ar    1  UNL1        0.0888
      8 C         -26.5820   49.9003   -8.3725 C.ar    1  UNL1        0.1401
      9 C         -26.0308   50.6477   -9.3883 C.ar    1  UNL1        0.0327
     10 C         -24.7104   51.0900   -9.2619 C.ar    1  UNL1        0.0789
     11 C         -27.0247   50.8319  -10.4817 C.3     1  UNL1        0.0709
     12 C         -28.2907   50.1055   -9.9202 C.3     1  UNL1        0.1375
     13 C         -28.7527   48.9766  -10.8511 C.3     1  UNL1        0.0439
     14 C         -29.4358   51.0970   -9.6722 C.3     1  UNL1        0.0439
     15 O         -27.8811   49.5461   -8.6711 O.3     1  UNL1       -0.4824
     16 C         -26.4557   48.7555   -6.1187 C.2     1  UNL1        0.2525
     17 O         -27.3537   49.2750   -5.4019 O.2     1  UNL1       -0.2697
     18 N         -26.0266   47.4029   -5.8773 N.am    1  UNL1       -0.2803
     19 H         -25.2589   47.0054   -6.4622 H       1  UNL1        0.1552
     20 C         -26.5349   46.5754   -4.8179 C.ar    1  UNL1        0.0517
     21 C         -25.7172   46.1667   -3.7513 C.ar    1  UNL1        0.0287
     22 C         -26.2371   45.3675   -2.7249 C.ar    1  UNL1        0.0427
     23 N         -25.3937   44.9374   -1.6527 N.pl3   1  UNL1       -0.3570
     24 C         -27.5874   44.9946   -2.7509 C.ar    1  UNL1        0.0180
     25 C         -28.4317   45.4403   -3.7817 C.ar    1  UNL1        0.0739
     26 C         -27.8909   46.2189   -4.8193 C.ar    1  UNL1        0.0186
     27 H         -24.3857   45.2089   -1.6229 H       1  UNL1        0.1424
     28 H         -25.7707   44.3434   -0.8806 H       1  UNL1        0.1424
     29 C         -29.8761   45.0077   -3.8265 C.3     1  UNL1        0.4187
     30 F         -30.1171   44.1202   -2.7946 F       1  UNL1       -0.1659
     31 F         -30.1641   44.3884   -5.0306 F       1  UNL1       -0.1659
     32 F         -30.7180   46.0979   -3.6897 F       1  UNL1       -0.1659
     33 N         -21.6722   52.7879   -9.8223 N.pl3   1  UNL1       -0.2814
     34 H         -21.8836   53.6930  -10.2993 H       1  UNL1        0.1551
     35 C         -20.2949   52.3981   -9.6959 C.ar    1  UNL1        0.0889
     36 C         -19.6846   51.7128  -10.7600 C.ar    1  UNL1        0.1543
     37 F         -20.3862   51.4409  -11.8892 F       1  UNL1       -0.2028
     38 C         -18.3433   51.3294  -10.6783 C.ar    1  UNL1        0.0310
     39 C         -17.6032   51.6108   -9.5293 C.ar    1  UNL1        0.0033
     40 C         -18.2053   52.2646   -8.4528 C.ar    1  UNL1        0.0128
     41 C         -19.5487   52.6537   -8.5214 C.ar    1  UNL1        0.0733
     42 CL        -20.2695   53.3848   -7.0915 Cl      1  UNL1       -0.0809
@<TRIPOS>BOND
     1     1     2    1
     2     2     3   ar
     3     3    33    1
     4    33    35    1
     5    35    36   ar
     6    36    37    1
     7    36    38   ar
     8    38    39   ar
     9    39    40   ar
    10    40    41   ar
    11    41    42    1
    12     3     4   ar
    13     4     5   ar
    14     5     6   ar
    15     6     7   ar
    16     7    16    1
    17    16    17    2
    18    16    18   am
    19    18    20    1
    20    20    21   ar
    21    21    22   ar
    22    22    23    1
    23    22    24   ar
    24    24    25   ar
    25    25    29    1
    26    29    30    1
    27    29    31    1
    28    29    32    1
    29    25    26   ar
    30     7     8   ar
    31     8     9   ar
    32     9    10   ar
    33     9    11    1
    34    11    12    1
    35    12    13    1
    36    12    14    1
    37    12    15    1
    38    10     2   ar
    39    41    35   ar
    40    10     5   ar
    41    26    20   ar
    42    15     8    1
    43    33    34    1
    44    18    19    1
    45    23    27    1
    46    23    28    1
