@<TRIPOS>MOLECULE
*****
 36 41 0 0 0
SMALL
GASTEIGER

@<TRIPOS>ATOM
      1 C         -26.1504   -6.2329  -14.3702 C.ar    1  UNL1        0.1125
      2 N         -26.7833   -5.0694  -14.6647 N.ar    1  UNL1       -0.1676
      3 N         -26.2834   -4.6086  -15.8056 N.ar    1  UNL1       -0.2319
      4 C         -26.6842   -3.3577  -16.4350 C.3     1  UNL1        0.1554
      5 C         -25.3338   -5.4575  -16.2280 C.ar    1  UNL1        0.1654
      6 N         -24.5897   -5.3570  -17.3555 N.ar    1  UNL1       -0.2050
      7 C         -23.6679   -6.3330  -17.6062 C.ar    1  UNL1        0.2014
      8 N         -23.4873   -7.3630  -16.7205 N.ar    1  UNL1       -0.2089
      9 C         -24.2275   -7.4650  -15.5757 C.ar    1  UNL1        0.1379
     10 C         -25.2005   -6.4884  -15.3502 C.ar    1  UNL1        0.0866
     11 C         -25.8383   -7.1909  -12.0175 C.ar    1  UNL1        0.0840
     12 C         -26.5111   -7.0735  -13.2216 C.ar    1  UNL1        0.0911
     13 C         -27.6453   -7.8479  -13.0580 C.ar    1  UNL1        0.2415
     14 O         -28.6846   -7.9951  -13.9714 O.3     1  UNL1       -0.4910
     15 N         -27.6402   -8.4291  -11.8447 N.ar    1  UNL1       -0.1316
     16 N         -26.5380   -8.0360  -11.2229 N.ar    1  UNL1       -0.2459
     17 C         -26.1842   -8.4833   -9.8796 C.3     1  UNL1        0.1538
     18 H         -28.6851   -7.4982  -14.8534 H       1  UNL1        0.2938
     19 C         -20.7834   -4.7001  -10.6721 C.3     1  UNL1        0.0310
     20 C         -22.1009   -5.3413  -10.9929 C.ar    1  UNL1       -0.0218
     21 C         -23.1510   -4.5741  -11.5183 C.ar    1  UNL1       -0.0042
     22 C         -24.3668   -5.1777  -11.8509 C.ar    1  UNL1        0.0012
     23 C         -24.5440   -6.5598  -11.6780 C.ar    1  UNL1        0.0175
     24 C         -23.4886   -7.3279  -11.1632 C.ar    1  UNL1        0.0012
     25 C         -22.2723   -6.7242  -10.8311 C.ar    1  UNL1       -0.0042
     26 N         -23.9272   -8.4877  -14.6181 N.pl3   1  UNL1       -0.2917
     27 C         -22.6034   -8.6232  -14.0223 C.3     1  UNL1        0.0937
     28 C         -22.4828  -10.0846  -13.6030 C.3     1  UNL1        0.0391
     29 C         -23.9338  -10.5918  -13.5504 C.3     1  UNL1        0.0790
     30 C         -24.7027   -9.7140  -14.5347 C.3     1  UNL1        0.1081
     31 N         -24.1356  -12.0471  -13.7890 N.3     1  UNL1       -0.2723
     32 C         -23.2443  -12.5528  -14.8532 C.3     1  UNL1        0.0721
     33 C         -23.2585  -14.0872  -14.8666 C.3     1  UNL1        0.0174
     34 C         -24.6861  -14.6228  -15.0236 C.3     1  UNL1        0.0029
     35 C         -25.6229  -13.9961  -13.9849 C.3     1  UNL1        0.0174
     36 C         -25.5314  -12.4695  -14.0480 C.3     1  UNL1        0.0721
@<TRIPOS>BOND
     1    19    20    1
     2    20    21   ar
     3    21    22   ar
     4    22    23   ar
     5    23    11    1
     6    11    12   ar
     7    12     1    1
     8     1     2   ar
     9     2     3   ar
    10     3     4    1
    11     3     5   ar
    12     5     6   ar
    13     6     7   ar
    14     7     8   ar
    15     8     9   ar
    16     9    26    1
    17    26    27    1
    18    27    28    1
    19    28    29    1
    20    29    31    1
    21    31    32    1
    22    32    33    1
    23    33    34    1
    24    34    35    1
    25    35    36    1
    26    29    30    1
    27     9    10   ar
    28    12    13   ar
    29    13    14    1
    30    13    15   ar
    31    15    16   ar
    32    16    17    1
    33    23    24   ar
    34    24    25   ar
    35    25    20   ar
    36    16    11   ar
    37    10     1   ar
    38    10     5   ar
    39    30    26    1
    40    36    31    1
    41    14    18    1
@<TRIPOS>MOLECULE
*****
 36 41 0 0 0
SMALL
GASTEIGER

@<TRIPOS>ATOM
      1 C         -24.0425   -7.3614  -14.4007 C.ar    1  UNL1        0.1125
      2 N         -24.7448   -6.8169  -15.4261 N.ar    1  UNL1       -0.1676
      3 N         -23.9863   -6.8688  -16.5151 N.ar    1  UNL1       -0.2319
      4 C         -24.3783   -6.3478  -17.8176 C.3     1  UNL1        0.1554
      5 C         -22.8098   -7.4255  -16.1885 C.ar    1  UNL1        0.1654
      6 N         -21.7633   -7.6695  -17.0134 N.ar    1  UNL1       -0.2050
      7 C         -20.6463   -8.2472  -16.4808 C.ar    1  UNL1        0.2014
      8 N         -20.5848   -8.5390  -15.1432 N.ar    1  UNL1       -0.2089
      9 C         -21.6332   -8.2859  -14.3031 C.ar    1  UNL1        0.1379
     10 C         -22.7892   -7.7383  -14.8645 C.ar    1  UNL1        0.0866
     11 C         -24.9541   -8.7516  -12.4548 C.ar    1  UNL1        0.0840
     12 C         -24.6042   -7.5559  -13.0581 C.ar    1  UNL1        0.0911
     13 C         -24.8108   -6.6030  -12.0771 C.ar    1  UNL1        0.2415
     14 O         -24.5317   -5.2433  -12.1735 O.3     1  UNL1       -0.4910
     15 N         -25.2927   -7.1811  -10.9619 N.ar    1  UNL1       -0.1316
     16 N         -25.3876   -8.4812  -11.2002 N.ar    1  UNL1       -0.2459
     17 C         -25.8934   -9.4319  -10.2153 C.3     1  UNL1        0.1538
     18 H         -24.1156   -4.8488  -13.0078 H       1  UNL1        0.2938
     19 C         -24.8548  -13.9961  -14.9147 C.3     1  UNL1        0.0310
     20 C         -24.9045  -12.6460  -14.2632 C.ar    1  UNL1       -0.0218
     21 C         -24.1690  -12.3974  -13.0951 C.ar    1  UNL1       -0.0042
     22 C         -24.1865  -11.1294  -12.5077 C.ar    1  UNL1        0.0012
     23 C         -24.9269  -10.0878  -13.0894 C.ar    1  UNL1        0.0175
     24 C         -25.6530  -10.3349  -14.2644 C.ar    1  UNL1        0.0012
     25 C         -25.6348  -11.6032  -14.8522 C.ar    1  UNL1       -0.0042
     26 N         -21.4866   -8.4938  -12.8930 N.pl3   1  UNL1       -0.2917
     27 C         -21.1127   -7.4136  -11.9879 C.3     1  UNL1        0.0937
     28 C         -20.4598   -8.0856  -10.7845 C.3     1  UNL1        0.0391
     29 C         -20.9311   -9.5478  -10.8563 C.3     1  UNL1        0.0790
     30 C         -21.2133   -9.8072  -12.3341 C.3     1  UNL1        0.1081
     31 N         -20.0293  -10.5647  -10.2496 N.3     1  UNL1       -0.2723
     32 C         -18.7643   -9.9609   -9.7826 C.3     1  UNL1        0.0721
     33 C         -17.9976  -10.9589   -8.9045 C.3     1  UNL1        0.0174
     34 C         -17.7533  -12.2748   -9.6517 C.3     1  UNL1        0.0029
     35 C         -19.0609  -12.8254  -10.2315 C.3     1  UNL1        0.0174
     36 C         -19.7494  -11.7563  -11.0835 C.3     1  UNL1        0.0721
@<TRIPOS>BOND
     1    19    20    1
     2    20    21   ar
     3    21    22   ar
     4    22    23   ar
     5    23    11    1
     6    11    12   ar
     7    12     1    1
     8     1     2   ar
     9     2     3   ar
    10     3     4    1
    11     3     5   ar
    12     5     6   ar
    13     6     7   ar
    14     7     8   ar
    15     8     9   ar
    16     9    26    1
    17    26    27    1
    18    27    28    1
    19    28    29    1
    20    29    31    1
    21    31    32    1
    22    32    33    1
    23    33    34    1
    24    34    35    1
    25    35    36    1
    26    29    30    1
    27     9    10   ar
    28    12    13   ar
    29    13    14    1
    30    13    15   ar
    31    15    16   ar
    32    16    17    1
    33    23    24   ar
    34    24    25   ar
    35    25    20   ar
    36    16    11   ar
    37    10     1   ar
    38    10     5   ar
    39    30    26    1
    40    36    31    1
    41    14    18    1
@<TRIPOS>MOLECULE
*****
 36 41 0 0 0
SMALL
GASTEIGER

@<TRIPOS>ATOM
      1 C         -23.7533   -8.9306  -11.2434 C.ar    1  UNL1        0.1125
      2 N         -23.1949   -9.7546  -10.3213 N.ar    1  UNL1       -0.1676
      3 N         -24.1082  -10.0062   -9.3904 N.ar    1  UNL1       -0.2319
      4 C         -23.8767  -10.8271   -8.2097 C.3     1  UNL1        0.1554
      5 C         -25.2307   -9.3412   -9.7045 C.ar    1  UNL1        0.1654
      6 N         -26.3992   -9.3393   -9.0191 N.ar    1  UNL1       -0.2050
      7 C         -27.4304   -8.5899   -9.5091 C.ar    1  UNL1        0.2014
      8 N         -27.2672   -7.8408  -10.6450 N.ar    1  UNL1       -0.2089
      9 C         -26.0876   -7.8299  -11.3358 C.ar    1  UNL1        0.1379
     10 C         -25.0531   -8.6356  -10.8541 C.ar    1  UNL1        0.0866
     11 C         -23.0678   -9.1493  -13.6995 C.ar    1  UNL1        0.0840
     12 C         -23.0617   -8.5138  -12.4698 C.ar    1  UNL1        0.0911
     13 C         -22.3412   -7.3533  -12.6866 C.ar    1  UNL1        0.2415
     14 O         -22.1158   -6.3358  -11.7647 O.3     1  UNL1       -0.4910
     15 N         -21.9052   -7.3078  -13.9586 N.ar    1  UNL1       -0.1316
     16 N         -22.3393   -8.4034  -14.5645 N.ar    1  UNL1       -0.2459
     17 C         -22.0423   -8.7067  -15.9607 C.3     1  UNL1        0.1538
     18 H         -22.5065   -6.3743  -10.8316 H       1  UNL1        0.2938
     19 C         -25.5360  -14.2597  -14.8651 C.3     1  UNL1        0.0310
     20 C         -24.9063  -12.9387  -14.5358 C.ar    1  UNL1       -0.0218
     21 C         -23.5556  -12.8729  -14.1633 C.ar    1  UNL1       -0.0042
     22 C         -22.9590  -11.6388  -13.8911 C.ar    1  UNL1        0.0012
     23 C         -23.7004  -10.4517  -14.0036 C.ar    1  UNL1        0.0175
     24 C         -25.0483  -10.5181  -14.3876 C.ar    1  UNL1        0.0012
     25 C         -25.6449  -11.7527  -14.6603 C.ar    1  UNL1       -0.0042
     26 N         -25.9180   -6.9431  -12.4484 N.pl3   1  UNL1       -0.2917
     27 C         -25.2492   -5.6545  -12.3140 C.3     1  UNL1        0.0937
     28 C         -25.7966   -4.7816  -13.4384 C.3     1  UNL1        0.0391
     29 C         -26.3949   -5.7790  -14.4446 C.3     1  UNL1        0.0790
     30 C         -26.7795   -7.0031  -13.6173 C.3     1  UNL1        0.1081
     31 N         -27.5108   -5.2761  -15.2917 N.3     1  UNL1       -0.2723
     32 C         -27.1641   -3.9974  -15.9454 C.3     1  UNL1        0.0721
     33 C         -28.1970   -3.6641  -17.0303 C.3     1  UNL1        0.0174
     34 C         -29.6153   -3.6353  -16.4495 C.3     1  UNL1        0.0029
     35 C         -29.9146   -4.9224  -15.6731 C.3     1  UNL1        0.0174
     36 C         -28.8281   -5.1676  -14.6233 C.3     1  UNL1        0.0721
@<TRIPOS>BOND
     1    19    20    1
     2    20    21   ar
     3    21    22   ar
     4    22    23   ar
     5    23    11    1
     6    11    12   ar
     7    12     1    1
     8     1     2   ar
     9     2     3   ar
    10     3     4    1
    11     3     5   ar
    12     5     6   ar
    13     6     7   ar
    14     7     8   ar
    15     8     9   ar
    16     9    26    1
    17    26    27    1
    18    27    28    1
    19    28    29    1
    20    29    31    1
    21    31    32    1
    22    32    33    1
    23    33    34    1
    24    34    35    1
    25    35    36    1
    26    29    30    1
    27     9    10   ar
    28    12    13   ar
    29    13    14    1
    30    13    15   ar
    31    15    16   ar
    32    16    17    1
    33    23    24   ar
    34    24    25   ar
    35    25    20   ar
    36    16    11   ar
    37    10     1   ar
    38    10     5   ar
    39    30    26    1
    40    36    31    1
    41    14    18    1
@<TRIPOS>MOLECULE
*****
 36 41 0 0 0
SMALL
GASTEIGER

@<TRIPOS>ATOM
      1 C         -21.7273   -9.9318  -12.9346 C.ar    1  UNL1        0.1125
      2 N         -20.8371  -10.9468  -12.7990 N.ar    1  UNL1       -0.1676
      3 N         -20.9395  -11.4188  -11.5617 N.ar    1  UNL1       -0.2319
      4 C         -20.1206  -12.4946  -11.0200 C.3     1  UNL1        0.1554
      5 C         -21.8717  -10.7066  -10.9101 C.ar    1  UNL1        0.1654
      6 N         -22.2844  -10.8759   -9.6310 N.ar    1  UNL1       -0.2050
      7 C         -23.2516  -10.0393   -9.1518 C.ar    1  UNL1        0.2014
      8 N         -23.7608   -9.0409   -9.9405 N.ar    1  UNL1       -0.2089
      9 C         -23.3414   -8.8578  -11.2287 C.ar    1  UNL1        0.1379
     10 C         -22.3859   -9.7471  -11.7263 C.ar    1  UNL1        0.0866
     11 C         -22.6838   -9.6767  -15.2947 C.ar    1  UNL1        0.0840
     12 C         -21.9570   -9.2309  -14.2042 C.ar    1  UNL1        0.0911
     13 C         -21.5828   -7.9435  -14.5441 C.ar    1  UNL1        0.2415
     14 O         -20.8920   -7.0434  -13.7386 O.3     1  UNL1       -0.4910
     15 N         -22.0226   -7.6425  -15.7794 N.ar    1  UNL1       -0.1316
     16 N         -22.6797   -8.7000  -16.2334 N.ar    1  UNL1       -0.2459
     17 C         -23.2872   -8.7455  -17.5595 C.3     1  UNL1        0.1538
     18 H         -20.6249   -7.2816  -12.7916 H       1  UNL1        0.2938
     19 C         -25.0798  -14.9215  -15.8581 C.3     1  UNL1        0.0310
     20 C         -24.4524  -13.5702  -15.6847 C.ar    1  UNL1       -0.0218
     21 C         -23.1203  -13.3551  -16.0677 C.ar    1  UNL1       -0.0042
     22 C         -22.5462  -12.0873  -15.9397 C.ar    1  UNL1        0.0012
     23 C         -23.3012  -11.0130  -15.4423 C.ar    1  UNL1        0.0175
     24 C         -24.6371  -11.2271  -15.0704 C.ar    1  UNL1        0.0012
     25 C         -25.2115  -12.4952  -15.1990 C.ar    1  UNL1       -0.0042
     26 N         -23.8092   -7.7312  -11.9802 N.pl3   1  UNL1       -0.2917
     27 C         -23.5151   -6.3602  -11.5805 C.3     1  UNL1        0.0937
     28 C         -24.6283   -5.5046  -12.1760 C.3     1  UNL1        0.0391
     29 C         -25.2346   -6.3787  -13.2867 C.3     1  UNL1        0.0790
     30 C         -24.9644   -7.8188  -12.8577 C.3     1  UNL1        0.1081
     31 N         -26.6638   -6.1298  -13.6193 N.3     1  UNL1       -0.2723
     32 C         -27.4232   -7.3917  -13.7361 C.3     1  UNL1        0.0721
     33 C         -28.9288   -7.0979  -13.7783 C.3     1  UNL1        0.0174
     34 C         -29.2683   -6.1272  -14.9150 C.3     1  UNL1        0.0029
     35 C         -28.3868   -4.8751  -14.8466 C.3     1  UNL1        0.0174
     36 C         -26.9097   -5.2741  -14.8030 C.3     1  UNL1        0.0721
@<TRIPOS>BOND
     1    19    20    1
     2    20    21   ar
     3    21    22   ar
     4    22    23   ar
     5    23    11    1
     6    11    12   ar
     7    12     1    1
     8     1     2   ar
     9     2     3   ar
    10     3     4    1
    11     3     5   ar
    12     5     6   ar
    13     6     7   ar
    14     7     8   ar
    15     8     9   ar
    16     9    26    1
    17    26    27    1
    18    27    28    1
    19    28    29    1
    20    29    31    1
    21    31    32    1
    22    32    33    1
    23    33    34    1
    24    34    35    1
    25    35    36    1
    26    29    30    1
    27     9    10   ar
    28    12    13   ar
    29    13    14    1
    30    13    15   ar
    31    15    16   ar
    32    16    17    1
    33    23    24   ar
    34    24    25   ar
    35    25    20   ar
    36    16    11   ar
    37    10     1   ar
    38    10     5   ar
    39    30    26    1
    40    36    31    1
    41    14    18    1
@<TRIPOS>MOLECULE
*****
 36 41 0 0 0
SMALL
GASTEIGER

@<TRIPOS>ATOM
      1 C         -23.4843   -9.9161  -14.2280 C.ar    1  UNL1        0.1125
      2 N         -24.0818  -10.5561  -15.2646 N.ar    1  UNL1       -0.1676
      3 N         -23.3735  -10.3102  -16.3608 N.ar    1  UNL1       -0.2319
      4 C         -23.7171  -10.7967  -17.6900 C.3     1  UNL1        0.1554
      5 C         -22.3455   -9.5122  -16.0334 C.ar    1  UNL1        0.1654
      6 N         -21.3822   -9.0387  -16.8598 N.ar    1  UNL1       -0.2050
      7 C         -20.4166   -8.2337  -16.3264 C.ar    1  UNL1        0.2014
      8 N         -20.4484   -7.8956  -14.9987 N.ar    1  UNL1       -0.2089
      9 C         -21.4234   -8.3614  -14.1613 C.ar    1  UNL1        0.1379
     10 C         -22.3802   -9.2220  -14.7046 C.ar    1  UNL1        0.0866
     11 C         -24.9639   -9.3364  -12.2217 C.ar    1  UNL1        0.0840
     12 C         -23.9427  -10.0386  -12.8384 C.ar    1  UNL1        0.0911
     13 C         -23.5223  -10.9445  -11.8816 C.ar    1  UNL1        0.2415
     14 O         -22.5557  -11.9318  -12.0460 O.3     1  UNL1       -0.4910
     15 N         -24.2193  -10.7752  -10.7434 N.ar    1  UNL1       -0.1316
     16 N         -25.0838   -9.7927  -10.9518 N.ar    1  UNL1       -0.2459
     17 C         -26.0037   -9.3160   -9.9242 C.3     1  UNL1        0.1538
     18 H         -22.0896  -12.0699  -12.9340 H       1  UNL1        0.2938
     19 C         -28.0027   -5.0042  -14.5804 C.3     1  UNL1        0.0310
     20 C         -27.2084   -6.1346  -13.9964 C.ar    1  UNL1       -0.0218
     21 C         -25.8788   -5.9325  -13.5981 C.ar    1  UNL1       -0.0042
     22 C         -25.1497   -6.9758  -13.0210 C.ar    1  UNL1        0.0012
     23 C         -25.7452   -8.2313  -12.8191 C.ar    1  UNL1        0.0175
     24 C         -27.0790   -8.4286  -13.2075 C.ar    1  UNL1        0.0012
     25 C         -27.8084   -7.3848  -13.7842 C.ar    1  UNL1       -0.0042
     26 N         -21.4911   -7.8903  -12.8098 N.pl3   1  UNL1       -0.2917
     27 C         -21.5240   -6.4686  -12.4882 C.3     1  UNL1        0.0937
     28 C         -20.9696   -6.3487  -11.0725 C.3     1  UNL1        0.0391
     29 C         -21.0982   -7.7648  -10.4866 C.3     1  UNL1        0.0790
     30 C         -21.0493   -8.7037  -11.6894 C.3     1  UNL1        0.1081
     31 N         -20.1244   -8.1321   -9.4225 N.3     1  UNL1       -0.2723
     32 C         -19.7157   -9.5482   -9.5241 C.3     1  UNL1        0.0721
     33 C         -18.5047   -9.8127   -8.6194 C.3     1  UNL1        0.0174
     34 C         -18.8033   -9.4136   -7.1699 C.3     1  UNL1        0.0029
     35 C         -19.3394   -7.9795   -7.0967 C.3     1  UNL1        0.0174
     36 C         -20.5376   -7.8179   -8.0353 C.3     1  UNL1        0.0721
@<TRIPOS>BOND
     1    19    20    1
     2    20    21   ar
     3    21    22   ar
     4    22    23   ar
     5    23    11    1
     6    11    12   ar
     7    12     1    1
     8     1     2   ar
     9     2     3   ar
    10     3     4    1
    11     3     5   ar
    12     5     6   ar
    13     6     7   ar
    14     7     8   ar
    15     8     9   ar
    16     9    26    1
    17    26    27    1
    18    27    28    1
    19    28    29    1
    20    29    31    1
    21    31    32    1
    22    32    33    1
    23    33    34    1
    24    34    35    1
    25    35    36    1
    26    29    30    1
    27     9    10   ar
    28    12    13   ar
    29    13    14    1
    30    13    15   ar
    31    15    16   ar
    32    16    17    1
    33    23    24   ar
    34    24    25   ar
    35    25    20   ar
    36    16    11   ar
    37    10     1   ar
    38    10     5   ar
    39    30    26    1
    40    36    31    1
    41    14    18    1
@<TRIPOS>MOLECULE
*****
 36 41 0 0 0
SMALL
GASTEIGER

@<TRIPOS>ATOM
      1 C         -23.9676   -6.8545  -11.3769 C.ar    1  UNL1        0.1125
      2 N         -23.5545   -5.6779  -10.8419 N.ar    1  UNL1       -0.1676
      3 N         -22.2897   -5.4870  -11.1994 N.ar    1  UNL1       -0.2319
      4 C         -21.4810   -4.3470  -10.7900 C.3     1  UNL1        0.1554
      5 C         -21.8942   -6.5335  -11.9406 C.ar    1  UNL1        0.1654
      6 N         -20.6787   -6.7207  -12.5084 N.ar    1  UNL1       -0.2050
      7 C         -20.4752   -7.8625  -13.2295 C.ar    1  UNL1        0.2014
      8 N         -21.4687   -8.7996  -13.3429 N.ar    1  UNL1       -0.2089
      9 C         -22.6943   -8.6219  -12.7638 C.ar    1  UNL1        0.1379
     10 C         -22.9096   -7.4301  -12.0676 C.ar    1  UNL1        0.0866
     11 C         -26.3738   -7.1940  -12.1800 C.ar    1  UNL1        0.0840
     12 C         -25.3466   -7.3462  -11.2647 C.ar    1  UNL1        0.0911
     13 C         -25.8857   -8.1461  -10.2736 C.ar    1  UNL1        0.2415
     14 O         -25.2180   -8.6447   -9.1592 O.3     1  UNL1       -0.4910
     15 N         -27.1712   -8.4285  -10.5522 N.ar    1  UNL1       -0.1316
     16 N         -27.4645   -7.8403  -11.7029 N.ar    1  UNL1       -0.2459
     17 C         -28.7871   -7.9137  -12.3152 C.3     1  UNL1        0.1538
     18 H         -24.2342   -8.4601   -9.0084 H       1  UNL1        0.2938
     19 C         -26.1534   -4.1292  -17.0918 C.3     1  UNL1        0.0310
     20 C         -26.2331   -4.9376  -15.8308 C.ar    1  UNL1       -0.0218
     21 C         -25.4403   -6.0842  -15.6751 C.ar    1  UNL1       -0.0042
     22 C         -25.4876   -6.8175  -14.4864 C.ar    1  UNL1        0.0012
     23 C         -26.3162   -6.4053  -13.4304 C.ar    1  UNL1        0.0175
     24 C         -27.1001   -5.2516  -13.5833 C.ar    1  UNL1        0.0012
     25 C         -27.0522   -4.5177  -14.7723 C.ar    1  UNL1       -0.0042
     26 N         -23.6643   -9.6757  -12.8039 N.pl3   1  UNL1       -0.2917
     27 C         -23.8501  -10.5972  -11.6894 C.3     1  UNL1        0.0937
     28 C         -24.4349  -11.8695  -12.2938 C.3     1  UNL1        0.0391
     29 C         -24.9971  -11.4269  -13.6551 C.3     1  UNL1        0.0790
     30 C         -24.1645  -10.2124  -14.0584 C.3     1  UNL1        0.1081
     31 N         -25.0579  -12.4684  -14.7167 N.3     1  UNL1       -0.2723
     32 C         -25.3532  -13.8022  -14.1542 C.3     1  UNL1        0.0721
     33 C         -25.7042  -14.7827  -15.2813 C.3     1  UNL1        0.0174
     34 C         -24.5833  -14.8453  -16.3250 C.3     1  UNL1        0.0029
     35 C         -24.2085  -13.4406  -16.8101 C.3     1  UNL1        0.0174
     36 C         -23.8826  -12.5414  -15.6150 C.3     1  UNL1        0.0721
@<TRIPOS>BOND
     1    19    20    1
     2    20    21   ar
     3    21    22   ar
     4    22    23   ar
     5    23    11    1
     6    11    12   ar
     7    12     1    1
     8     1     2   ar
     9     2     3   ar
    10     3     4    1
    11     3     5   ar
    12     5     6   ar
    13     6     7   ar
    14     7     8   ar
    15     8     9   ar
    16     9    26    1
    17    26    27    1
    18    27    28    1
    19    28    29    1
    20    29    31    1
    21    31    32    1
    22    32    33    1
    23    33    34    1
    24    34    35    1
    25    35    36    1
    26    29    30    1
    27     9    10   ar
    28    12    13   ar
    29    13    14    1
    30    13    15   ar
    31    15    16   ar
    32    16    17    1
    33    23    24   ar
    34    24    25   ar
    35    25    20   ar
    36    16    11   ar
    37    10     1   ar
    38    10     5   ar
    39    30    26    1
    40    36    31    1
    41    14    18    1
@<TRIPOS>MOLECULE
*****
 36 41 0 0 0
SMALL
GASTEIGER

@<TRIPOS>ATOM
      1 C         -23.3270   -9.1499  -14.6931 C.ar    1  UNL1        0.1125
      2 N         -23.0976   -9.0088  -16.0229 N.ar    1  UNL1       -0.1676
      3 N         -23.6199  -10.0609  -16.6426 N.ar    1  UNL1       -0.2319
      4 C         -23.5470  -10.2910  -18.0791 C.3     1  UNL1        0.1554
      5 C         -24.1634  -10.8712  -15.7213 C.ar    1  UNL1        0.1654
      6 N         -24.8058  -12.0436  -15.9401 N.ar    1  UNL1       -0.2050
      7 C         -25.2893  -12.7231  -14.8586 C.ar    1  UNL1        0.2014
      8 N         -25.0972  -12.2394  -13.5908 N.ar    1  UNL1       -0.2089
      9 C         -24.4408  -11.0622  -13.3621 C.ar    1  UNL1        0.1379
     10 C         -23.9908  -10.3501  -14.4764 C.ar    1  UNL1        0.0866
     11 C         -23.7896   -7.1541  -13.1592 C.ar    1  UNL1        0.0840
     12 C         -22.9679   -8.1257  -13.7041 C.ar    1  UNL1        0.0911
     13 C         -21.7668   -7.9742  -13.0354 C.ar    1  UNL1        0.2415
     14 O         -20.6352   -8.7713  -13.1774 O.3     1  UNL1       -0.4910
     15 N         -21.8444   -6.9494  -12.1671 N.ar    1  UNL1       -0.1316
     16 N         -23.0686   -6.4496  -12.2541 N.ar    1  UNL1       -0.2459
     17 C         -23.5150   -5.3061  -11.4651 C.3     1  UNL1        0.1538
     18 H         -20.6286   -9.5707  -13.7985 H       1  UNL1        0.2938
     19 C         -29.2739   -6.0934  -14.6965 C.3     1  UNL1        0.0310
     20 C         -27.8518   -6.3869  -14.3206 C.ar    1  UNL1       -0.0218
     21 C         -26.8126   -5.5745  -14.7977 C.ar    1  UNL1       -0.0042
     22 C         -25.4910   -5.8259  -14.4189 C.ar    1  UNL1        0.0012
     23 C         -25.1920   -6.8832  -13.5447 C.ar    1  UNL1        0.0175
     24 C         -26.2339   -7.6879  -13.0592 C.ar    1  UNL1        0.0012
     25 C         -27.5559   -7.4359  -13.4377 C.ar    1  UNL1       -0.0042
     26 N         -24.1556  -10.6510  -12.0195 N.pl3   1  UNL1       -0.2917
     27 C         -25.0570   -9.7849  -11.2690 C.3     1  UNL1        0.0937
     28 C         -24.1903   -9.0826  -10.2290 C.3     1  UNL1        0.0391
     29 C         -22.9240   -9.9500  -10.1329 C.3     1  UNL1        0.0790
     30 C         -22.8016  -10.6350  -11.4918 C.3     1  UNL1        0.1081
     31 N         -21.6751   -9.2547   -9.7180 N.3     1  UNL1       -0.2723
     32 C         -20.4772  -10.0711  -10.0031 C.3     1  UNL1        0.0721
     33 C         -19.2104   -9.2190   -9.8477 C.3     1  UNL1        0.0174
     34 C         -19.1423   -8.5835   -8.4545 C.3     1  UNL1        0.0029
     35 C         -20.4421   -7.8397   -8.1284 C.3     1  UNL1        0.0174
     36 C         -21.6422   -8.7705   -8.3186 C.3     1  UNL1        0.0721
@<TRIPOS>BOND
     1    19    20    1
     2    20    21   ar
     3    21    22   ar
     4    22    23   ar
     5    23    11    1
     6    11    12   ar
     7    12     1    1
     8     1     2   ar
     9     2     3   ar
    10     3     4    1
    11     3     5   ar
    12     5     6   ar
    13     6     7   ar
    14     7     8   ar
    15     8     9   ar
    16     9    26    1
    17    26    27    1
    18    27    28    1
    19    28    29    1
    20    29    31    1
    21    31    32    1
    22    32    33    1
    23    33    34    1
    24    34    35    1
    25    35    36    1
    26    29    30    1
    27     9    10   ar
    28    12    13   ar
    29    13    14    1
    30    13    15   ar
    31    15    16   ar
    32    16    17    1
    33    23    24   ar
    34    24    25   ar
    35    25    20   ar
    36    16    11   ar
    37    10     1   ar
    38    10     5   ar
    39    30    26    1
    40    36    31    1
    41    14    18    1
@<TRIPOS>MOLECULE
*****
 36 41 0 0 0
SMALL
GASTEIGER

@<TRIPOS>ATOM
      1 C         -25.1962   -6.3347  -13.6245 C.ar    1  UNL1        0.1125
      2 N         -25.3912   -5.5170  -14.6896 N.ar    1  UNL1       -0.1676
      3 N         -26.6838   -5.5420  -14.9939 N.ar    1  UNL1       -0.2319
      4 C         -27.2825   -4.8165  -16.1060 C.3     1  UNL1        0.1554
      5 C         -27.3051   -6.3749  -14.1448 C.ar    1  UNL1        0.1654
      6 N         -28.6264   -6.6714  -14.1099 N.ar    1  UNL1       -0.2050
      7 C         -29.0627   -7.5512  -13.1609 C.ar    1  UNL1        0.2014
      8 N         -28.1763   -8.1353  -12.2941 N.ar    1  UNL1       -0.2089
      9 C         -26.8401   -7.8486  -12.3306 C.ar    1  UNL1        0.1379
     10 C         -26.4090   -6.9123  -13.2733 C.ar    1  UNL1        0.0866
     11 C         -22.8484   -7.3077  -13.3225 C.ar    1  UNL1        0.0840
     12 C         -23.8980   -6.4835  -12.9548 C.ar    1  UNL1        0.0911
     13 C         -23.4098   -5.7654  -11.8783 C.ar    1  UNL1        0.2415
     14 O         -24.0688   -4.7470  -11.1966 O.3     1  UNL1       -0.4910
     15 N         -22.1562   -6.1580  -11.5878 N.ar    1  UNL1       -0.1316
     16 N         -21.8253   -7.1000  -12.4591 N.ar    1  UNL1       -0.2459
     17 C         -20.5332   -7.7779  -12.4399 C.3     1  UNL1        0.1538
     18 H         -24.9905   -4.4361  -11.4770 H       1  UNL1        0.2938
     19 C         -22.8723  -11.1834  -17.6288 C.3     1  UNL1        0.0310
     20 C         -22.8513  -10.1989  -16.4974 C.ar    1  UNL1       -0.0218
     21 C         -21.8473   -9.2218  -16.4293 C.ar    1  UNL1       -0.0042
     22 C         -21.8477   -8.2818  -15.3951 C.ar    1  UNL1        0.0012
     23 C         -22.8614   -8.2956  -14.4236 C.ar    1  UNL1        0.0175
     24 C         -23.8716   -9.2665  -14.4996 C.ar    1  UNL1        0.0012
     25 C         -23.8714  -10.2064  -15.5345 C.ar    1  UNL1       -0.0042
     26 N         -25.9307   -8.5682  -11.4891 N.pl3   1  UNL1       -0.2917
     27 C         -25.4633   -8.0286  -10.2177 C.3     1  UNL1        0.0937
     28 C         -24.1220   -8.7022   -9.9471 C.3     1  UNL1        0.0391
     29 C         -24.1273   -9.9484  -10.8483 C.3     1  UNL1        0.0790
     30 C         -25.0496   -9.5982  -12.0135 C.3     1  UNL1        0.1081
     31 N         -22.7981  -10.4516  -11.2903 N.3     1  UNL1       -0.2723
     32 C         -22.9275  -11.6358  -12.1641 C.3     1  UNL1        0.0721
     33 C         -21.5830  -11.9426  -12.8372 C.3     1  UNL1        0.0174
     34 C         -20.4753  -12.1287  -11.7941 C.3     1  UNL1        0.0029
     35 C         -20.4342  -10.9440  -10.8225 C.3     1  UNL1        0.0174
     36 C         -21.8190  -10.7174  -10.2111 C.3     1  UNL1        0.0721
@<TRIPOS>BOND
     1    19    20    1
     2    20    21   ar
     3    21    22   ar
     4    22    23   ar
     5    23    11    1
     6    11    12   ar
     7    12     1    1
     8     1     2   ar
     9     2     3   ar
    10     3     4    1
    11     3     5   ar
    12     5     6   ar
    13     6     7   ar
    14     7     8   ar
    15     8     9   ar
    16     9    26    1
    17    26    27    1
    18    27    28    1
    19    28    29    1
    20    29    31    1
    21    31    32    1
    22    32    33    1
    23    33    34    1
    24    34    35    1
    25    35    36    1
    26    29    30    1
    27     9    10   ar
    28    12    13   ar
    29    13    14    1
    30    13    15   ar
    31    15    16   ar
    32    16    17    1
    33    23    24   ar
    34    24    25   ar
    35    25    20   ar
    36    16    11   ar
    37    10     1   ar
    38    10     5   ar
    39    30    26    1
    40    36    31    1
    41    14    18    1
@<TRIPOS>MOLECULE
*****
 36 41 0 0 0
SMALL
GASTEIGER

@<TRIPOS>ATOM
      1 C         -25.2492   -7.0441  -14.2332 C.ar    1  UNL1        0.1125
      2 N         -26.1996   -6.1165  -13.9548 N.ar    1  UNL1       -0.1676
      3 N         -26.3330   -5.3345  -15.0200 N.ar    1  UNL1       -0.2319
      4 C         -27.2361   -4.1943  -15.0969 C.3     1  UNL1        0.1554
      5 C         -25.4701   -5.7465  -15.9615 C.ar    1  UNL1        0.1654
      6 N         -25.2986   -5.2230  -17.1991 N.ar    1  UNL1       -0.2050
      7 C         -24.3602   -5.7910  -18.0127 C.ar    1  UNL1        0.2014
      8 N         -23.5980   -6.8398  -17.5687 N.ar    1  UNL1       -0.2089
      9 C         -23.7587   -7.3663  -16.3173 C.ar    1  UNL1        0.1379
     10 C         -24.7527   -6.8101  -15.5086 C.ar    1  UNL1        0.0866
     11 C         -23.9669   -8.1143  -12.2940 C.ar    1  UNL1        0.0840
     12 C         -24.9010   -8.1360  -13.3153 C.ar    1  UNL1        0.0911
     13 C         -25.4964   -9.3799  -13.2096 C.ar    1  UNL1        0.2415
     14 O         -26.5570   -9.8564  -13.9739 O.3     1  UNL1       -0.4910
     15 N         -24.9311  -10.0824  -12.2112 N.ar    1  UNL1       -0.1316
     16 N         -23.9979   -9.3148  -11.6670 N.ar    1  UNL1       -0.2459
     17 C         -23.1583   -9.7549  -10.5576 C.3     1  UNL1        0.1538
     18 H         -26.9979   -9.2804  -14.6801 H       1  UNL1        0.2938
     19 C         -20.3424   -3.7558  -11.0970 C.3     1  UNL1        0.0310
     20 C         -21.2859   -4.8723  -11.4330 C.ar    1  UNL1       -0.0218
     21 C         -20.7992   -6.0682  -11.9812 C.ar    1  UNL1       -0.0042
     22 C         -21.6733   -7.1222  -12.2611 C.ar    1  UNL1        0.0012
     23 C         -23.0439   -7.0011  -11.9815 C.ar    1  UNL1        0.0175
     24 C         -23.5276   -5.8084  -11.4225 C.ar    1  UNL1        0.0012
     25 C         -22.6531   -4.7544  -11.1420 C.ar    1  UNL1       -0.0042
     26 N         -22.8633   -8.3816  -15.8477 N.pl3   1  UNL1       -0.2917
     27 C         -21.4416   -8.3673  -16.1712 C.3     1  UNL1        0.0937
     28 C         -20.9779   -9.8170  -16.0750 C.3     1  UNL1        0.0391
     29 C         -22.0599  -10.5131  -15.2323 C.3     1  UNL1        0.0790
     30 C         -23.3326   -9.7019  -15.4625 C.3     1  UNL1        0.1081
     31 N         -22.2485  -11.9703  -15.4696 N.3     1  UNL1       -0.2723
     32 C         -23.6787  -12.3408  -15.4713 C.3     1  UNL1        0.0721
     33 C         -23.8522  -13.7670  -16.0104 C.3     1  UNL1        0.0174
     34 C         -23.0112  -14.7651  -15.2066 C.3     1  UNL1        0.0029
     35 C         -21.5528  -14.3025  -15.1149 C.3     1  UNL1        0.0174
     36 C         -21.4882  -12.8722  -14.5739 C.3     1  UNL1        0.0721
@<TRIPOS>BOND
     1    19    20    1
     2    20    21   ar
     3    21    22   ar
     4    22    23   ar
     5    23    11    1
     6    11    12   ar
     7    12     1    1
     8     1     2   ar
     9     2     3   ar
    10     3     4    1
    11     3     5   ar
    12     5     6   ar
    13     6     7   ar
    14     7     8   ar
    15     8     9   ar
    16     9    26    1
    17    26    27    1
    18    27    28    1
    19    28    29    1
    20    29    31    1
    21    31    32    1
    22    32    33    1
    23    33    34    1
    24    34    35    1
    25    35    36    1
    26    29    30    1
    27     9    10   ar
    28    12    13   ar
    29    13    14    1
    30    13    15   ar
    31    15    16   ar
    32    16    17    1
    33    23    24   ar
    34    24    25   ar
    35    25    20   ar
    36    16    11   ar
    37    10     1   ar
    38    10     5   ar
    39    30    26    1
    40    36    31    1
    41    14    18    1
