@<TRIPOS>MOLECULE
*****
 40 44 0 0 0
SMALL
GASTEIGER

@<TRIPOS>ATOM
      1 C         -22.7890   -8.5924  -10.4761 C.2     1  UNL1        0.2506
      2 O         -23.9473   -9.0453  -10.2678 O.2     1  UNL1       -0.2699
      3 N         -22.4983   -7.8959  -11.7044 N.am    1  UNL1       -0.2680
      4 C         -21.6210   -6.7206  -11.6903 C.3     1  UNL1        0.1412
      5 C         -20.2406   -7.0887  -12.2291 C.3     1  UNL1        0.2268
      6 O         -20.3211   -8.0988  -13.2329 O.3     1  UNL1       -0.4739
      7 C         -21.1612   -7.9905  -14.3432 C.ar    1  UNL1        0.1362
      8 C         -20.5739   -7.9192  -15.6093 C.ar    1  UNL1        0.0366
      9 C         -21.3621   -7.7818  -16.7514 C.ar    1  UNL1        0.0031
     10 C         -22.7605   -7.7314  -16.6479 C.ar    1  UNL1        0.0000
     11 C         -23.3535   -7.8293  -15.3769 C.ar    1  UNL1        0.0004
     12 C         -22.5712   -7.9553  -14.2152 C.ar    1  UNL1        0.0317
     13 C         -23.2979   -8.1930  -12.9014 C.3     1  UNL1        0.1236
     14 C         -23.5998   -7.5927  -17.8647 C.ar    1  UNL1        0.0027
     15 C         -24.3364   -6.3984  -18.0997 C.ar    1  UNL1        0.0157
     16 C         -25.1359   -6.2559  -19.2535 C.ar    1  UNL1        0.0609
     17 N         -25.8798   -5.0578  -19.4904 N.pl3   1  UNL1       -0.3558
     18 C         -25.1759   -7.3258  -20.1485 C.ar    1  UNL1        0.1113
     19 N         -25.8601   -7.4149  -21.3045 N.ar    1  UNL1       -0.2229
     20 C         -25.5348   -8.6545  -21.7562 C.ar    1  UNL1        0.1750
     21 N         -24.6895   -9.3230  -20.9362 N.ar    1  UNL1       -0.3349
     22 C         -24.4743   -8.4709  -19.9272 C.ar    1  UNL1        0.0769
     23 C         -23.6750   -8.6505  -18.8023 C.ar    1  UNL1        0.0186
     24 H         -26.4727   -4.9541  -20.3438 H       1  UNL1        0.1424
     25 H         -25.8417   -4.2648  -18.8120 H       1  UNL1        0.1424
     26 H         -24.2979  -10.2824  -21.0649 H       1  UNL1        0.1675
     27 C         -20.5464   -9.4632   -9.7100 C.ar    1  UNL1        0.0503
     28 C         -19.5741   -9.5468   -8.6921 C.ar    1  UNL1        0.0328
     29 C         -19.8067   -8.9902   -7.4286 C.ar    1  UNL1        0.1069
     30 C         -21.0141   -8.3356   -7.1705 C.ar    1  UNL1        0.0186
     31 C         -21.9834   -8.2345   -8.1673 C.ar    1  UNL1        0.0071
     32 C         -21.7551   -8.7760   -9.4404 C.ar    1  UNL1        0.0667
     33 S         -18.5694   -9.0974   -6.1803 S.O2    1  UNL1        0.0105
     34 C         -17.9075   -7.4770   -5.8677 C.3     1  UNL1        0.1816
     35 O         -19.1622   -9.6484   -4.9136 O.2     1  UNL1       -0.1686
     36 O         -17.4686  -10.0135   -6.6361 O.2     1  UNL1       -0.1686
     37 N         -20.3367  -10.0952  -10.9933 N.pl3   1  UNL1       -0.3325
     38 H         -19.9765   -9.5268  -11.7920 H       1  UNL1        0.1468
     39 C         -21.5304  -11.6679  -12.4515 C.3     1  UNL1        0.0229
     40 C         -20.5781  -11.5109  -11.2715 C.3     1  UNL1        0.0871
@<TRIPOS>BOND
     1    39    40    1
     2    40    37    1
     3    37    27    1
     4    27    28   ar
     5    28    29   ar
     6    29    33    1
     7    33    34    1
     8    33    35    2
     9    33    36    2
    10    29    30   ar
    11    30    31   ar
    12    31    32   ar
    13    32     1    1
    14     1     2    2
    15     1     3   am
    16     3     4    1
    17     4     5    1
    18     5     6    1
    19     6     7    1
    20     7     8   ar
    21     8     9   ar
    22     9    10   ar
    23    10    14    1
    24    14    15   ar
    25    15    16   ar
    26    16    17    1
    27    16    18   ar
    28    18    19   ar
    29    19    20   ar
    30    20    21   ar
    31    21    22   ar
    32    22    23   ar
    33    10    11   ar
    34    11    12   ar
    35    12    13    1
    36    32    27   ar
    37    13     3    1
    38    12     7   ar
    39    23    14   ar
    40    22    18   ar
    41    37    38    1
    42    17    24    1
    43    17    25    1
    44    21    26    1
@<TRIPOS>MOLECULE
*****
 40 44 0 0 0
SMALL
GASTEIGER

@<TRIPOS>ATOM
      1 C         -22.0360   -9.8446  -13.2029 C.2     1  UNL1        0.2506
      2 O         -21.7723  -10.1642  -14.3939 O.2     1  UNL1       -0.2699
      3 N         -23.2726   -9.1706  -12.8952 N.am    1  UNL1       -0.2680
      4 C         -24.0048   -9.5063  -11.6696 C.3     1  UNL1        0.1412
      5 C         -23.8017   -8.4157  -10.6204 C.3     1  UNL1        0.2268
      6 O         -23.6594   -7.1297  -11.2209 O.3     1  UNL1       -0.4739
      7 C         -24.5792   -6.6239  -12.1420 C.ar    1  UNL1        0.1362
      8 C         -25.3054   -5.4832  -11.7891 C.ar    1  UNL1        0.0366
      9 C         -26.2575   -4.9504  -12.6575 C.ar    1  UNL1        0.0031
     10 C         -26.4882   -5.5420  -13.9088 C.ar    1  UNL1        0.0000
     11 C         -25.7395   -6.6741  -14.2755 C.ar    1  UNL1        0.0004
     12 C         -24.7852   -7.2302  -13.4052 C.ar    1  UNL1        0.0317
     13 C         -23.9275   -8.3668  -13.9372 C.3     1  UNL1        0.1236
     14 C         -27.4967   -4.9700  -14.8362 C.ar    1  UNL1        0.0027
     15 C         -28.8839   -5.2068  -14.6274 C.ar    1  UNL1        0.0157
     16 C         -29.8504   -4.6669  -15.5021 C.ar    1  UNL1        0.0609
     17 N         -31.2451   -4.9062  -15.2962 N.pl3   1  UNL1       -0.3558
     18 C         -29.3948   -3.8972  -16.5732 C.ar    1  UNL1        0.1113
     19 N         -30.1249   -3.2858  -17.5248 N.ar    1  UNL1       -0.2229
     20 C         -29.1797   -2.6886  -18.2972 C.ar    1  UNL1        0.1750
     21 N         -27.9146   -2.9047  -17.8653 N.ar    1  UNL1       -0.3349
     22 C         -28.0687   -3.6693  -16.7780 C.ar    1  UNL1        0.0769
     23 C         -27.0849   -4.1837  -15.9390 C.ar    1  UNL1        0.0186
     24 H         -31.9596   -4.5075  -15.9452 H       1  UNL1        0.1424
     25 H         -31.5726   -5.4847  -14.4909 H       1  UNL1        0.1424
     26 H         -27.0258   -2.5539  -18.2864 H       1  UNL1        0.1675
     27 C         -20.7251  -11.5287  -11.8538 C.ar    1  UNL1        0.0503
     28 C         -19.7459  -11.7800  -10.8707 C.ar    1  UNL1        0.0328
     29 C         -19.1449  -10.7276  -10.1695 C.ar    1  UNL1        0.1069
     30 C         -19.5118   -9.4086  -10.4494 C.ar    1  UNL1        0.0186
     31 C         -20.4710   -9.1400  -11.4247 C.ar    1  UNL1        0.0071
     32 C         -21.0690  -10.1855  -12.1428 C.ar    1  UNL1        0.0667
     33 S         -17.9150  -11.0697   -8.9566 S.O2    1  UNL1        0.0105
     34 C         -17.8194  -12.8257   -8.6950 C.3     1  UNL1        0.1816
     35 O         -16.5791  -10.5595   -9.4198 O.2     1  UNL1       -0.1686
     36 O         -18.2719  -10.3854   -7.6669 O.2     1  UNL1       -0.1686
     37 N         -21.3957  -12.6157  -12.5313 N.pl3   1  UNL1       -0.3325
     38 H         -22.3747  -12.8611  -12.2627 H       1  UNL1        0.1468
     39 C         -21.8313  -13.6676  -14.7058 C.3     1  UNL1        0.0229
     40 C         -20.8065  -13.4143  -13.6060 C.3     1  UNL1        0.0871
@<TRIPOS>BOND
     1    39    40    1
     2    40    37    1
     3    37    27    1
     4    27    28   ar
     5    28    29   ar
     6    29    33    1
     7    33    34    1
     8    33    35    2
     9    33    36    2
    10    29    30   ar
    11    30    31   ar
    12    31    32   ar
    13    32     1    1
    14     1     2    2
    15     1     3   am
    16     3     4    1
    17     4     5    1
    18     5     6    1
    19     6     7    1
    20     7     8   ar
    21     8     9   ar
    22     9    10   ar
    23    10    14    1
    24    14    15   ar
    25    15    16   ar
    26    16    17    1
    27    16    18   ar
    28    18    19   ar
    29    19    20   ar
    30    20    21   ar
    31    21    22   ar
    32    22    23   ar
    33    10    11   ar
    34    11    12   ar
    35    12    13    1
    36    32    27   ar
    37    13     3    1
    38    12     7   ar
    39    23    14   ar
    40    22    18   ar
    41    37    38    1
    42    17    24    1
    43    17    25    1
    44    21    26    1
@<TRIPOS>MOLECULE
*****
 40 44 0 0 0
SMALL
GASTEIGER

@<TRIPOS>ATOM
      1 C         -21.7349   -8.3222   -9.4163 C.2     1  UNL1        0.2506
      2 O         -22.5326   -8.2301   -8.4441 O.2     1  UNL1       -0.2699
      3 N         -22.0276   -7.6444  -10.6546 N.am    1  UNL1       -0.2680
      4 C         -20.9462   -7.0115  -11.4169 C.3     1  UNL1        0.1412
      5 C         -20.5818   -7.8711  -12.6251 C.3     1  UNL1        0.2268
      6 O         -21.7193   -8.5595  -13.1416 O.3     1  UNL1       -0.4739
      7 C         -22.9097   -7.9062  -13.4677 C.ar    1  UNL1        0.1362
      8 C         -23.3156   -7.9048  -14.8050 C.ar    1  UNL1        0.0366
      9 C         -24.4807   -7.2444  -15.1931 C.ar    1  UNL1        0.0031
     10 C         -25.2744   -6.5852  -14.2421 C.ar    1  UNL1        0.0000
     11 C         -24.8808   -6.6081  -12.8926 C.ar    1  UNL1        0.0004
     12 C         -23.7018   -7.2591  -12.4881 C.ar    1  UNL1        0.0317
     13 C         -23.4269   -7.3512  -10.9959 C.3     1  UNL1        0.1236
     14 C         -26.5189   -5.8884  -14.6546 C.ar    1  UNL1        0.0027
     15 C         -26.4552   -4.7078  -15.4460 C.ar    1  UNL1        0.0157
     16 C         -27.6318   -4.0388  -15.8443 C.ar    1  UNL1        0.0609
     17 N         -27.5704   -2.8502  -16.6371 N.pl3   1  UNL1       -0.3558
     18 C         -28.8521   -4.5768  -15.4335 C.ar    1  UNL1        0.1113
     19 N         -30.0905   -4.1166  -15.6923 N.ar    1  UNL1       -0.2229
     20 C         -30.8882   -5.0160  -15.0588 C.ar    1  UNL1        0.1750
     21 N         -30.2003   -5.9979  -14.4292 N.ar    1  UNL1       -0.3349
     22 C         -28.9180   -5.7050  -14.6750 C.ar    1  UNL1        0.0769
     23 C         -27.7815   -6.3936  -14.2617 C.ar    1  UNL1        0.0186
     24 H         -28.4418   -2.3548  -16.9299 H       1  UNL1        0.1424
     25 H         -26.6504   -2.4576  -16.9372 H       1  UNL1        0.1424
     26 H         -30.5852   -6.7978  -13.8794 H       1  UNL1        0.1675
     27 C         -19.6525   -8.9511   -8.1345 C.ar    1  UNL1        0.0503
     28 C         -18.5249   -9.7887   -8.0112 C.ar    1  UNL1        0.0328
     29 C         -18.2302  -10.7460   -8.9895 C.ar    1  UNL1        0.1069
     30 C         -19.0661  -10.8819  -10.1011 C.ar    1  UNL1        0.0186
     31 C         -20.1909  -10.0693  -10.2355 C.ar    1  UNL1        0.0071
     32 C         -20.5031   -9.1171   -9.2548 C.ar    1  UNL1        0.0667
     33 S         -16.8230  -11.7880   -8.8031 S.O2    1  UNL1        0.0105
     34 C         -16.4145  -11.9214   -7.0778 C.3     1  UNL1        0.1816
     35 O         -17.1177  -13.1549   -9.3545 O.2     1  UNL1       -0.1686
     36 O         -15.6589  -11.2055   -9.5543 O.2     1  UNL1       -0.1686
     37 N         -19.9217   -7.9169   -7.1607 N.pl3   1  UNL1       -0.3325
     38 H         -20.7000   -7.2417   -7.3317 H       1  UNL1        0.1468
     39 C         -19.8058   -8.5825   -4.8010 C.3     1  UNL1        0.0229
     40 C         -19.1839   -7.7413   -5.9099 C.3     1  UNL1        0.0871
@<TRIPOS>BOND
     1    39    40    1
     2    40    37    1
     3    37    27    1
     4    27    28   ar
     5    28    29   ar
     6    29    33    1
     7    33    34    1
     8    33    35    2
     9    33    36    2
    10    29    30   ar
    11    30    31   ar
    12    31    32   ar
    13    32     1    1
    14     1     2    2
    15     1     3   am
    16     3     4    1
    17     4     5    1
    18     5     6    1
    19     6     7    1
    20     7     8   ar
    21     8     9   ar
    22     9    10   ar
    23    10    14    1
    24    14    15   ar
    25    15    16   ar
    26    16    17    1
    27    16    18   ar
    28    18    19   ar
    29    19    20   ar
    30    20    21   ar
    31    21    22   ar
    32    22    23   ar
    33    10    11   ar
    34    11    12   ar
    35    12    13    1
    36    32    27   ar
    37    13     3    1
    38    12     7   ar
    39    23    14   ar
    40    22    18   ar
    41    37    38    1
    42    17    24    1
    43    17    25    1
    44    21    26    1
@<TRIPOS>MOLECULE
*****
 40 44 0 0 0
SMALL
GASTEIGER

@<TRIPOS>ATOM
      1 C         -21.9942   -9.7037  -13.1427 C.2     1  UNL1        0.2506
      2 O         -21.7277   -9.9849  -14.3427 O.2     1  UNL1       -0.2699
      3 N         -23.2711   -9.1260  -12.8050 N.am    1  UNL1       -0.2680
      4 C         -23.9569   -9.5328  -11.5740 C.3     1  UNL1        0.1412
      5 C         -23.8159   -8.4466  -10.5102 C.3     1  UNL1        0.2268
      6 O         -23.7768   -7.1446  -11.0915 O.3     1  UNL1       -0.4739
      7 C         -24.7458   -6.6927  -11.9899 C.ar    1  UNL1        0.1362
      8 C         -25.5468   -5.6133  -11.6072 C.ar    1  UNL1        0.0366
      9 C         -26.5491   -5.1377  -12.4520 C.ar    1  UNL1        0.0031
     10 C         -26.7569   -5.7252  -13.7092 C.ar    1  UNL1        0.0000
     11 C         -25.9345   -6.7941  -14.1059 C.ar    1  UNL1        0.0004
     12 C         -24.9282   -7.2928  -13.2597 C.ar    1  UNL1        0.0317
     13 C         -23.9994   -8.3559  -13.8234 C.3     1  UNL1        0.1236
     14 C         -27.8192   -5.2136  -14.6115 C.ar    1  UNL1        0.0027
     15 C         -29.1604   -5.6687  -14.4762 C.ar    1  UNL1        0.0157
     16 C         -30.1775   -5.1881  -15.3277 C.ar    1  UNL1        0.0609
     17 N         -31.5257   -5.6463  -15.1958 N.pl3   1  UNL1       -0.3558
     18 C         -29.8183   -4.2556  -16.3017 C.ar    1  UNL1        0.1113
     19 N         -30.6107   -3.6625  -17.2143 N.ar    1  UNL1       -0.2229
     20 C         -29.7481   -2.8594  -17.8906 C.ar    1  UNL1        0.1750
     21 N         -28.4741   -2.9330  -17.4373 N.ar    1  UNL1       -0.3349
     22 C         -28.5364   -3.8185  -16.4361 C.ar    1  UNL1        0.0769
     23 C         -27.5051   -4.2680  -15.6169 C.ar    1  UNL1        0.0186
     24 H         -32.2775   -5.2912  -15.8277 H       1  UNL1        0.1424
     25 H         -31.7810   -6.3451  -14.4630 H       1  UNL1        0.1424
     26 H         -27.6382   -2.4163  -17.7903 H       1  UNL1        0.1675
     27 C         -20.3118   -8.9515  -11.4168 C.ar    1  UNL1        0.0503
     28 C         -19.4084   -9.2954  -10.3902 C.ar    1  UNL1        0.0328
     29 C         -19.1577  -10.6358  -10.0726 C.ar    1  UNL1        0.1069
     30 C         -19.8148  -11.6498  -10.7748 C.ar    1  UNL1        0.0186
     31 C         -20.7187  -11.3290  -11.7866 C.ar    1  UNL1        0.0071
     32 C         -20.9878   -9.9898  -12.1032 C.ar    1  UNL1        0.0667
     33 S         -18.0349  -11.0363   -8.7766 S.O2    1  UNL1        0.0105
     34 C         -18.3963  -10.0322   -7.3544 C.3     1  UNL1        0.1816
     35 O         -18.1676  -12.4881   -8.4106 O.2     1  UNL1       -0.1686
     36 O         -16.6254  -10.7802   -9.2310 O.2     1  UNL1       -0.1686
     37 N         -20.5217   -7.5712  -11.7921 N.pl3   1  UNL1       -0.3325
     38 H         -20.5279   -7.3101  -12.8034 H       1  UNL1        0.1468
     39 C         -21.2443   -5.2353  -11.5770 C.3     1  UNL1        0.0229
     40 C         -20.7497   -6.4786  -10.8465 C.3     1  UNL1        0.0871
@<TRIPOS>BOND
     1    39    40    1
     2    40    37    1
     3    37    27    1
     4    27    28   ar
     5    28    29   ar
     6    29    33    1
     7    33    34    1
     8    33    35    2
     9    33    36    2
    10    29    30   ar
    11    30    31   ar
    12    31    32   ar
    13    32     1    1
    14     1     2    2
    15     1     3   am
    16     3     4    1
    17     4     5    1
    18     5     6    1
    19     6     7    1
    20     7     8   ar
    21     8     9   ar
    22     9    10   ar
    23    10    14    1
    24    14    15   ar
    25    15    16   ar
    26    16    17    1
    27    16    18   ar
    28    18    19   ar
    29    19    20   ar
    30    20    21   ar
    31    21    22   ar
    32    22    23   ar
    33    10    11   ar
    34    11    12   ar
    35    12    13    1
    36    32    27   ar
    37    13     3    1
    38    12     7   ar
    39    23    14   ar
    40    22    18   ar
    41    37    38    1
    42    17    24    1
    43    17    25    1
    44    21    26    1
@<TRIPOS>MOLECULE
*****
 40 44 0 0 0
SMALL
GASTEIGER

@<TRIPOS>ATOM
      1 C         -22.1824   -8.1248   -9.5207 C.2     1  UNL1        0.2506
      2 O         -23.0076   -7.9955   -8.5761 O.2     1  UNL1       -0.2699
      3 N         -22.4139   -7.4543  -10.7758 N.am    1  UNL1       -0.2680
      4 C         -21.2893   -6.8650  -11.5101 C.3     1  UNL1        0.1412
      5 C         -20.9134   -7.7510  -12.6955 C.3     1  UNL1        0.2268
      6 O         -22.0547   -8.4105  -13.2405 O.3     1  UNL1       -0.4739
      7 C         -23.2131   -7.7250  -13.6127 C.ar    1  UNL1        0.1362
      8 C         -23.5756   -7.7285  -14.9624 C.ar    1  UNL1        0.0366
      9 C         -24.7065   -7.0375  -15.3960 C.ar    1  UNL1        0.0031
     10 C         -25.5093   -6.3419  -14.4792 C.ar    1  UNL1        0.0000
     11 C         -25.1601   -6.3595  -13.1175 C.ar    1  UNL1        0.0004
     12 C         -24.0156   -7.0413  -12.6671 C.ar    1  UNL1        0.0317
     13 C         -23.7917   -7.1225  -11.1659 C.3     1  UNL1        0.1236
     14 C         -26.7175   -5.6124  -14.9401 C.ar    1  UNL1        0.0027
     15 C         -28.0084   -5.9918  -14.4779 C.ar    1  UNL1        0.0157
     16 C         -29.1628   -5.3045  -14.9088 C.ar    1  UNL1        0.0609
     17 N         -30.4617   -5.6859  -14.4482 N.pl3   1  UNL1       -0.3558
     18 C         -28.9894   -4.2455  -15.8008 C.ar    1  UNL1        0.1113
     19 N         -29.9341   -3.4524  -16.3403 N.ar    1  UNL1       -0.2229
     20 C         -29.2120   -2.6057  -17.1202 C.ar    1  UNL1        0.1750
     21 N         -27.8792   -2.8423  -17.0831 N.ar    1  UNL1       -0.3349
     22 C         -27.7567   -3.8799  -16.2471 C.ar    1  UNL1        0.0769
     23 C         -26.5945   -4.5320  -15.8464 C.ar    1  UNL1        0.0186
     24 H         -31.3157   -5.1776  -14.7691 H       1  UNL1        0.1424
     25 H         -30.5775   -6.4810  -13.7811 H       1  UNL1        0.1424
     26 H         -27.1239   -2.3307  -17.5912 H       1  UNL1        0.1675
     27 C         -20.7170  -10.0955  -10.1069 C.ar    1  UNL1        0.0503
     28 C         -19.5186  -10.8070   -9.8928 C.ar    1  UNL1        0.0328
     29 C         -18.6197  -10.4166   -8.8929 C.ar    1  UNL1        0.1069
     30 C         -18.9063   -9.3030   -8.0987 C.ar    1  UNL1        0.0186
     31 C         -20.0815   -8.5813   -8.3019 C.ar    1  UNL1        0.0071
     32 C         -20.9819   -8.9551   -9.3098 C.ar    1  UNL1        0.0667
     33 S         -17.1240  -11.3154   -8.6566 S.O2    1  UNL1        0.0105
     34 C         -17.3845  -13.0175   -9.0998 C.3     1  UNL1        0.1816
     35 O         -16.0342  -10.7363   -9.5146 O.2     1  UNL1       -0.1686
     36 O         -16.7026  -11.2271   -7.2166 O.2     1  UNL1       -0.1686
     37 N         -21.6783  -10.5360  -11.0929 N.pl3   1  UNL1       -0.3325
     38 H         -22.6087  -10.0648  -11.1480 H       1  UNL1        0.1468
     39 C         -22.6313  -11.7401  -13.0077 C.3     1  UNL1        0.0229
     40 C         -21.4441  -11.6078  -12.0605 C.3     1  UNL1        0.0871
@<TRIPOS>BOND
     1    39    40    1
     2    40    37    1
     3    37    27    1
     4    27    28   ar
     5    28    29   ar
     6    29    33    1
     7    33    34    1
     8    33    35    2
     9    33    36    2
    10    29    30   ar
    11    30    31   ar
    12    31    32   ar
    13    32     1    1
    14     1     2    2
    15     1     3   am
    16     3     4    1
    17     4     5    1
    18     5     6    1
    19     6     7    1
    20     7     8   ar
    21     8     9   ar
    22     9    10   ar
    23    10    14    1
    24    14    15   ar
    25    15    16   ar
    26    16    17    1
    27    16    18   ar
    28    18    19   ar
    29    19    20   ar
    30    20    21   ar
    31    21    22   ar
    32    22    23   ar
    33    10    11   ar
    34    11    12   ar
    35    12    13    1
    36    32    27   ar
    37    13     3    1
    38    12     7   ar
    39    23    14   ar
    40    22    18   ar
    41    37    38    1
    42    17    24    1
    43    17    25    1
    44    21    26    1
@<TRIPOS>MOLECULE
*****
 40 44 0 0 0
SMALL
GASTEIGER

@<TRIPOS>ATOM
      1 C         -20.8698   -7.7291  -11.2257 C.2     1  UNL1        0.2506
      2 O         -20.1461   -7.1172  -12.0575 O.2     1  UNL1       -0.2699
      3 N         -22.2647   -7.9533  -11.5125 N.am    1  UNL1       -0.2680
      4 C         -22.8950   -9.2233  -11.1372 C.3     1  UNL1        0.1412
      5 C         -23.7597   -9.0334   -9.8931 C.3     1  UNL1        0.2268
      6 O         -24.3404   -7.7313   -9.8512 O.3     1  UNL1       -0.4739
      7 C         -25.0636   -7.1956  -10.9191 C.ar    1  UNL1        0.1362
      8 C         -26.4203   -6.9225  -10.7249 C.ar    1  UNL1        0.0366
      9 C         -27.1984   -6.4134  -11.7641 C.ar    1  UNL1        0.0031
     10 C         -26.6255   -6.1501  -13.0176 C.ar    1  UNL1        0.0000
     11 C         -25.2550   -6.3999  -13.2062 C.ar    1  UNL1        0.0004
     12 C         -24.4605   -6.9251  -12.1716 C.ar    1  UNL1        0.0317
     13 C         -22.9649   -7.0336  -12.4205 C.3     1  UNL1        0.1236
     14 C         -27.4526   -5.6011  -14.1216 C.ar    1  UNL1        0.0027
     15 C         -28.8127   -5.9927  -14.2665 C.ar    1  UNL1        0.0157
     16 C         -29.6077   -5.4760  -15.3113 C.ar    1  UNL1        0.0609
     17 N         -30.9740   -5.8704  -15.4611 N.pl3   1  UNL1       -0.3558
     18 C         -29.0109   -4.5723  -16.1915 C.ar    1  UNL1        0.1113
     19 N         -29.5682   -3.9543  -17.2497 N.ar    1  UNL1       -0.2229
     20 C         -28.5473   -3.1994  -17.7340 C.ar    1  UNL1        0.1750
     21 N         -27.3998   -3.3260  -17.0262 N.ar    1  UNL1       -0.3349
     22 C         -27.7097   -4.1960  -16.0579 C.ar    1  UNL1        0.0769
     23 C         -26.8929   -4.6826  -15.0418 C.ar    1  UNL1        0.0186
     24 H         -31.5611   -5.4887  -16.2358 H       1  UNL1        0.1424
     25 H         -31.4082   -6.5482  -14.7957 H       1  UNL1        0.1424
     26 H         -26.4854   -2.8523  -17.1992 H       1  UNL1        0.1675
     27 C         -19.6280   -9.4825   -9.8997 C.ar    1  UNL1        0.0503
     28 C         -19.0103   -9.8596   -8.6895 C.ar    1  UNL1        0.0328
     29 C         -19.0453   -9.0172   -7.5717 C.ar    1  UNL1        0.1069
     30 C         -19.6936   -7.7820   -7.6539 C.ar    1  UNL1        0.0186
     31 C         -20.3017   -7.3877   -8.8449 C.ar    1  UNL1        0.0071
     32 C         -20.2604   -8.2174   -9.9745 C.ar    1  UNL1        0.0667
     33 S         -18.2537   -9.5076   -6.0772 S.O2    1  UNL1        0.0105
     34 C         -19.3760   -9.2837   -4.7164 C.3     1  UNL1        0.1816
     35 O         -17.8489  -10.9529   -6.1590 O.2     1  UNL1       -0.1686
     36 O         -17.0226   -8.6735   -5.8593 O.2     1  UNL1       -0.1686
     37 N         -19.6517  -10.3785  -11.0341 N.pl3   1  UNL1       -0.3325
     38 H         -19.3702  -10.0223  -11.9747 H       1  UNL1        0.1468
     39 C         -20.9224  -12.1558  -12.1528 C.3     1  UNL1        0.0229
     40 C         -20.0324  -11.7895  -10.9705 C.3     1  UNL1        0.0871
@<TRIPOS>BOND
     1    39    40    1
     2    40    37    1
     3    37    27    1
     4    27    28   ar
     5    28    29   ar
     6    29    33    1
     7    33    34    1
     8    33    35    2
     9    33    36    2
    10    29    30   ar
    11    30    31   ar
    12    31    32   ar
    13    32     1    1
    14     1     2    2
    15     1     3   am
    16     3     4    1
    17     4     5    1
    18     5     6    1
    19     6     7    1
    20     7     8   ar
    21     8     9   ar
    22     9    10   ar
    23    10    14    1
    24    14    15   ar
    25    15    16   ar
    26    16    17    1
    27    16    18   ar
    28    18    19   ar
    29    19    20   ar
    30    20    21   ar
    31    21    22   ar
    32    22    23   ar
    33    10    11   ar
    34    11    12   ar
    35    12    13    1
    36    32    27   ar
    37    13     3    1
    38    12     7   ar
    39    23    14   ar
    40    22    18   ar
    41    37    38    1
    42    17    24    1
    43    17    25    1
    44    21    26    1
@<TRIPOS>MOLECULE
*****
 40 44 0 0 0
SMALL
GASTEIGER

@<TRIPOS>ATOM
      1 C         -21.3664   -6.7190  -11.0948 C.2     1  UNL1        0.2506
      2 O         -21.2652   -5.5318  -10.6821 O.2     1  UNL1       -0.2699
      3 N         -22.3010   -7.0391  -12.1447 N.am    1  UNL1       -0.2680
      4 C         -21.9357   -8.0123  -13.1794 C.3     1  UNL1        0.1412
      5 C         -22.6354   -9.3442  -12.9188 C.3     1  UNL1        0.2268
      6 O         -23.9155   -9.1560  -12.3185 O.3     1  UNL1       -0.4739
      7 C         -24.8808   -8.3028  -12.8576 C.ar    1  UNL1        0.1362
      8 C         -26.0765   -8.8649  -13.3129 C.ar    1  UNL1        0.0366
      9 C         -27.0645   -8.0651  -13.8862 C.ar    1  UNL1        0.0031
     10 C         -26.8802   -6.6786  -13.9982 C.ar    1  UNL1        0.0000
     11 C         -25.6886   -6.1087  -13.5167 C.ar    1  UNL1        0.0004
     12 C         -24.6780   -6.9040  -12.9478 C.ar    1  UNL1        0.0317
     13 C         -23.4866   -6.1902  -12.3302 C.3     1  UNL1        0.1236
     14 C         -27.9354   -5.8264  -14.6019 C.ar    1  UNL1        0.0027
     15 C         -29.3090   -6.0809  -14.3323 C.ar    1  UNL1        0.0157
     16 C         -30.3195   -5.2763  -14.9000 C.ar    1  UNL1        0.0609
     17 N         -31.7010   -5.5320  -14.6331 N.pl3   1  UNL1       -0.3558
     18 C         -29.9211   -4.2287  -15.7312 C.ar    1  UNL1        0.1113
     19 N         -30.6996   -3.3385  -16.3746 N.ar    1  UNL1       -0.2229
     20 C         -29.7968   -2.5583  -17.0248 C.ar    1  UNL1        0.1750
     21 N         -28.5115   -2.9271  -16.8105 N.ar    1  UNL1       -0.3349
     22 C         -28.6085   -3.9824  -15.9934 C.ar    1  UNL1        0.0769
     23 C         -27.5826   -4.7523  -15.4537 C.ar    1  UNL1        0.0186
     24 H         -32.4482   -4.9370  -15.0551 H       1  UNL1        0.1424
     25 H         -31.9856   -6.3199  -14.0096 H       1  UNL1        0.1424
     26 H         -27.6465   -2.4871  -17.1959 H       1  UNL1        0.1675
     27 C         -20.7931   -8.3212   -9.2296 C.ar    1  UNL1        0.0503
     28 C         -19.9649   -9.3548   -8.7460 C.ar    1  UNL1        0.0328
     29 C         -18.8615   -9.7972   -9.4857 C.ar    1  UNL1        0.1069
     30 C         -18.5776   -9.2146  -10.7238 C.ar    1  UNL1        0.0186
     31 C         -19.3907   -8.1981  -11.2227 C.ar    1  UNL1        0.0071
     32 C         -20.5064   -7.7572  -10.4968 C.ar    1  UNL1        0.0667
     33 S         -17.8520  -11.0992   -8.8638 S.O2    1  UNL1        0.0105
     34 C         -18.3604  -12.6380   -9.5952 C.3     1  UNL1        0.1816
     35 O         -16.4103  -10.8381   -9.1993 O.2     1  UNL1       -0.1686
     36 O         -17.9927  -11.1790   -7.3696 O.2     1  UNL1       -0.1686
     37 N         -21.8927   -7.8164   -8.4380 N.pl3   1  UNL1       -0.3325
     38 H         -21.9225   -6.8024   -8.1897 H       1  UNL1        0.1468
     39 C         -23.8466   -9.1337   -9.1247 C.3     1  UNL1        0.0229
     40 C         -23.0098   -8.6278   -7.9551 C.3     1  UNL1        0.0871
@<TRIPOS>BOND
     1    39    40    1
     2    40    37    1
     3    37    27    1
     4    27    28   ar
     5    28    29   ar
     6    29    33    1
     7    33    34    1
     8    33    35    2
     9    33    36    2
    10    29    30   ar
    11    30    31   ar
    12    31    32   ar
    13    32     1    1
    14     1     2    2
    15     1     3   am
    16     3     4    1
    17     4     5    1
    18     5     6    1
    19     6     7    1
    20     7     8   ar
    21     8     9   ar
    22     9    10   ar
    23    10    14    1
    24    14    15   ar
    25    15    16   ar
    26    16    17    1
    27    16    18   ar
    28    18    19   ar
    29    19    20   ar
    30    20    21   ar
    31    21    22   ar
    32    22    23   ar
    33    10    11   ar
    34    11    12   ar
    35    12    13    1
    36    32    27   ar
    37    13     3    1
    38    12     7   ar
    39    23    14   ar
    40    22    18   ar
    41    37    38    1
    42    17    24    1
    43    17    25    1
    44    21    26    1
@<TRIPOS>MOLECULE
*****
 40 44 0 0 0
SMALL
GASTEIGER

@<TRIPOS>ATOM
      1 C         -20.7526   -7.2419   -9.2958 C.2     1  UNL1        0.2506
      2 O         -21.2556   -6.0894   -9.3891 O.2     1  UNL1       -0.2699
      3 N         -20.5556   -8.0396  -10.4803 N.am    1  UNL1       -0.2680
      4 C         -19.3514   -8.8659  -10.6153 C.3     1  UNL1        0.1412
      5 C         -19.6901  -10.3335  -10.3643 C.3     1  UNL1        0.2268
      6 O         -21.0116  -10.6489  -10.7988 O.3     1  UNL1       -0.4739
      7 C         -21.4716  -10.3527  -12.0837 C.ar    1  UNL1        0.1362
      8 C         -21.8131  -11.4168  -12.9229 C.ar    1  UNL1        0.0366
      9 C         -22.2514  -11.1818  -14.2256 C.ar    1  UNL1        0.0031
     10 C         -22.3738   -9.8700  -14.7085 C.ar    1  UNL1        0.0000
     11 C         -22.0554   -8.7980  -13.8565 C.ar    1  UNL1        0.0004
     12 C         -21.6000   -9.0197  -12.5447 C.ar    1  UNL1        0.0317
     13 C         -21.4118   -7.8042  -11.6516 C.3     1  UNL1        0.1236
     14 C         -22.8476   -9.6199  -16.0932 C.ar    1  UNL1        0.0027
     15 C         -22.9107  -10.6833  -17.0363 C.ar    1  UNL1        0.0157
     16 C         -23.3607  -10.4566  -18.3542 C.ar    1  UNL1        0.0609
     17 N         -23.4220  -11.5230  -19.3049 N.pl3   1  UNL1       -0.3558
     18 C         -23.7381   -9.1568  -18.6938 C.ar    1  UNL1        0.1113
     19 N         -24.1962   -8.7088  -19.8779 N.ar    1  UNL1       -0.2229
     20 C         -24.4043   -7.3866  -19.6435 C.ar    1  UNL1        0.1750
     21 N         -24.0971   -7.0077  -18.3802 N.ar    1  UNL1       -0.3349
     22 C         -23.6779   -8.1360  -17.7956 C.ar    1  UNL1        0.0769
     23 C         -23.2400   -8.3182  -16.4873 C.ar    1  UNL1        0.0186
     24 H         -23.7535  -11.3537  -20.2806 H       1  UNL1        0.1424
     25 H         -23.1358  -12.4911  -19.0378 H       1  UNL1        0.1424
     26 H         -24.1715   -6.0537  -17.9620 H       1  UNL1        0.1675
     27 C         -21.2680   -8.4550   -7.1422 C.ar    1  UNL1        0.0503
     28 C         -20.8085   -8.9608   -5.9088 C.ar    1  UNL1        0.0328
     29 C         -19.4918   -8.7398   -5.4871 C.ar    1  UNL1        0.1069
     30 C         -18.6155   -8.0152   -6.2994 C.ar    1  UNL1        0.0186
     31 C         -19.0489   -7.5156   -7.5266 C.ar    1  UNL1        0.0071
     32 C         -20.3612   -7.7430   -7.9650 C.ar    1  UNL1        0.0667
     33 S         -18.9408   -9.3948   -3.9482 S.O2    1  UNL1        0.0105
     34 C         -17.9323   -8.1859   -3.1219 C.3     1  UNL1        0.1816
     35 O         -20.1207   -9.7378   -3.0825 O.2     1  UNL1       -0.1686
     36 O         -18.1389  -10.6432   -4.1875 O.2     1  UNL1       -0.1686
     37 N         -22.6450   -8.6235   -7.5494 N.pl3   1  UNL1       -0.3325
     38 H         -23.3566   -7.9180   -7.2551 H       1  UNL1        0.1468
     39 C         -24.2065   -9.2264   -9.3447 C.3     1  UNL1        0.0229
     40 C         -23.1375   -9.7237   -8.3782 C.3     1  UNL1        0.0871
@<TRIPOS>BOND
     1    39    40    1
     2    40    37    1
     3    37    27    1
     4    27    28   ar
     5    28    29   ar
     6    29    33    1
     7    33    34    1
     8    33    35    2
     9    33    36    2
    10    29    30   ar
    11    30    31   ar
    12    31    32   ar
    13    32     1    1
    14     1     2    2
    15     1     3   am
    16     3     4    1
    17     4     5    1
    18     5     6    1
    19     6     7    1
    20     7     8   ar
    21     8     9   ar
    22     9    10   ar
    23    10    14    1
    24    14    15   ar
    25    15    16   ar
    26    16    17    1
    27    16    18   ar
    28    18    19   ar
    29    19    20   ar
    30    20    21   ar
    31    21    22   ar
    32    22    23   ar
    33    10    11   ar
    34    11    12   ar
    35    12    13    1
    36    32    27   ar
    37    13     3    1
    38    12     7   ar
    39    23    14   ar
    40    22    18   ar
    41    37    38    1
    42    17    24    1
    43    17    25    1
    44    21    26    1
@<TRIPOS>MOLECULE
*****
 40 44 0 0 0
SMALL
GASTEIGER

@<TRIPOS>ATOM
      1 C         -26.1954   -7.9961  -11.2691 C.2     1  UNL1        0.2506
      2 O         -26.7056   -8.2046  -10.1350 O.2     1  UNL1       -0.2699
      3 N         -24.9018   -8.5464  -11.5888 N.am    1  UNL1       -0.2680
      4 C         -24.6422   -9.0753  -12.9320 C.3     1  UNL1        0.1412
      5 C         -23.7959   -8.0873  -13.7314 C.3     1  UNL1        0.2268
      6 O         -22.8924   -7.3707  -12.8919 O.3     1  UNL1       -0.4739
      7 C         -22.0213   -8.0093  -12.0065 C.ar    1  UNL1        0.1362
      8 C         -20.6472   -7.8787  -12.2251 C.ar    1  UNL1        0.0366
      9 C         -19.7312   -8.5174  -11.3900 C.ar    1  UNL1        0.0031
     10 C         -20.1758   -9.2874  -10.3045 C.ar    1  UNL1        0.0000
     11 C         -21.5573   -9.3980  -10.0683 C.ar    1  UNL1        0.0004
     12 C         -22.4932   -8.7702  -10.9093 C.ar    1  UNL1        0.0317
     13 C         -23.9559   -8.8292  -10.4999 C.3     1  UNL1        0.1236
     14 C         -19.2000   -9.9612   -9.4111 C.ar    1  UNL1        0.0027
     15 C         -18.4481  -11.0761   -9.8756 C.ar    1  UNL1        0.0157
     16 C         -17.5174  -11.7226   -9.0351 C.ar    1  UNL1        0.0609
     17 N         -16.7628  -12.8454   -9.4985 N.pl3   1  UNL1       -0.3558
     18 C         -17.3652  -11.2291   -7.7387 C.ar    1  UNL1        0.1113
     19 N         -16.5442  -11.6788   -6.7711 N.ar    1  UNL1       -0.2229
     20 C         -16.8050  -10.8386   -5.7355 C.ar    1  UNL1        0.1750
     21 N         -17.7404   -9.9024   -6.0226 N.ar    1  UNL1       -0.3349
     22 C         -18.0834  -10.1639   -7.2893 C.ar    1  UNL1        0.0769
     23 C         -19.0105   -9.4994   -8.0864 C.ar    1  UNL1        0.0186
     24 H         -16.0754  -13.3244   -8.8750 H       1  UNL1        0.1424
     25 H         -16.8869  -13.2053  -10.4710 H       1  UNL1        0.1424
     26 H         -18.1072   -9.1511   -5.3970 H       1  UNL1        0.1675
     27 C         -26.6416   -5.8389  -12.5029 C.ar    1  UNL1        0.0503
     28 C         -27.3612   -5.1543  -13.5038 C.ar    1  UNL1        0.0328
     29 C         -28.3818   -5.7924  -14.2191 C.ar    1  UNL1        0.1069
     30 C         -28.6901   -7.1277  -13.9460 C.ar    1  UNL1        0.0186
     31 C         -27.9830   -7.8239  -12.9667 C.ar    1  UNL1        0.0071
     32 C         -26.9497   -7.1988  -12.2543 C.ar    1  UNL1        0.0667
     33 S         -29.2550   -4.9173  -15.4731 S.O2    1  UNL1        0.0105
     34 C         -28.0906   -4.0924  -16.5339 C.3     1  UNL1        0.1816
     35 O         -30.0829   -5.8726  -16.2864 O.2     1  UNL1       -0.1686
     36 O         -30.1683   -3.9047  -14.8413 O.2     1  UNL1       -0.1686
     37 N         -25.6337   -5.1634  -11.7167 N.pl3   1  UNL1       -0.3325
     38 H         -25.8021   -4.9993  -10.6991 H       1  UNL1        0.1468
     39 C         -23.2654   -4.8124  -11.1760 C.3     1  UNL1        0.0229
     40 C         -24.3515   -4.6909  -12.2388 C.3     1  UNL1        0.0871
@<TRIPOS>BOND
     1    39    40    1
     2    40    37    1
     3    37    27    1
     4    27    28   ar
     5    28    29   ar
     6    29    33    1
     7    33    34    1
     8    33    35    2
     9    33    36    2
    10    29    30   ar
    11    30    31   ar
    12    31    32   ar
    13    32     1    1
    14     1     2    2
    15     1     3   am
    16     3     4    1
    17     4     5    1
    18     5     6    1
    19     6     7    1
    20     7     8   ar
    21     8     9   ar
    22     9    10   ar
    23    10    14    1
    24    14    15   ar
    25    15    16   ar
    26    16    17    1
    27    16    18   ar
    28    18    19   ar
    29    19    20   ar
    30    20    21   ar
    31    21    22   ar
    32    22    23   ar
    33    10    11   ar
    34    11    12   ar
    35    12    13    1
    36    32    27   ar
    37    13     3    1
    38    12     7   ar
    39    23    14   ar
    40    22    18   ar
    41    37    38    1
    42    17    24    1
    43    17    25    1
    44    21    26    1
