@<TRIPOS>MOLECULE
*****
 48 53 0 0 0
SMALL
GASTEIGER

@<TRIPOS>ATOM
      1 C          13.5558   83.2835   24.6546 C.2     1  UNL1        0.2483
      2 O          14.2401   83.8487   25.5513 O.2     1  UNL1       -0.2701
      3 N          13.5649   83.8055   23.3161 N.am    1  UNL1       -0.2945
      4 H          12.8332   83.4796   22.6446 H       1  UNL1        0.1501
      5 C          11.1210   79.8923   25.6937 C.ar    1  UNL1        0.0502
      6 C          10.5782   81.1864   25.6731 C.ar    1  UNL1        0.0148
      7 C          11.3769   82.2830   25.3394 C.ar    1  UNL1        0.0080
      8 C          12.7305   82.1064   25.0068 C.ar    1  UNL1        0.0808
      9 C          13.2786   80.8091   25.0408 C.ar    1  UNL1        0.1457
     10 F          14.5969   80.5995   24.7959 F       1  UNL1       -0.2040
     11 C          12.4760   79.7144   25.3773 C.ar    1  UNL1        0.0443
     12 N           8.3251   76.9573   26.7826 N.pl3   1  UNL1       -0.3041
     13 C           8.2291   77.5830   25.4584 C.3     1  UNL1        0.1122
     14 C           9.6178   78.0018   24.9800 C.3     1  UNL1        0.1122
     15 N          10.3026   78.7578   26.0354 N.pl3   1  UNL1       -0.3040
     16 C          10.3985   78.1446   27.3659 C.3     1  UNL1        0.1122
     17 C           9.0140   77.7007   27.8444 C.3     1  UNL1        0.1122
     18 C           5.7326   74.3256   30.1299 C.3     1  UNL1        0.0320
     19 C           6.2317   74.5099   28.7227 C.ar    1  UNL1       -0.0092
     20 C           7.0299   75.6219   28.4080 C.ar    1  UNL1        0.0112
     21 C           7.5038   75.8183   27.1020 C.ar    1  UNL1        0.0485
     22 C           7.1758   74.8883   26.1067 C.ar    1  UNL1        0.0267
     23 C           6.3823   73.7768   26.4042 C.ar    1  UNL1        0.0691
     24 CL          6.0059   72.6413   25.1142 Cl      1  UNL1       -0.0813
     25 C           5.9050   73.5808   27.7124 C.ar    1  UNL1        0.0643
     26 CL          4.9023   72.1746   28.0797 Cl      1  UNL1       -0.0817
     27 C          14.5254   84.8290   22.8905 C.3     1  UNL1        0.1535
     28 C          14.7914   84.6988   21.4121 C.2     1  UNL1        0.2443
     29 O          15.5715   83.7979   20.9984 O.2     1  UNL1       -0.2730
     30 N          14.0775   85.5303   20.4831 N.am    1  UNL1       -0.2825
     31 H          13.2717   86.0878   20.8474 H       1  UNL1        0.1549
     32 C          14.2899   85.5116   19.0626 C.ar    1  UNL1        0.0535
     33 C          14.1291   86.6934   18.3269 C.ar    1  UNL1        0.0353
     34 C          14.3538   86.6847   16.9483 C.ar    1  UNL1        0.1002
     35 N          14.7420   85.5392   16.3280 N.ar    1  UNL1       -0.2422
     36 C          14.9244   84.3823   17.0182 C.ar    1  UNL1        0.1002
     37 C          14.7089   84.3471   18.3982 C.ar    1  UNL1        0.0353
     38 C          13.9944   86.2367   23.2235 C.3     1  UNL1        0.0569
     39 C          14.7580   86.8643   24.3555 C.ar    1  UNL1       -0.0017
     40 C          14.2704   87.1400   25.6300 C.ar    1  UNL1        0.0681
     41 N          15.1928   87.8155   26.3525 N.ar    1  UNL1       -0.3523
     42 C          16.2527   87.9791   25.5419 C.ar    1  UNL1        0.0563
     43 C          17.4422   88.6465   25.8306 C.ar    1  UNL1        0.0170
     44 C          18.4137   88.7271   24.8161 C.ar    1  UNL1        0.0015
     45 C          18.1751   88.1502   23.5488 C.ar    1  UNL1        0.0001
     46 C          16.9635   87.4860   23.2846 C.ar    1  UNL1        0.0012
     47 C          16.0232   87.4158   24.3127 C.ar    1  UNL1        0.0131
     48 H          15.0888   88.1602   27.3328 H       1  UNL1        0.1660
@<TRIPOS>BOND
     1    18    19    1
     2    19    20   ar
     3    20    21   ar
     4    21    12    1
     5    12    13    1
     6    13    14    1
     7    14    15    1
     8    15     5    1
     9     5     6   ar
    10     6     7   ar
    11     7     8   ar
    12     8     1    1
    13     1     2    2
    14     1     3   am
    15     3    27    1
    16    27    38    1
    17    38    39    1
    18    39    40   ar
    19    40    41   ar
    20    41    42   ar
    21    42    43   ar
    22    43    44   ar
    23    44    45   ar
    24    45    46   ar
    25    46    47   ar
    26    27    28    1
    27    28    29    2
    28    28    30   am
    29    30    32    1
    30    32    33   ar
    31    33    34   ar
    32    34    35   ar
    33    35    36   ar
    34    36    37   ar
    35     8     9   ar
    36     9    10    1
    37     9    11   ar
    38    15    16    1
    39    16    17    1
    40    21    22   ar
    41    22    23   ar
    42    23    24    1
    43    23    25   ar
    44    25    26    1
    45    25    19   ar
    46    17    12    1
    47    11     5   ar
    48    47    39   ar
    49    37    32   ar
    50    47    42   ar
    51     3     4    1
    52    41    48    1
    53    30    31    1
@<TRIPOS>MOLECULE
*****
 48 53 0 0 0
SMALL
GASTEIGER

@<TRIPOS>ATOM
      1 C          13.6883   83.5683   24.2382 C.2     1  UNL1        0.2483
      2 O          14.7030   83.4032   23.5066 O.2     1  UNL1       -0.2701
      3 N          13.3568   84.8840   24.7104 N.am    1  UNL1       -0.2945
      4 H          12.6637   84.9794   25.4870 H       1  UNL1        0.1501
      5 C          11.2787   80.1852   25.3592 C.ar    1  UNL1        0.0502
      6 C          10.6907   81.4359   25.1149 C.ar    1  UNL1        0.0148
      7 C          11.4809   82.5308   24.7561 C.ar    1  UNL1        0.0080
      8 C          12.8727   82.3941   24.6215 C.ar    1  UNL1        0.0808
      9 C          13.4643   81.1422   24.8802 C.ar    1  UNL1        0.1457
     10 F          14.8109   80.9808   24.8314 F       1  UNL1       -0.2040
     11 C          12.6699   80.0492   25.2410 C.ar    1  UNL1        0.0443
     12 N           8.7462   77.1967   26.8668 N.pl3   1  UNL1       -0.3041
     13 C           8.1626   78.3375   26.1512 C.3     1  UNL1        0.1122
     14 C           9.1519   78.8594   25.1110 C.3     1  UNL1        0.1122
     15 N          10.4696   79.0525   25.7280 N.pl3   1  UNL1       -0.3040
     16 C          11.0600   77.9203   26.4524 C.3     1  UNL1        0.1122
     17 C          10.0670   77.3756   27.4819 C.3     1  UNL1        0.1122
     18 C           6.3855   74.5130   30.3418 C.3     1  UNL1        0.0320
     19 C           6.7610   74.7367   28.9022 C.ar    1  UNL1       -0.0092
     20 C           7.5619   75.8371   28.5555 C.ar    1  UNL1        0.0112
     21 C           7.9219   76.0698   27.2194 C.ar    1  UNL1        0.0485
     22 C           7.4764   75.1880   26.2259 C.ar    1  UNL1        0.0267
     23 C           6.6786   74.0885   26.5552 C.ar    1  UNL1        0.0691
     24 CL          6.1518   73.0140   25.2656 Cl      1  UNL1       -0.0813
     25 C           6.3155   73.8563   27.8938 C.ar    1  UNL1        0.0643
     26 CL          5.3064   72.4657   28.3012 Cl      1  UNL1       -0.0817
     27 C          14.0129   86.0846   24.1819 C.3     1  UNL1        0.1535
     28 C          13.7326   86.2140   22.7061 C.2     1  UNL1        0.2443
     29 O          12.6595   86.7552   22.3228 O.2     1  UNL1       -0.2730
     30 N          14.7314   85.8163   21.7529 N.am    1  UNL1       -0.2825
     31 H          15.6898   85.6026   22.1116 H       1  UNL1        0.1549
     32 C          14.5446   85.8609   20.3294 C.ar    1  UNL1        0.0535
     33 C          14.5033   84.6635   19.6027 C.ar    1  UNL1        0.0353
     34 C          14.3020   84.7007   18.2210 C.ar    1  UNL1        0.1002
     35 N          14.1310   85.8918   17.5887 N.ar    1  UNL1       -0.2422
     36 C          14.1473   87.0682   18.2698 C.ar    1  UNL1        0.1002
     37 C          14.3472   87.0758   19.6525 C.ar    1  UNL1        0.0353
     38 C          13.5300   87.3380   24.9370 C.3     1  UNL1        0.0569
     39 C          14.6251   87.9385   25.7728 C.ar    1  UNL1       -0.0017
     40 C          15.9646   88.0644   25.4151 C.ar    1  UNL1        0.0681
     41 N          16.6883   88.5389   26.4544 N.ar    1  UNL1       -0.3523
     42 C          15.8202   88.7019   27.4679 C.ar    1  UNL1        0.0563
     43 C          16.1033   89.1408   28.7605 C.ar    1  UNL1        0.0170
     44 C          15.0404   89.2065   29.6800 C.ar    1  UNL1        0.0015
     45 C          13.7345   88.8312   29.2929 C.ar    1  UNL1        0.0001
     46 C          13.4792   88.3883   27.9823 C.ar    1  UNL1        0.0012
     47 C          14.5516   88.3414   27.0915 C.ar    1  UNL1        0.0131
     48 H          17.7171   88.7172   26.4698 H       1  UNL1        0.1660
@<TRIPOS>BOND
     1    18    19    1
     2    19    20   ar
     3    20    21   ar
     4    21    12    1
     5    12    13    1
     6    13    14    1
     7    14    15    1
     8    15     5    1
     9     5     6   ar
    10     6     7   ar
    11     7     8   ar
    12     8     1    1
    13     1     2    2
    14     1     3   am
    15     3    27    1
    16    27    38    1
    17    38    39    1
    18    39    40   ar
    19    40    41   ar
    20    41    42   ar
    21    42    43   ar
    22    43    44   ar
    23    44    45   ar
    24    45    46   ar
    25    46    47   ar
    26    27    28    1
    27    28    29    2
    28    28    30   am
    29    30    32    1
    30    32    33   ar
    31    33    34   ar
    32    34    35   ar
    33    35    36   ar
    34    36    37   ar
    35     8     9   ar
    36     9    10    1
    37     9    11   ar
    38    15    16    1
    39    16    17    1
    40    21    22   ar
    41    22    23   ar
    42    23    24    1
    43    23    25   ar
    44    25    26    1
    45    25    19   ar
    46    17    12    1
    47    11     5   ar
    48    47    39   ar
    49    37    32   ar
    50    47    42   ar
    51     3     4    1
    52    41    48    1
    53    30    31    1
@<TRIPOS>MOLECULE
*****
 48 53 0 0 0
SMALL
GASTEIGER

@<TRIPOS>ATOM
      1 C           9.2409   75.7560   26.1566 C.2     1  UNL1        0.2483
      2 O           9.7340   74.9902   27.0297 O.2     1  UNL1       -0.2701
      3 N           8.0362   75.3747   25.4729 N.am    1  UNL1       -0.2945
      4 H           7.7644   75.8930   24.6068 H       1  UNL1        0.1501
      5 C          11.2926   79.4170   25.2102 C.ar    1  UNL1        0.0502
      6 C          11.9526   78.1814   25.1243 C.ar    1  UNL1        0.0148
      7 C          11.2806   76.9974   25.4383 C.ar    1  UNL1        0.0080
      8 C           9.9320   77.0238   25.8313 C.ar    1  UNL1        0.0808
      9 C           9.2736   78.2652   25.9306 C.ar    1  UNL1        0.1457
     10 F           7.9932   78.3451   26.3736 F       1  UNL1       -0.2040
     11 C           9.9506   79.4481   25.6173 C.ar    1  UNL1        0.0443
     12 N          13.2096   83.1287   24.8033 N.pl3   1  UNL1       -0.3041
     13 C          13.9062   82.0330   25.4876 C.3     1  UNL1        0.1122
     14 C          13.4457   80.6911   24.9217 C.3     1  UNL1        0.1122
     15 N          11.9793   80.6407   24.8867 N.pl3   1  UNL1       -0.3040
     16 C          11.2716   81.7351   24.2108 C.3     1  UNL1        0.1122
     17 C          11.7431   83.0856   24.7554 C.3     1  UNL1        0.1122
     18 C          15.5305   85.9942   21.4486 C.3     1  UNL1        0.0320
     19 C          15.0611   85.7605   22.8587 C.ar    1  UNL1       -0.0092
     20 C          14.3684   84.5802   23.1744 C.ar    1  UNL1        0.0112
     21 C          13.9164   84.3413   24.4812 C.ar    1  UNL1        0.0485
     22 C          14.1659   85.2941   25.4777 C.ar    1  UNL1        0.0267
     23 C          14.8537   86.4736   25.1790 C.ar    1  UNL1        0.0691
     24 CL         15.1403   87.6317   26.4721 Cl      1  UNL1       -0.0813
     25 C          15.3047   86.7147   23.8691 C.ar    1  UNL1        0.0643
     26 CL         16.1719   88.2079   23.4999 Cl      1  UNL1       -0.0817
     27 C           7.2201   74.2396   25.9165 C.3     1  UNL1        0.1535
     28 C           6.6939   74.4988   27.3054 C.2     1  UNL1        0.2443
     29 O           6.7578   73.5863   28.1742 O.2     1  UNL1       -0.2730
     30 N           6.2215   75.8096   27.6561 N.am    1  UNL1       -0.2825
     31 H           6.4102   76.5907   26.9874 H       1  UNL1        0.1549
     32 C           5.6637   76.1454   28.9364 C.ar    1  UNL1        0.0535
     33 C           6.4938   76.1644   30.0652 C.ar    1  UNL1        0.0353
     34 C           5.9601   76.5097   31.3091 C.ar    1  UNL1        0.1002
     35 N           4.6464   76.8408   31.4193 N.ar    1  UNL1       -0.2422
     36 C           3.8213   76.8495   30.3390 C.ar    1  UNL1        0.1002
     37 C           4.3143   76.5091   29.0768 C.ar    1  UNL1        0.0353
     38 C           6.0586   73.9956   24.9338 C.3     1  UNL1        0.0569
     39 C           6.5581   73.6606   23.5566 C.ar    1  UNL1       -0.0017
     40 C           7.8274   73.1931   23.2278 C.ar    1  UNL1        0.0681
     41 N           7.9683   73.1138   21.8850 N.ar    1  UNL1       -0.3523
     42 C           6.8041   73.5384   21.3637 C.ar    1  UNL1        0.0563
     43 C           6.4796   73.6666   20.0139 C.ar    1  UNL1        0.0170
     44 C           5.2051   74.1660   19.6887 C.ar    1  UNL1        0.0015
     45 C           4.2961   74.5270   20.7082 C.ar    1  UNL1        0.0001
     46 C           4.6525   74.3906   22.0621 C.ar    1  UNL1        0.0012
     47 C           5.9198   73.8854   22.3529 C.ar    1  UNL1        0.0131
     48 H           8.8194   72.8080   21.3629 H       1  UNL1        0.1660
@<TRIPOS>BOND
     1    18    19    1
     2    19    20   ar
     3    20    21   ar
     4    21    12    1
     5    12    13    1
     6    13    14    1
     7    14    15    1
     8    15     5    1
     9     5     6   ar
    10     6     7   ar
    11     7     8   ar
    12     8     1    1
    13     1     2    2
    14     1     3   am
    15     3    27    1
    16    27    38    1
    17    38    39    1
    18    39    40   ar
    19    40    41   ar
    20    41    42   ar
    21    42    43   ar
    22    43    44   ar
    23    44    45   ar
    24    45    46   ar
    25    46    47   ar
    26    27    28    1
    27    28    29    2
    28    28    30   am
    29    30    32    1
    30    32    33   ar
    31    33    34   ar
    32    34    35   ar
    33    35    36   ar
    34    36    37   ar
    35     8     9   ar
    36     9    10    1
    37     9    11   ar
    38    15    16    1
    39    16    17    1
    40    21    22   ar
    41    22    23   ar
    42    23    24    1
    43    23    25   ar
    44    25    26    1
    45    25    19   ar
    46    17    12    1
    47    11     5   ar
    48    47    39   ar
    49    37    32   ar
    50    47    42   ar
    51     3     4    1
    52    41    48    1
    53    30    31    1
@<TRIPOS>MOLECULE
*****
 48 53 0 0 0
SMALL
GASTEIGER

@<TRIPOS>ATOM
      1 C           9.2873   75.8029   26.1671 C.2     1  UNL1        0.2483
      2 O           9.7802   75.0405   27.0434 O.2     1  UNL1       -0.2701
      3 N           8.0821   75.4195   25.4856 N.am    1  UNL1       -0.2945
      4 H           7.8104   75.9343   24.6173 H       1  UNL1        0.1501
      5 C          11.3417   79.4586   25.2064 C.ar    1  UNL1        0.0502
      6 C          12.0168   78.2284   25.1831 C.ar    1  UNL1        0.0148
      7 C          11.3435   77.0463   25.5013 C.ar    1  UNL1        0.0080
      8 C           9.9792   77.0688   25.8360 C.ar    1  UNL1        0.0808
      9 C           9.3052   78.3052   25.8728 C.ar    1  UNL1        0.1457
     10 F           8.0064   78.3832   26.2588 F       1  UNL1       -0.2040
     11 C           9.9833   79.4863   25.5555 C.ar    1  UNL1        0.0443
     12 N          13.2434   83.1759   24.7792 N.pl3   1  UNL1       -0.3041
     13 C          13.9249   82.1016   25.5109 C.3     1  UNL1        0.1122
     14 C          13.4937   80.7436   24.9606 C.3     1  UNL1        0.1122
     15 N          12.0296   80.6804   24.8781 N.pl3   1  UNL1       -0.3040
     16 C          11.3367   81.7535   24.1545 C.3     1  UNL1        0.1122
     17 C          11.7797   83.1197   24.6837 C.3     1  UNL1        0.1122
     18 C          15.0833   87.5931   26.1774 C.3     1  UNL1        0.0320
     19 C          14.8576   86.5552   25.1119 C.ar    1  UNL1       -0.0092
     20 C          14.1704   85.3719   25.4283 C.ar    1  UNL1        0.0112
     21 C          13.9514   84.3868   24.4533 C.ar    1  UNL1        0.0485
     22 C          14.4234   84.5949   23.1506 C.ar    1  UNL1        0.0267
     23 C          15.1091   85.7673   22.8203 C.ar    1  UNL1        0.0691
     24 CL         15.6755   85.9743   21.1676 Cl      1  UNL1       -0.0813
     25 C          15.3311   86.7536   23.7977 C.ar    1  UNL1        0.0643
     26 CL         16.1992   88.2313   23.3726 Cl      1  UNL1       -0.0817
     27 C           7.2653   74.2870   25.9343 C.3     1  UNL1        0.1535
     28 C           6.7396   74.5527   27.3223 C.2     1  UNL1        0.2443
     29 O           6.7600   73.6294   28.1815 O.2     1  UNL1       -0.2730
     30 N           6.3181   75.8779   27.6837 N.am    1  UNL1       -0.2825
     31 H           6.5433   76.6577   27.0249 H       1  UNL1        0.1549
     32 C           5.7648   76.2226   28.9637 C.ar    1  UNL1        0.0535
     33 C           4.3884   76.4597   29.0772 C.ar    1  UNL1        0.0353
     34 C           3.8425   76.7756   30.3235 C.ar    1  UNL1        0.1002
     35 N           4.6408   76.8364   31.4220 N.ar    1  UNL1       -0.2422
     36 C           5.9761   76.5928   31.3460 C.ar    1  UNL1        0.1002
     37 C           6.5627   76.2748   30.1185 C.ar    1  UNL1        0.0353
     38 C           6.1033   74.0395   24.9531 C.3     1  UNL1        0.0569
     39 C           6.6021   73.6825   23.5812 C.ar    1  UNL1       -0.0017
     40 C           7.8663   73.1950   23.2613 C.ar    1  UNL1        0.0681
     41 N           8.0097   73.0986   21.9199 N.ar    1  UNL1       -0.3523
     42 C           6.8525   73.5323   21.3905 C.ar    1  UNL1        0.0563
     43 C           6.5333   73.6492   20.0385 C.ar    1  UNL1        0.0170
     44 C           5.2663   74.1613   19.7040 C.ar    1  UNL1        0.0015
     45 C           4.3593   74.5456   20.7167 C.ar    1  UNL1        0.0001
     46 C           4.7102   74.4199   22.0731 C.ar    1  UNL1        0.0012
     47 C           5.9701   73.9018   22.3732 C.ar    1  UNL1        0.0131
     48 H           8.8582   72.7760   21.4038 H       1  UNL1        0.1660
@<TRIPOS>BOND
     1    18    19    1
     2    19    20   ar
     3    20    21   ar
     4    21    12    1
     5    12    13    1
     6    13    14    1
     7    14    15    1
     8    15     5    1
     9     5     6   ar
    10     6     7   ar
    11     7     8   ar
    12     8     1    1
    13     1     2    2
    14     1     3   am
    15     3    27    1
    16    27    38    1
    17    38    39    1
    18    39    40   ar
    19    40    41   ar
    20    41    42   ar
    21    42    43   ar
    22    43    44   ar
    23    44    45   ar
    24    45    46   ar
    25    46    47   ar
    26    27    28    1
    27    28    29    2
    28    28    30   am
    29    30    32    1
    30    32    33   ar
    31    33    34   ar
    32    34    35   ar
    33    35    36   ar
    34    36    37   ar
    35     8     9   ar
    36     9    10    1
    37     9    11   ar
    38    15    16    1
    39    16    17    1
    40    21    22   ar
    41    22    23   ar
    42    23    24    1
    43    23    25   ar
    44    25    26    1
    45    25    19   ar
    46    17    12    1
    47    11     5   ar
    48    47    39   ar
    49    37    32   ar
    50    47    42   ar
    51     3     4    1
    52    41    48    1
    53    30    31    1
@<TRIPOS>MOLECULE
*****
 48 53 0 0 0
SMALL
GASTEIGER

@<TRIPOS>ATOM
      1 C           9.3390   75.8050   27.1174 C.2     1  UNL1        0.2483
      2 O           9.8786   75.1542   28.0540 O.2     1  UNL1       -0.2701
      3 N           8.1082   75.3378   26.5421 N.am    1  UNL1       -0.2945
      4 H           7.7924   75.7447   25.6325 H       1  UNL1        0.1501
      5 C          11.3096   79.3291   25.6323 C.ar    1  UNL1        0.0502
      6 C          11.9477   78.0796   25.5934 C.ar    1  UNL1        0.0148
      7 C          11.3027   76.9408   26.0823 C.ar    1  UNL1        0.0080
      8 C          10.0024   77.0260   26.6074 C.ar    1  UNL1        0.0808
      9 C           9.3674   78.2824   26.6591 C.ar    1  UNL1        0.1457
     10 F           8.1406   78.4242   27.2218 F       1  UNL1       -0.2040
     11 C          10.0174   79.4201   26.1704 C.ar    1  UNL1        0.0443
     12 N          13.1900   82.9607   24.6877 N.pl3   1  UNL1       -0.3041
     13 C          13.9395   81.9351   25.4228 C.3     1  UNL1        0.1122
     14 C          13.4329   80.5463   25.0385 C.3     1  UNL1        0.1122
     15 N          11.9685   80.5064   25.1287 N.pl3   1  UNL1       -0.3040
     16 C          11.2087   81.5317   24.4030 C.3     1  UNL1        0.1122
     17 C          11.7245   82.9267   24.7644 C.3     1  UNL1        0.1122
     18 C          15.0764   87.5095   25.4635 C.3     1  UNL1        0.0320
     19 C          14.7964   86.3568   24.5382 C.ar    1  UNL1       -0.0092
     20 C          14.1375   85.2169   25.0271 C.ar    1  UNL1        0.0112
     21 C          13.8691   84.1270   24.1850 C.ar    1  UNL1        0.0485
     22 C          14.2627   84.1854   22.8416 C.ar    1  UNL1        0.0267
     23 C          14.9194   85.3128   22.3403 C.ar    1  UNL1        0.0691
     24 CL         15.3868   85.3304   20.6443 Cl      1  UNL1       -0.0813
     25 C          15.1909   86.4043   23.1844 C.ar    1  UNL1        0.0643
     26 CL         16.0220   87.8243   22.5435 Cl      1  UNL1       -0.0817
     27 C           7.3241   74.2626   27.1587 C.3     1  UNL1        0.1535
     28 C           6.5391   74.8056   28.3259 C.2     1  UNL1        0.2443
     29 O           6.6042   74.2232   29.4430 O.2     1  UNL1       -0.2730
     30 N           5.8094   76.0352   28.1844 N.am    1  UNL1       -0.2825
     31 H           5.9779   76.6059   27.3249 H       1  UNL1        0.1549
     32 C           4.9995   76.6112   29.2214 C.ar    1  UNL1        0.0535
     33 C           5.2818   77.9063   29.6759 C.ar    1  UNL1        0.0353
     34 C           4.4847   78.4784   30.6702 C.ar    1  UNL1        0.1002
     35 N           3.4316   77.7875   31.1814 N.ar    1  UNL1       -0.2422
     36 C           3.1220   76.5372   30.7469 C.ar    1  UNL1        0.1002
     37 C           3.8944   75.9277   29.7549 C.ar    1  UNL1        0.0353
     38 C           6.3806   73.6225   26.1222 C.3     1  UNL1        0.0569
     39 C           6.2255   74.4883   24.9037 C.ar    1  UNL1       -0.0017
     40 C           5.4758   75.6575   24.8094 C.ar    1  UNL1        0.0681
     41 N           5.4634   76.1090   23.5346 N.ar    1  UNL1       -0.3523
     42 C           6.1881   75.2291   22.8218 C.ar    1  UNL1        0.0563
     43 C           6.4351   75.2530   21.4500 C.ar    1  UNL1        0.0170
     44 C           7.1981   74.2060   20.9011 C.ar    1  UNL1        0.0015
     45 C           7.6868   73.1679   21.7253 C.ar    1  UNL1        0.0001
     46 C           7.4184   73.1679   23.1062 C.ar    1  UNL1        0.0012
     47 C           6.6661   74.2232   23.6221 C.ar    1  UNL1        0.0131
     48 H           4.9690   76.9562   23.1765 H       1  UNL1        0.1660
@<TRIPOS>BOND
     1    18    19    1
     2    19    20   ar
     3    20    21   ar
     4    21    12    1
     5    12    13    1
     6    13    14    1
     7    14    15    1
     8    15     5    1
     9     5     6   ar
    10     6     7   ar
    11     7     8   ar
    12     8     1    1
    13     1     2    2
    14     1     3   am
    15     3    27    1
    16    27    38    1
    17    38    39    1
    18    39    40   ar
    19    40    41   ar
    20    41    42   ar
    21    42    43   ar
    22    43    44   ar
    23    44    45   ar
    24    45    46   ar
    25    46    47   ar
    26    27    28    1
    27    28    29    2
    28    28    30   am
    29    30    32    1
    30    32    33   ar
    31    33    34   ar
    32    34    35   ar
    33    35    36   ar
    34    36    37   ar
    35     8     9   ar
    36     9    10    1
    37     9    11   ar
    38    15    16    1
    39    16    17    1
    40    21    22   ar
    41    22    23   ar
    42    23    24    1
    43    23    25   ar
    44    25    26    1
    45    25    19   ar
    46    17    12    1
    47    11     5   ar
    48    47    39   ar
    49    37    32   ar
    50    47    42   ar
    51     3     4    1
    52    41    48    1
    53    30    31    1
@<TRIPOS>MOLECULE
*****
 48 53 0 0 0
SMALL
GASTEIGER

@<TRIPOS>ATOM
      1 C           9.2301   75.8081   26.8929 C.2     1  UNL1        0.2483
      2 O           9.7598   75.1252   27.8121 O.2     1  UNL1       -0.2701
      3 N           7.9967   75.3702   26.3004 N.am    1  UNL1       -0.2945
      4 H           7.6881   75.8063   25.4020 H       1  UNL1        0.1501
      5 C          11.2426   79.3563   25.5263 C.ar    1  UNL1        0.0502
      6 C          11.9435   78.1516   25.6900 C.ar    1  UNL1        0.0148
      7 C          11.2835   77.0049   26.1391 C.ar    1  UNL1        0.0080
      8 C           9.9074   77.0365   26.4206 C.ar    1  UNL1        0.0808
      9 C           9.2069   78.2492   26.2694 C.ar    1  UNL1        0.1457
     10 F           7.8932   78.3443   26.5965 F       1  UNL1       -0.2040
     11 C           9.8718   79.3951   25.8214 C.ar    1  UNL1        0.0443
     12 N          13.1802   82.9883   24.7063 N.pl3   1  UNL1       -0.3041
     13 C          13.9206   81.9174   25.3839 C.3     1  UNL1        0.1122
     14 C          13.3800   80.5567   24.9491 C.3     1  UNL1        0.1122
     15 N          11.9168   80.5413   25.0624 N.pl3   1  UNL1       -0.3040
     16 C          11.1661   81.6116   24.3945 C.3     1  UNL1        0.1122
     17 C          11.7157   82.9794   24.8066 C.3     1  UNL1        0.1122
     18 C          15.0874   87.5021   25.6226 C.3     1  UNL1        0.0320
     19 C          14.8122   86.3751   24.6646 C.ar    1  UNL1       -0.0092
     20 C          14.1386   85.2281   25.1155 C.ar    1  UNL1        0.0112
     21 C          13.8743   84.1617   24.2426 C.ar    1  UNL1        0.0485
     22 C          14.2870   84.2510   22.9067 C.ar    1  UNL1        0.0267
     23 C          14.9586   85.3858   22.4431 C.ar    1  UNL1        0.0691
     24 CL         15.4497   85.4425   20.7547 Cl      1  UNL1       -0.0813
     25 C          15.2259   86.4537   23.3181 C.ar    1  UNL1        0.0643
     26 CL         16.0758   87.8832   22.7247 Cl      1  UNL1       -0.0817
     27 C           7.1996   74.2857   26.8833 C.3     1  UNL1        0.1535
     28 C           6.4327   74.7977   28.0763 C.2     1  UNL1        0.2443
     29 O           6.3548   74.0875   29.1160 O.2     1  UNL1       -0.2730
     30 N           5.8878   76.1270   28.0569 N.am    1  UNL1       -0.2825
     31 H           6.1807   76.7626   27.2804 H       1  UNL1        0.1549
     32 C           5.1080   76.6898   29.1238 C.ar    1  UNL1        0.0535
     33 C           5.4673   77.9354   29.6559 C.ar    1  UNL1        0.0353
     34 C           4.7004   78.4961   30.6800 C.ar    1  UNL1        0.1002
     35 N           3.6027   77.8434   31.1454 N.ar    1  UNL1       -0.2422
     36 C           3.2189   76.6429   30.6359 C.ar    1  UNL1        0.1002
     37 C           3.9588   76.0463   29.6119 C.ar    1  UNL1        0.0353
     38 C           6.2377   73.7000   25.8317 C.3     1  UNL1        0.0569
     39 C           5.9144   74.6999   24.7574 C.ar    1  UNL1       -0.0017
     40 C           6.6677   74.9611   23.6163 C.ar    1  UNL1        0.0681
     41 N           6.1443   76.0047   22.9335 N.ar    1  UNL1       -0.3523
     42 C           5.0752   76.4118   23.6396 C.ar    1  UNL1        0.0563
     43 C           4.2286   77.4810   23.3500 C.ar    1  UNL1        0.0170
     44 C           3.1816   77.7530   24.2496 C.ar    1  UNL1        0.0015
     45 C           3.0096   76.9627   25.4080 C.ar    1  UNL1        0.0001
     46 C           3.8819   75.8922   25.6766 C.ar    1  UNL1        0.0012
     47 C           4.9053   75.6425   24.7622 C.ar    1  UNL1        0.0131
     48 H           6.5137   76.4221   22.0505 H       1  UNL1        0.1660
@<TRIPOS>BOND
     1    18    19    1
     2    19    20   ar
     3    20    21   ar
     4    21    12    1
     5    12    13    1
     6    13    14    1
     7    14    15    1
     8    15     5    1
     9     5     6   ar
    10     6     7   ar
    11     7     8   ar
    12     8     1    1
    13     1     2    2
    14     1     3   am
    15     3    27    1
    16    27    38    1
    17    38    39    1
    18    39    40   ar
    19    40    41   ar
    20    41    42   ar
    21    42    43   ar
    22    43    44   ar
    23    44    45   ar
    24    45    46   ar
    25    46    47   ar
    26    27    28    1
    27    28    29    2
    28    28    30   am
    29    30    32    1
    30    32    33   ar
    31    33    34   ar
    32    34    35   ar
    33    35    36   ar
    34    36    37   ar
    35     8     9   ar
    36     9    10    1
    37     9    11   ar
    38    15    16    1
    39    16    17    1
    40    21    22   ar
    41    22    23   ar
    42    23    24    1
    43    23    25   ar
    44    25    26    1
    45    25    19   ar
    46    17    12    1
    47    11     5   ar
    48    47    39   ar
    49    37    32   ar
    50    47    42   ar
    51     3     4    1
    52    41    48    1
    53    30    31    1
@<TRIPOS>MOLECULE
*****
 48 53 0 0 0
SMALL
GASTEIGER

@<TRIPOS>ATOM
      1 C           9.3852   77.4106   25.6426 C.2     1  UNL1        0.2483
      2 O           9.2328   76.8687   26.7718 O.2     1  UNL1       -0.2701
      3 N           8.7470   76.8425   24.4876 N.am    1  UNL1       -0.2945
      4 H           9.0560   77.1538   23.5388 H       1  UNL1        0.1501
      5 C          11.8507   80.9212   25.3178 C.ar    1  UNL1        0.0502
      6 C          10.6477   80.9532   26.0399 C.ar    1  UNL1        0.0148
      7 C           9.8503   79.8101   26.1364 C.ar    1  UNL1        0.0080
      8 C          10.2460   78.6090   25.5244 C.ar    1  UNL1        0.0808
      9 C          11.4466   78.5807   24.7881 C.ar    1  UNL1        0.1457
     10 F          11.8331   77.4632   24.1219 F       1  UNL1       -0.2040
     11 C          12.2409   79.7277   24.6924 C.ar    1  UNL1        0.0443
     12 N          13.8285   84.6226   25.2459 N.pl3   1  UNL1       -0.3041
     13 C          13.6890   83.9087   26.5207 C.3     1  UNL1        0.1122
     14 C          13.6509   82.4023   26.2709 C.3     1  UNL1        0.1122
     15 N          12.6777   82.0957   25.2158 N.pl3   1  UNL1       -0.3040
     16 C          12.8034   82.8089   23.9388 C.3     1  UNL1        0.1122
     17 C          12.8654   84.3190   24.1805 C.3     1  UNL1        0.1122
     18 C          15.9200   88.5824   27.4362 C.3     1  UNL1        0.0320
     19 C          15.6991   87.7381   26.2108 C.ar    1  UNL1       -0.0092
     20 C          14.8846   86.5966   26.2904 C.ar    1  UNL1        0.0112
     21 C          14.6670   85.7904   25.1627 C.ar    1  UNL1        0.0485
     22 C          15.2695   86.1366   23.9461 C.ar    1  UNL1        0.0267
     23 C          16.0828   87.2694   23.8510 C.ar    1  UNL1        0.0691
     24 CL         16.8100   87.6558   22.2963 Cl      1  UNL1       -0.0813
     25 C          16.3033   88.0762   24.9815 C.ar    1  UNL1        0.0643
     26 CL         17.3330   89.5049   24.8531 Cl      1  UNL1       -0.0817
     27 C           7.7285   75.7936   24.6030 C.3     1  UNL1        0.1535
     28 C           6.3689   76.4180   24.7900 C.2     1  UNL1        0.2443
     29 O           6.1269   77.0771   25.8380 O.2     1  UNL1       -0.2730
     30 N           5.3993   76.3457   23.7322 N.am    1  UNL1       -0.2825
     31 H           5.7217   76.0055   22.7978 H       1  UNL1        0.1549
     32 C           4.0659   76.8710   23.8290 C.ar    1  UNL1        0.0535
     33 C           3.4540   76.9684   25.0859 C.ar    1  UNL1        0.0353
     34 C           2.1651   77.4971   25.1874 C.ar    1  UNL1        0.1002
     35 N           1.5157   77.9291   24.0742 N.ar    1  UNL1       -0.2422
     36 C           2.0910   77.8647   22.8442 C.ar    1  UNL1        0.1002
     37 C           3.3782   77.3414   22.6982 C.ar    1  UNL1        0.0353
     38 C           7.7427   74.8902   23.3548 C.3     1  UNL1        0.0569
     39 C           9.0500   74.9808   22.6192 C.ar    1  UNL1       -0.0017
     40 C           9.4612   76.0185   21.7872 C.ar    1  UNL1        0.0681
     41 N          10.6395   75.7127   21.1979 N.ar    1  UNL1       -0.3523
     42 C          10.9692   74.4869   21.6408 C.ar    1  UNL1        0.0563
     43 C          12.0877   73.7334   21.2874 C.ar    1  UNL1        0.0170
     44 C          12.2208   72.4508   21.8500 C.ar    1  UNL1        0.0015
     45 C          11.2416   71.9537   22.7389 C.ar    1  UNL1        0.0001
     46 C          10.1211   72.7352   23.0745 C.ar    1  UNL1        0.0012
     47 C          10.0210   74.0054   22.5068 C.ar    1  UNL1        0.0131
     48 H          11.1695   76.3018   20.5179 H       1  UNL1        0.1660
@<TRIPOS>BOND
     1    18    19    1
     2    19    20   ar
     3    20    21   ar
     4    21    12    1
     5    12    13    1
     6    13    14    1
     7    14    15    1
     8    15     5    1
     9     5     6   ar
    10     6     7   ar
    11     7     8   ar
    12     8     1    1
    13     1     2    2
    14     1     3   am
    15     3    27    1
    16    27    38    1
    17    38    39    1
    18    39    40   ar
    19    40    41   ar
    20    41    42   ar
    21    42    43   ar
    22    43    44   ar
    23    44    45   ar
    24    45    46   ar
    25    46    47   ar
    26    27    28    1
    27    28    29    2
    28    28    30   am
    29    30    32    1
    30    32    33   ar
    31    33    34   ar
    32    34    35   ar
    33    35    36   ar
    34    36    37   ar
    35     8     9   ar
    36     9    10    1
    37     9    11   ar
    38    15    16    1
    39    16    17    1
    40    21    22   ar
    41    22    23   ar
    42    23    24    1
    43    23    25   ar
    44    25    26    1
    45    25    19   ar
    46    17    12    1
    47    11     5   ar
    48    47    39   ar
    49    37    32   ar
    50    47    42   ar
    51     3     4    1
    52    41    48    1
    53    30    31    1
@<TRIPOS>MOLECULE
*****
 48 53 0 0 0
SMALL
GASTEIGER

@<TRIPOS>ATOM
      1 C           9.4427   77.3003   25.3742 C.2     1  UNL1        0.2483
      2 O           9.5290   76.5429   26.3795 O.2     1  UNL1       -0.2701
      3 N           8.5479   76.9624   24.3022 N.am    1  UNL1       -0.2945
      4 H           8.6475   77.4604   23.3885 H       1  UNL1        0.1501
      5 C          11.8670   80.8493   25.1859 C.ar    1  UNL1        0.0502
      6 C          10.5858   80.8848   25.7575 C.ar    1  UNL1        0.0148
      7 C           9.8028   79.7289   25.8102 C.ar    1  UNL1        0.0080
      8 C          10.2902   78.5119   25.3049 C.ar    1  UNL1        0.0808
      9 C          11.5707   78.4795   24.7188 C.ar    1  UNL1        0.1457
     10 F          12.0540   77.3436   24.1548 F       1  UNL1       -0.2040
     11 C          12.3504   79.6393   24.6663 C.ar    1  UNL1        0.0443
     12 N          13.8055   84.5711   25.2738 N.pl3   1  UNL1       -0.3041
     13 C          13.7054   83.7854   26.5093 C.3     1  UNL1        0.1122
     14 C          13.6760   82.2950   26.1761 C.3     1  UNL1        0.1122
     15 N          12.6795   82.0370   25.1298 N.pl3   1  UNL1       -0.3040
     16 C          12.7657   82.8221   23.8923 C.3     1  UNL1        0.1122
     17 C          12.8188   84.3169   24.2171 C.3     1  UNL1        0.1122
     18 C          16.7237   87.7002   22.7155 C.3     1  UNL1        0.0320
     19 C          16.0656   87.2955   24.0065 C.ar    1  UNL1       -0.0092
     20 C          15.2582   86.1469   24.0451 C.ar    1  UNL1        0.0112
     21 C          14.6300   85.7513   25.2358 C.ar    1  UNL1        0.0485
     22 C          14.8178   86.5138   26.3961 C.ar    1  UNL1        0.0267
     23 C          15.6183   87.6594   26.3735 C.ar    1  UNL1        0.0691
     24 CL         15.8199   88.5752   27.8621 Cl      1  UNL1       -0.0813
     25 C          16.2461   88.0578   25.1799 C.ar    1  UNL1        0.0643
     26 CL         17.2547   89.5070   25.1596 Cl      1  UNL1       -0.0817
     27 C           7.5503   75.8952   24.4333 C.3     1  UNL1        0.1535
     28 C           6.1735   76.4948   24.5684 C.2     1  UNL1        0.2443
     29 O           5.8840   77.1596   25.6006 O.2     1  UNL1       -0.2730
     30 N           5.2413   76.3929   23.4798 N.am    1  UNL1       -0.2825
     31 H           5.6013   76.0496   22.5603 H       1  UNL1        0.1549
     32 C           3.8956   76.8929   23.5266 C.ar    1  UNL1        0.0535
     33 C           3.1597   77.0006   22.3389 C.ar    1  UNL1        0.0353
     34 C           1.8439   77.4675   22.3817 C.ar    1  UNL1        0.1002
     35 N           1.2766   77.7997   23.5715 N.ar    1  UNL1       -0.2422
     36 C           1.9594   77.6878   24.7417 C.ar    1  UNL1        0.1002
     37 C           3.2781   77.2264   24.7433 C.ar    1  UNL1        0.0353
     38 C           7.6123   74.9486   23.2191 C.3     1  UNL1        0.0569
     39 C           8.9552   74.9966   22.5462 C.ar    1  UNL1       -0.0017
     40 C           9.4465   76.0293   21.7524 C.ar    1  UNL1        0.0681
     41 N          10.6377   75.6842   21.2127 N.ar    1  UNL1       -0.3523
     42 C          10.8963   74.4391   21.6487 C.ar    1  UNL1        0.0563
     43 C          11.9986   73.6456   21.3339 C.ar    1  UNL1        0.0170
     44 C          12.0531   72.3499   21.8794 C.ar    1  UNL1        0.0015
     45 C          11.0141   71.8799   22.7134 C.ar    1  UNL1        0.0001
     46 C           9.9118   72.7017   23.0108 C.ar    1  UNL1        0.0012
     47 C           9.8899   73.9837   22.4615 C.ar    1  UNL1        0.0131
     48 H          11.2224   76.2615   20.5682 H       1  UNL1        0.1660
@<TRIPOS>BOND
     1    18    19    1
     2    19    20   ar
     3    20    21   ar
     4    21    12    1
     5    12    13    1
     6    13    14    1
     7    14    15    1
     8    15     5    1
     9     5     6   ar
    10     6     7   ar
    11     7     8   ar
    12     8     1    1
    13     1     2    2
    14     1     3   am
    15     3    27    1
    16    27    38    1
    17    38    39    1
    18    39    40   ar
    19    40    41   ar
    20    41    42   ar
    21    42    43   ar
    22    43    44   ar
    23    44    45   ar
    24    45    46   ar
    25    46    47   ar
    26    27    28    1
    27    28    29    2
    28    28    30   am
    29    30    32    1
    30    32    33   ar
    31    33    34   ar
    32    34    35   ar
    33    35    36   ar
    34    36    37   ar
    35     8     9   ar
    36     9    10    1
    37     9    11   ar
    38    15    16    1
    39    16    17    1
    40    21    22   ar
    41    22    23   ar
    42    23    24    1
    43    23    25   ar
    44    25    26    1
    45    25    19   ar
    46    17    12    1
    47    11     5   ar
    48    47    39   ar
    49    37    32   ar
    50    47    42   ar
    51     3     4    1
    52    41    48    1
    53    30    31    1
@<TRIPOS>MOLECULE
*****
 48 53 0 0 0
SMALL
GASTEIGER

@<TRIPOS>ATOM
      1 C          13.3116   83.3047   24.3018 C.2     1  UNL1        0.2483
      2 O          14.5085   83.0894   23.9657 O.2     1  UNL1       -0.2701
      3 N          12.7904   84.6430   24.2634 N.am    1  UNL1       -0.2945
      4 H          11.8885   84.8452   24.7514 H       1  UNL1        0.1501
      5 C          10.8372   80.0502   25.6410 C.ar    1  UNL1        0.0502
      6 C          10.2943   81.3285   25.4384 C.ar    1  UNL1        0.0148
      7 C          11.1057   82.3813   25.0081 C.ar    1  UNL1        0.0080
      8 C          12.4728   82.1741   24.7591 C.ar    1  UNL1        0.0808
      9 C          13.0204   80.8944   24.9758 C.ar    1  UNL1        0.1457
     10 F          14.3485   80.6651   24.8162 F       1  UNL1       -0.2040
     11 C          12.2050   79.8439   25.4084 C.ar    1  UNL1        0.0443
     12 N           8.0140   77.2609   27.0073 N.pl3   1  UNL1       -0.3041
     13 C           7.8928   77.7958   25.6460 C.3     1  UNL1        0.1122
     14 C           9.2756   78.1493   25.1019 C.3     1  UNL1        0.1122
     15 N          10.0058   78.9607   26.0831 N.pl3   1  UNL1       -0.3040
     16 C          10.1272   78.4387   27.4499 C.3     1  UNL1        0.1122
     17 C           8.7483   78.0601   27.9957 C.3     1  UNL1        0.1122
     18 C           5.0247   75.1919   30.4184 C.3     1  UNL1        0.0320
     19 C           5.7157   75.1293   29.0834 C.ar    1  UNL1       -0.0092
     20 C           6.5277   76.1981   28.6700 C.ar    1  UNL1        0.0112
     21 C           7.1790   76.1655   27.4275 C.ar    1  UNL1        0.0485
     22 C           7.0155   75.0490   26.5970 C.ar    1  UNL1        0.0267
     23 C           6.2105   73.9776   26.9944 C.ar    1  UNL1        0.0691
     24 CL          6.0453   72.6013   25.9109 Cl      1  UNL1       -0.0813
     25 C           5.5556   74.0109   28.2383 C.ar    1  UNL1        0.0643
     26 CL          4.5396   72.6538   28.7323 Cl      1  UNL1       -0.0817
     27 C          13.5209   85.7404   23.6205 C.3     1  UNL1        0.1535
     28 C          13.8540   86.8004   24.6397 C.2     1  UNL1        0.2443
     29 O          13.7362   88.0179   24.3310 O.2     1  UNL1       -0.2730
     30 N          14.2011   86.4169   25.9802 N.am    1  UNL1       -0.2825
     31 H          14.0516   85.4198   26.2561 H       1  UNL1        0.1549
     32 C          14.5745   87.3468   27.0093 C.ar    1  UNL1        0.0535
     33 C          13.7834   87.4530   28.1610 C.ar    1  UNL1        0.0353
     34 C          14.1533   88.3414   29.1735 C.ar    1  UNL1        0.1002
     35 N          15.2834   89.0861   29.0478 N.ar    1  UNL1       -0.2422
     36 C          16.0807   88.9907   27.9508 C.ar    1  UNL1        0.1002
     37 C          15.7463   88.1155   26.9144 C.ar    1  UNL1        0.0353
     38 C          14.8033   85.2125   22.9490 C.3     1  UNL1        0.0569
     39 C          14.6364   85.0798   21.4615 C.ar    1  UNL1       -0.0017
     40 C          15.2326   84.1235   20.6440 C.ar    1  UNL1        0.0681
     41 N          14.9575   84.3759   19.3441 N.ar    1  UNL1       -0.3523
     42 C          14.2039   85.4891   19.3331 C.ar    1  UNL1        0.0563
     43 C          13.7005   86.1576   18.2181 C.ar    1  UNL1        0.0170
     44 C          12.9573   87.3323   18.4360 C.ar    1  UNL1        0.0015
     45 C          12.7411   87.8097   19.7480 C.ar    1  UNL1        0.0001
     46 C          13.2647   87.1161   20.8542 C.ar    1  UNL1        0.0012
     47 C          13.9904   85.9509   20.6067 C.ar    1  UNL1        0.0131
     48 H          15.2869   83.8285   18.5180 H       1  UNL1        0.1660
@<TRIPOS>BOND
     1    18    19    1
     2    19    20   ar
     3    20    21   ar
     4    21    12    1
     5    12    13    1
     6    13    14    1
     7    14    15    1
     8    15     5    1
     9     5     6   ar
    10     6     7   ar
    11     7     8   ar
    12     8     1    1
    13     1     2    2
    14     1     3   am
    15     3    27    1
    16    27    38    1
    17    38    39    1
    18    39    40   ar
    19    40    41   ar
    20    41    42   ar
    21    42    43   ar
    22    43    44   ar
    23    44    45   ar
    24    45    46   ar
    25    46    47   ar
    26    27    28    1
    27    28    29    2
    28    28    30   am
    29    30    32    1
    30    32    33   ar
    31    33    34   ar
    32    34    35   ar
    33    35    36   ar
    34    36    37   ar
    35     8     9   ar
    36     9    10    1
    37     9    11   ar
    38    15    16    1
    39    16    17    1
    40    21    22   ar
    41    22    23   ar
    42    23    24    1
    43    23    25   ar
    44    25    26    1
    45    25    19   ar
    46    17    12    1
    47    11     5   ar
    48    47    39   ar
    49    37    32   ar
    50    47    42   ar
    51     3     4    1
    52    41    48    1
    53    30    31    1
