@<TRIPOS>MOLECULE
*****
 41 45 0 0 0
SMALL
GASTEIGER

@<TRIPOS>ATOM
      1 C         -21.9999   52.9261  -11.9431 C.3     1  UNL1        0.1333
      2 N         -22.1140   52.4966  -10.5486 N.ar    1  UNL1       -0.2950
      3 C         -21.1902   52.5972   -9.5509 C.ar    1  UNL1        0.2019
      4 N         -21.5815   52.0216   -8.3858 N.ar    1  UNL1       -0.2134
      5 C         -22.8182   51.5773   -8.6703 C.ar    1  UNL1        0.1033
      6 C         -23.6874   50.9079   -7.8124 C.ar    1  UNL1        0.0284
      7 C         -24.9563   50.5267   -8.3044 C.ar    1  UNL1        0.0922
      8 C         -25.3230   50.8760   -9.6336 C.ar    1  UNL1        0.1782
      9 C         -24.4045   51.5303  -10.4818 C.ar    1  UNL1        0.1897
     10 C         -23.1518   51.8693   -9.9618 C.ar    1  UNL1        0.1173
     11 O         -24.7822   51.8365  -11.7927 O.3     1  UNL1       -0.4669
     12 C         -25.9572   51.2678  -12.3730 C.3     1  UNL1        0.2527
     13 C         -27.0825   51.2085  -11.3341 C.3     1  UNL1        0.2526
     14 O         -26.6075   50.6114  -10.1256 O.3     1  UNL1       -0.4682
     15 C         -25.8950   49.8153   -7.4110 C.2     1  UNL1        0.2526
     16 O         -25.8441   48.5569   -7.3456 O.2     1  UNL1       -0.2697
     17 N         -26.8572   50.5435   -6.6288 N.am    1  UNL1       -0.2799
     18 H         -26.9197   51.5793   -6.7457 H       1  UNL1        0.1552
     19 C         -27.6897   49.9312   -5.6304 C.ar    1  UNL1        0.0561
     20 C         -27.1188   49.3602   -4.4799 C.ar    1  UNL1        0.0213
     21 C         -27.9251   48.7451   -3.5043 C.ar    1  UNL1        0.1001
     22 C         -29.3143   48.6775   -3.7117 C.ar    1  UNL1        0.1446
     23 F         -30.1193   48.0684   -2.8041 F       1  UNL1       -0.2042
     24 C         -29.8837   49.2277   -4.8620 C.ar    1  UNL1        0.0367
     25 C         -29.0814   49.8499   -5.8229 C.ar    1  UNL1        0.0372
     26 S         -29.8624   50.5596   -7.2755 S.3     1  UNL1       -0.1401
     27 H         -30.0132   51.8113   -6.6500 H       1  UNL1        0.1072
     28 C         -27.3191   48.1163   -2.2720 C.3     1  UNL1        0.4207
     29 F         -28.0266   48.5229   -1.1557 F       1  UNL1       -0.1658
     30 F         -27.3474   46.7336   -2.3358 F       1  UNL1       -0.1658
     31 F         -26.0013   48.5173   -2.1425 F       1  UNL1       -0.1658
     32 N         -19.9195   53.2519   -9.6764 N.pl3   1  UNL1       -0.2814
     33 H         -19.9144   54.2332  -10.0350 H       1  UNL1        0.1551
     34 C         -18.6557   52.6332   -9.3864 C.ar    1  UNL1        0.0889
     35 C         -18.1852   52.6404   -8.0624 C.ar    1  UNL1        0.1543
     36 F         -18.9250   53.2099   -7.0778 F       1  UNL1       -0.2028
     37 C         -16.9658   52.0378   -7.7417 C.ar    1  UNL1        0.0310
     38 C         -16.1970   51.4379   -8.7400 C.ar    1  UNL1        0.0033
     39 C         -16.6386   51.4500  -10.0645 C.ar    1  UNL1        0.0128
     40 C         -17.8584   52.0509  -10.3992 C.ar    1  UNL1        0.0733
     41 CL        -18.3082   52.1160  -12.0996 Cl      1  UNL1       -0.0809
@<TRIPOS>BOND
     1     1     2    1
     2     2     3   ar
     3     3    32    1
     4    32    34    1
     5    34    35   ar
     6    35    36    1
     7    35    37   ar
     8    37    38   ar
     9    38    39   ar
    10    39    40   ar
    11    40    41    1
    12     3     4   ar
    13     4     5   ar
    14     5     6   ar
    15     6     7   ar
    16     7    15    1
    17    15    16    2
    18    15    17   am
    19    17    19    1
    20    19    20   ar
    21    20    21   ar
    22    21    28    1
    23    28    29    1
    24    28    30    1
    25    28    31    1
    26    21    22   ar
    27    22    23    1
    28    22    24   ar
    29    24    25   ar
    30    25    26    1
    31     7     8   ar
    32     8     9   ar
    33     9    10   ar
    34     9    11    1
    35    11    12    1
    36    12    13    1
    37    13    14    1
    38    10     2   ar
    39    40    34   ar
    40    10     5   ar
    41    25    19   ar
    42    14     8    1
    43    32    33    1
    44    17    18    1
    45    26    27    1
@<TRIPOS>MOLECULE
*****
 41 45 0 0 0
SMALL
GASTEIGER

@<TRIPOS>ATOM
      1 C         -23.6421   52.9976  -11.5182 C.3     1  UNL1        0.1333
      2 N         -23.4475   52.3439  -10.2232 N.ar    1  UNL1       -0.2950
      3 C         -22.3404   52.3489   -9.4274 C.ar    1  UNL1        0.2019
      4 N         -22.4592   51.5684   -8.3235 N.ar    1  UNL1       -0.2134
      5 C         -23.7111   51.0890   -8.4274 C.ar    1  UNL1        0.1033
      6 C         -24.3577   50.2316   -7.5407 C.ar    1  UNL1        0.0284
      7 C         -25.6865   49.8453   -7.8275 C.ar    1  UNL1        0.0922
      8 C         -26.3345   50.3756   -8.9774 C.ar    1  UNL1        0.1782
      9 C         -25.6372   51.2201   -9.8672 C.ar    1  UNL1        0.1897
     10 C         -24.3168   51.5593   -9.5572 C.ar    1  UNL1        0.1173
     11 O         -26.2905   51.7042  -11.0045 O.3     1  UNL1       -0.4669
     12 C         -27.5392   51.1540  -11.4275 C.3     1  UNL1        0.2527
     13 C         -28.4206   50.8503  -10.2107 C.3     1  UNL1        0.2526
     14 O         -27.6829   50.1030   -9.2413 O.3     1  UNL1       -0.4682
     15 C         -26.3920   48.9359   -6.8999 C.2     1  UNL1        0.2526
     16 O         -26.8942   47.8702   -7.3499 O.2     1  UNL1       -0.2697
     17 N         -26.5103   49.2598   -5.5037 N.am    1  UNL1       -0.2799
     18 H         -26.1389   50.1758   -5.1670 H       1  UNL1        0.1552
     19 C         -27.0441   48.3534   -4.5249 C.ar    1  UNL1        0.0561
     20 C         -26.2716   47.2771   -4.0551 C.ar    1  UNL1        0.0213
     21 C         -26.7917   46.3758   -3.1078 C.ar    1  UNL1        0.1001
     22 C         -28.1137   46.5454   -2.6596 C.ar    1  UNL1        0.1446
     23 F         -28.6565   45.6794   -1.7661 F       1  UNL1       -0.2042
     24 C         -28.8908   47.6028   -3.1373 C.ar    1  UNL1        0.0367
     25 C         -28.3667   48.5043   -4.0682 C.ar    1  UNL1        0.0372
     26 S         -29.3982   49.8592   -4.6375 S.3     1  UNL1       -0.1401
     27 H         -28.9387   50.7105   -3.6153 H       1  UNL1        0.1072
     28 C         -25.9741   45.2083   -2.6082 C.3     1  UNL1        0.4207
     29 F         -24.6354   45.5546   -2.6062 F       1  UNL1       -0.1658
     30 F         -26.3388   44.8395   -1.3246 F       1  UNL1       -0.1658
     31 F         -26.1577   44.1187   -3.4408 F       1  UNL1       -0.1658
     32 N         -21.1483   53.1033   -9.6900 N.pl3   1  UNL1       -0.2814
     33 H         -21.2599   54.0530  -10.1107 H       1  UNL1        0.1551
     34 C         -19.8151   52.6215   -9.4562 C.ar    1  UNL1        0.0889
     35 C         -19.1408   51.9605  -10.4967 C.ar    1  UNL1        0.1543
     36 F         -19.7393   51.7979  -11.7035 F       1  UNL1       -0.2028
     37 C         -17.8389   51.4889  -10.3087 C.ar    1  UNL1        0.0310
     38 C         -17.2040   51.6570   -9.0773 C.ar    1  UNL1        0.0033
     39 C         -17.8737   52.2855   -8.0257 C.ar    1  UNL1        0.0128
     40 C         -19.1787   52.7621   -8.2009 C.ar    1  UNL1        0.0733
     41 CL        -19.9989   53.4563   -6.8068 Cl      1  UNL1       -0.0809
@<TRIPOS>BOND
     1     1     2    1
     2     2     3   ar
     3     3    32    1
     4    32    34    1
     5    34    35   ar
     6    35    36    1
     7    35    37   ar
     8    37    38   ar
     9    38    39   ar
    10    39    40   ar
    11    40    41    1
    12     3     4   ar
    13     4     5   ar
    14     5     6   ar
    15     6     7   ar
    16     7    15    1
    17    15    16    2
    18    15    17   am
    19    17    19    1
    20    19    20   ar
    21    20    21   ar
    22    21    28    1
    23    28    29    1
    24    28    30    1
    25    28    31    1
    26    21    22   ar
    27    22    23    1
    28    22    24   ar
    29    24    25   ar
    30    25    26    1
    31     7     8   ar
    32     8     9   ar
    33     9    10   ar
    34     9    11    1
    35    11    12    1
    36    12    13    1
    37    13    14    1
    38    10     2   ar
    39    40    34   ar
    40    10     5   ar
    41    25    19   ar
    42    14     8    1
    43    32    33    1
    44    17    18    1
    45    26    27    1
@<TRIPOS>MOLECULE
*****
 41 45 0 0 0
SMALL
GASTEIGER

@<TRIPOS>ATOM
      1 C         -22.4085   53.0299  -12.0508 C.3     1  UNL1        0.1333
      2 N         -22.4585   52.5713  -10.6618 N.ar    1  UNL1       -0.2950
      3 C         -21.5072   52.6929   -9.6927 C.ar    1  UNL1        0.2019
      4 N         -21.8356   52.0808   -8.5268 N.ar    1  UNL1       -0.2134
      5 C         -23.0615   51.5901   -8.7796 C.ar    1  UNL1        0.1033
      6 C         -23.8734   50.8697   -7.9070 C.ar    1  UNL1        0.0284
      7 C         -25.1410   50.4443   -8.3649 C.ar    1  UNL1        0.0922
      8 C         -25.5656   50.8014   -9.6747 C.ar    1  UNL1        0.1782
      9 C         -24.7036   51.5086  -10.5395 C.ar    1  UNL1        0.1897
     10 C         -23.4494   51.8907  -10.0538 C.ar    1  UNL1        0.1173
     11 O         -25.1367   51.8218  -11.8313 O.3     1  UNL1       -0.4669
     12 C         -26.3058   51.2146  -12.3842 C.3     1  UNL1        0.2527
     13 C         -27.3927   51.0898  -11.3108 C.3     1  UNL1        0.2526
     14 O         -26.8537   50.4919  -10.1299 O.3     1  UNL1       -0.4682
     15 C         -26.0194   49.6785   -7.4554 C.2     1  UNL1        0.2526
     16 O         -25.8459   48.4347   -7.3392 O.2     1  UNL1       -0.2697
     17 N         -27.0611   50.3374   -6.7147 N.am    1  UNL1       -0.2799
     18 H         -27.2234   51.3565   -6.8736 H       1  UNL1        0.1552
     19 C         -27.8452   49.6845   -5.7029 C.ar    1  UNL1        0.0561
     20 C         -27.2435   49.2372   -4.5140 C.ar    1  UNL1        0.0213
     21 C         -28.0008   48.5835   -3.5243 C.ar    1  UNL1        0.1001
     22 C         -29.3682   48.3508   -3.7551 C.ar    1  UNL1        0.1446
     23 F         -30.1231   47.6998   -2.8336 F       1  UNL1       -0.2042
     24 C         -29.9662   48.7776   -4.9427 C.ar    1  UNL1        0.0367
     25 C         -29.2141   49.4386   -5.9181 C.ar    1  UNL1        0.0372
     26 S         -30.0324   49.9855   -7.4198 S.3     1  UNL1       -0.1401
     27 H         -30.3367   51.2411   -6.8616 H       1  UNL1        0.1072
     28 C         -27.3598   48.0867   -2.2501 C.3     1  UNL1        0.4207
     29 F         -28.0780   48.5531   -1.1645 F       1  UNL1       -0.1658
     30 F         -27.3264   46.7036   -2.1990 F       1  UNL1       -0.1658
     31 F         -26.0605   48.5549   -2.1672 F       1  UNL1       -0.1658
     32 N         -20.2695   53.4026   -9.8467 N.pl3   1  UNL1       -0.2814
     33 H         -19.6346   53.1050  -10.6212 H       1  UNL1        0.1551
     34 C         -19.8274   54.4603   -8.9807 C.ar    1  UNL1        0.0889
     35 C         -20.2912   55.7660   -9.2138 C.ar    1  UNL1        0.1543
     36 F         -21.1541   56.0127  -10.2314 F       1  UNL1       -0.2028
     37 C         -19.8913   56.8173   -8.3846 C.ar    1  UNL1        0.0310
     38 C         -19.0128   56.5797   -7.3266 C.ar    1  UNL1        0.0033
     39 C         -18.5208   55.2925   -7.1022 C.ar    1  UNL1        0.0128
     40 C         -18.9133   54.2303   -7.9261 C.ar    1  UNL1        0.0733
     41 CL        -18.1806   52.6544   -7.6478 Cl      1  UNL1       -0.0809
@<TRIPOS>BOND
     1     1     2    1
     2     2     3   ar
     3     3    32    1
     4    32    34    1
     5    34    35   ar
     6    35    36    1
     7    35    37   ar
     8    37    38   ar
     9    38    39   ar
    10    39    40   ar
    11    40    41    1
    12     3     4   ar
    13     4     5   ar
    14     5     6   ar
    15     6     7   ar
    16     7    15    1
    17    15    16    2
    18    15    17   am
    19    17    19    1
    20    19    20   ar
    21    20    21   ar
    22    21    28    1
    23    28    29    1
    24    28    30    1
    25    28    31    1
    26    21    22   ar
    27    22    23    1
    28    22    24   ar
    29    24    25   ar
    30    25    26    1
    31     7     8   ar
    32     8     9   ar
    33     9    10   ar
    34     9    11    1
    35    11    12    1
    36    12    13    1
    37    13    14    1
    38    10     2   ar
    39    40    34   ar
    40    10     5   ar
    41    25    19   ar
    42    14     8    1
    43    32    33    1
    44    17    18    1
    45    26    27    1
@<TRIPOS>MOLECULE
*****
 41 45 0 0 0
SMALL
GASTEIGER

@<TRIPOS>ATOM
      1 C         -22.6690   53.1708  -11.9711 C.3     1  UNL1        0.1333
      2 N         -22.6153   52.6541  -10.6027 N.ar    1  UNL1       -0.2950
      3 C         -21.5993   52.7491   -9.6984 C.ar    1  UNL1        0.2019
      4 N         -21.8374   52.0844   -8.5394 N.ar    1  UNL1       -0.2134
      5 C         -23.0724   51.5869   -8.7262 C.ar    1  UNL1        0.1033
      6 C         -23.8123   50.8192   -7.8302 C.ar    1  UNL1        0.0284
      7 C         -25.1041   50.3950   -8.2156 C.ar    1  UNL1        0.0922
      8 C         -25.6243   50.8000   -9.4761 C.ar    1  UNL1        0.1782
      9 C         -24.8338   51.5549  -10.3684 C.ar    1  UNL1        0.1897
     10 C         -23.5529   51.9346   -9.9561 C.ar    1  UNL1        0.1173
     11 O         -25.3608   51.9153  -11.6122 O.3     1  UNL1       -0.4669
     12 C         -26.5590   51.3149  -12.1069 C.3     1  UNL1        0.2527
     13 C         -27.5658   51.1298  -10.9661 C.3     1  UNL1        0.2526
     14 O         -26.9377   50.4911   -9.8524 O.3     1  UNL1       -0.4682
     15 C         -25.9070   49.5793   -7.2801 C.2     1  UNL1        0.2526
     16 O         -26.7736   50.1468   -6.5607 O.2     1  UNL1       -0.2697
     17 N         -25.7036   48.1589   -7.1852 N.am    1  UNL1       -0.2799
     18 H         -24.9396   47.7218   -7.7470 H       1  UNL1        0.1552
     19 C         -26.5495   47.2894   -6.4151 C.ar    1  UNL1        0.0561
     20 C         -26.1407   46.8367   -5.1487 C.ar    1  UNL1        0.0213
     21 C         -26.9560   45.9730   -4.3940 C.ar    1  UNL1        0.1001
     22 C         -28.1766   45.5378   -4.9398 C.ar    1  UNL1        0.1446
     23 F         -28.9758   44.6837   -4.2507 F       1  UNL1       -0.2042
     24 C         -28.5784   45.9708   -6.2052 C.ar    1  UNL1        0.0367
     25 C         -27.7724   46.8394   -6.9467 C.ar    1  UNL1        0.0372
     26 S         -28.3413   47.3837   -8.5604 S.3     1  UNL1       -0.1401
     27 H         -28.9833   48.5108   -8.0143 H       1  UNL1        0.1072
     28 C         -26.5184   45.4702   -3.0387 C.3     1  UNL1        0.4207
     29 F         -26.2266   44.1212   -3.1233 F       1  UNL1       -0.1658
     30 F         -25.3955   46.1391   -2.5823 F       1  UNL1       -0.1658
     31 F         -27.5364   45.6556   -2.1203 F       1  UNL1       -0.1658
     32 N         -20.3838   53.4823   -9.9087 N.pl3   1  UNL1       -0.2814
     33 H         -19.7884   53.2084  -10.7222 H       1  UNL1        0.1551
     34 C         -19.9113   54.5332   -9.0504 C.ar    1  UNL1        0.0889
     35 C         -20.4110   55.8337   -9.2328 C.ar    1  UNL1        0.1543
     36 F         -21.3354   56.0816  -10.1945 F       1  UNL1       -0.2028
     37 C         -19.9826   56.8781   -8.4089 C.ar    1  UNL1        0.0310
     38 C         -19.0405   56.6389   -7.4076 C.ar    1  UNL1        0.0033
     39 C         -18.5136   55.3575   -7.2352 C.ar    1  UNL1        0.0128
     40 C         -18.9340   54.3025   -8.0543 C.ar    1  UNL1        0.0733
     41 CL        -18.1586   52.7360   -7.8471 Cl      1  UNL1       -0.0809
@<TRIPOS>BOND
     1     1     2    1
     2     2     3   ar
     3     3    32    1
     4    32    34    1
     5    34    35   ar
     6    35    36    1
     7    35    37   ar
     8    37    38   ar
     9    38    39   ar
    10    39    40   ar
    11    40    41    1
    12     3     4   ar
    13     4     5   ar
    14     5     6   ar
    15     6     7   ar
    16     7    15    1
    17    15    16    2
    18    15    17   am
    19    17    19    1
    20    19    20   ar
    21    20    21   ar
    22    21    28    1
    23    28    29    1
    24    28    30    1
    25    28    31    1
    26    21    22   ar
    27    22    23    1
    28    22    24   ar
    29    24    25   ar
    30    25    26    1
    31     7     8   ar
    32     8     9   ar
    33     9    10   ar
    34     9    11    1
    35    11    12    1
    36    12    13    1
    37    13    14    1
    38    10     2   ar
    39    40    34   ar
    40    10     5   ar
    41    25    19   ar
    42    14     8    1
    43    32    33    1
    44    17    18    1
    45    26    27    1
@<TRIPOS>MOLECULE
*****
 41 45 0 0 0
SMALL
GASTEIGER

@<TRIPOS>ATOM
      1 C         -31.5839   50.1845   -6.0664 C.3     1  UNL1        0.1333
      2 N         -30.1988   50.0301   -5.6193 N.ar    1  UNL1       -0.2950
      3 C         -29.7373   49.7397   -4.3696 C.ar    1  UNL1        0.2019
      4 N         -28.3837   49.7513   -4.2723 N.ar    1  UNL1       -0.2134
      5 C         -27.9940   50.0269   -5.5292 C.ar    1  UNL1        0.1033
      6 C         -26.6872   50.1482   -5.9952 C.ar    1  UNL1        0.0284
      7 C         -26.4858   50.4381   -7.3636 C.ar    1  UNL1        0.0922
      8 C         -27.6113   50.5499   -8.2262 C.ar    1  UNL1        0.1782
      9 C         -28.9213   50.4480   -7.7117 C.ar    1  UNL1        0.1897
     10 C         -29.0759   50.1827   -6.3477 C.ar    1  UNL1        0.1173
     11 O         -30.0095   50.5900   -8.5779 O.3     1  UNL1       -0.4669
     12 C         -29.8367   51.1010   -9.9008 C.3     1  UNL1        0.2527
     13 C         -28.5432   50.5522  -10.5131 C.3     1  UNL1        0.2526
     14 O         -27.4532   50.7310   -9.6062 O.3     1  UNL1       -0.4682
     15 C         -25.1070   50.5710   -7.8798 C.2     1  UNL1        0.2526
     16 O         -24.2585   49.6816   -7.5975 O.2     1  UNL1       -0.2697
     17 N         -24.7326   51.6990   -8.6894 N.am    1  UNL1       -0.2799
     18 H         -25.4362   52.4517   -8.8590 H       1  UNL1        0.1552
     19 C         -23.4605   51.8112   -9.3481 C.ar    1  UNL1        0.0561
     20 C         -22.3045   52.1291   -8.6144 C.ar    1  UNL1        0.0213
     21 C         -21.0572   52.2558   -9.2535 C.ar    1  UNL1        0.1001
     22 C         -20.9863   52.0937  -10.6485 C.ar    1  UNL1        0.1446
     23 F         -19.8043   52.2348  -11.3010 F       1  UNL1       -0.2042
     24 C         -22.1356   51.7956  -11.3836 C.ar    1  UNL1        0.0367
     25 C         -23.3708   51.6571  -10.7441 C.ar    1  UNL1        0.0372
     26 S         -24.8163   51.2539  -11.7299 S.3     1  UNL1       -0.1401
     27 H         -24.6170   49.8716  -11.5556 H       1  UNL1        0.1072
     28 C         -19.8124   52.6112   -8.4753 C.3     1  UNL1        0.4207
     29 F         -18.9077   51.5688   -8.5580 F       1  UNL1       -0.1658
     30 F         -19.2126   53.7590   -8.9648 F       1  UNL1       -0.1658
     31 F         -20.1363   52.8241   -7.1472 F       1  UNL1       -0.1658
     32 N         -30.5697   49.4334   -3.2416 N.pl3   1  UNL1       -0.2814
     33 H         -31.3808   50.0643   -3.0536 H       1  UNL1        0.1551
     34 C         -30.3345   48.3474   -2.3308 C.ar    1  UNL1        0.0889
     35 C         -30.4142   48.5918   -0.9494 C.ar    1  UNL1        0.1543
     36 F         -30.7240   49.8310   -0.4918 F       1  UNL1       -0.2028
     37 C         -30.2029   47.5567   -0.0346 C.ar    1  UNL1        0.0310
     38 C         -29.8939   46.2735   -0.4879 C.ar    1  UNL1        0.0033
     39 C         -29.7822   46.0239   -1.8570 C.ar    1  UNL1        0.0128
     40 C         -29.9910   47.0524   -2.7841 C.ar    1  UNL1        0.0733
     41 CL        -29.7392   46.6922   -4.4885 Cl      1  UNL1       -0.0809
@<TRIPOS>BOND
     1     1     2    1
     2     2     3   ar
     3     3    32    1
     4    32    34    1
     5    34    35   ar
     6    35    36    1
     7    35    37   ar
     8    37    38   ar
     9    38    39   ar
    10    39    40   ar
    11    40    41    1
    12     3     4   ar
    13     4     5   ar
    14     5     6   ar
    15     6     7   ar
    16     7    15    1
    17    15    16    2
    18    15    17   am
    19    17    19    1
    20    19    20   ar
    21    20    21   ar
    22    21    28    1
    23    28    29    1
    24    28    30    1
    25    28    31    1
    26    21    22   ar
    27    22    23    1
    28    22    24   ar
    29    24    25   ar
    30    25    26    1
    31     7     8   ar
    32     8     9   ar
    33     9    10   ar
    34     9    11    1
    35    11    12    1
    36    12    13    1
    37    13    14    1
    38    10     2   ar
    39    40    34   ar
    40    10     5   ar
    41    25    19   ar
    42    14     8    1
    43    32    33    1
    44    17    18    1
    45    26    27    1
@<TRIPOS>MOLECULE
*****
 41 45 0 0 0
SMALL
GASTEIGER

@<TRIPOS>ATOM
      1 C         -29.8164   47.2137   -7.9263 C.3     1  UNL1        0.1333
      2 N         -28.4187   47.5486   -7.6498 N.ar    1  UNL1       -0.2950
      3 C         -27.5499   46.9314   -6.7993 C.ar    1  UNL1        0.2019
      4 N         -26.3435   47.5468   -6.7115 N.ar    1  UNL1       -0.2134
      5 C         -26.4641   48.5700   -7.5753 C.ar    1  UNL1        0.1033
      6 C         -25.5000   49.5268   -7.8829 C.ar    1  UNL1        0.0284
      7 C         -25.8221   50.5255   -8.8295 C.ar    1  UNL1        0.0922
      8 C         -27.0925   50.4970   -9.4689 C.ar    1  UNL1        0.1782
      9 C         -28.0534   49.5279   -9.1105 C.ar    1  UNL1        0.1897
     10 C         -27.7013   48.5717   -8.1532 C.ar    1  UNL1        0.1173
     11 O         -29.3040   49.5408   -9.7354 O.3     1  UNL1       -0.4669
     12 C         -29.7261   50.6600  -10.5166 C.3     1  UNL1        0.2527
     13 C         -28.5493   51.2073  -11.3321 C.3     1  UNL1        0.2526
     14 O         -27.4127   51.4031  -10.4880 O.3     1  UNL1       -0.4682
     15 C         -24.8137   51.5509   -9.1712 C.2     1  UNL1        0.2526
     16 O         -25.1576   52.7641   -9.1966 O.2     1  UNL1       -0.2697
     17 N         -23.4594   51.1749   -9.4752 N.am    1  UNL1       -0.2799
     18 H         -23.2143   50.1604   -9.5063 H       1  UNL1        0.1552
     19 C         -22.3986   52.1258   -9.6627 C.ar    1  UNL1        0.0561
     20 C         -21.4654   52.3625   -8.6385 C.ar    1  UNL1        0.0213
     21 C         -20.4322   53.3028   -8.8077 C.ar    1  UNL1        0.1001
     22 C         -20.3644   54.0324  -10.0079 C.ar    1  UNL1        0.1446
     23 F         -19.3968   54.9661  -10.1947 F       1  UNL1       -0.2042
     24 C         -21.3002   53.8133  -11.0210 C.ar    1  UNL1        0.0367
     25 C         -22.3174   52.8689  -10.8551 C.ar    1  UNL1        0.0372
     26 S         -23.4849   52.6090  -12.1941 S.3     1  UNL1       -0.1401
     27 H         -22.6914   51.5946  -12.7619 H       1  UNL1        0.1072
     28 C         -19.4338   53.5740   -7.7074 C.3     1  UNL1        0.4207
     29 F         -18.1679   53.2274   -8.1424 F       1  UNL1       -0.1658
     30 F         -19.4266   54.9088   -7.3398 F       1  UNL1       -0.1658
     31 F         -19.7508   52.8191   -6.5921 F       1  UNL1       -0.1658
     32 N         -27.8403   45.7369   -6.0590 N.pl3   1  UNL1       -0.2814
     33 H         -28.2086   44.9163   -6.5903 H       1  UNL1        0.1551
     34 C         -27.7020   45.6114   -4.6345 C.ar    1  UNL1        0.0889
     35 C         -26.4281   45.3634   -4.0961 C.ar    1  UNL1        0.1543
     36 F         -25.3495   45.2615   -4.9130 F       1  UNL1       -0.2028
     37 C         -26.2544   45.2471   -2.7144 C.ar    1  UNL1        0.0310
     38 C         -27.3509   45.3600   -1.8587 C.ar    1  UNL1        0.0033
     39 C         -28.6269   45.5765   -2.3825 C.ar    1  UNL1        0.0128
     40 C         -28.8147   45.6945   -3.7651 C.ar    1  UNL1        0.0733
     41 CL        -30.4607   45.8693   -4.3635 Cl      1  UNL1       -0.0809
@<TRIPOS>BOND
     1     1     2    1
     2     2     3   ar
     3     3    32    1
     4    32    34    1
     5    34    35   ar
     6    35    36    1
     7    35    37   ar
     8    37    38   ar
     9    38    39   ar
    10    39    40   ar
    11    40    41    1
    12     3     4   ar
    13     4     5   ar
    14     5     6   ar
    15     6     7   ar
    16     7    15    1
    17    15    16    2
    18    15    17   am
    19    17    19    1
    20    19    20   ar
    21    20    21   ar
    22    21    28    1
    23    28    29    1
    24    28    30    1
    25    28    31    1
    26    21    22   ar
    27    22    23    1
    28    22    24   ar
    29    24    25   ar
    30    25    26    1
    31     7     8   ar
    32     8     9   ar
    33     9    10   ar
    34     9    11    1
    35    11    12    1
    36    12    13    1
    37    13    14    1
    38    10     2   ar
    39    40    34   ar
    40    10     5   ar
    41    25    19   ar
    42    14     8    1
    43    32    33    1
    44    17    18    1
    45    26    27    1
@<TRIPOS>MOLECULE
*****
 41 45 0 0 0
SMALL
GASTEIGER

@<TRIPOS>ATOM
      1 C         -22.4811   53.0211  -12.0199 C.3     1  UNL1        0.1333
      2 N         -22.5433   52.5137  -10.6484 N.ar    1  UNL1       -0.2950
      3 C         -21.5998   52.5992   -9.6678 C.ar    1  UNL1        0.2019
      4 N         -21.9388   51.9468   -8.5271 N.ar    1  UNL1       -0.2134
      5 C         -23.1634   51.4676   -8.8071 C.ar    1  UNL1        0.1033
      6 C         -23.9837   50.7184   -7.9673 C.ar    1  UNL1        0.0284
      7 C         -25.2481   50.3120   -8.4503 C.ar    1  UNL1        0.0922
      8 C         -25.6613   50.7159   -9.7501 C.ar    1  UNL1        0.1782
      9 C         -24.7910   51.4516  -10.5822 C.ar    1  UNL1        0.1897
     10 C         -23.5403   51.8139  -10.0730 C.ar    1  UNL1        0.1173
     11 O         -25.2130   51.8112  -11.8657 O.3     1  UNL1       -0.4669
     12 C         -26.3784   51.2262  -12.4492 C.3     1  UNL1        0.2527
     13 C         -27.4744   51.0656  -11.3898 C.3     1  UNL1        0.2526
     14 O         -26.9461   50.4252  -10.2265 O.3     1  UNL1       -0.4682
     15 C         -26.1352   49.5161   -7.5757 C.2     1  UNL1        0.2526
     16 O         -26.1280   49.7346   -6.3336 O.2     1  UNL1       -0.2697
     17 N         -26.9930   48.5028   -8.1284 N.am    1  UNL1       -0.2799
     18 H         -26.9368   48.2996   -9.1511 H       1  UNL1        0.1552
     19 C         -27.9863   47.8037   -7.3607 C.ar    1  UNL1        0.0561
     20 C         -28.3348   48.2487   -6.0738 C.ar    1  UNL1        0.0213
     21 C         -29.2956   47.5616   -5.3089 C.ar    1  UNL1        0.1001
     22 C         -29.8816   46.3975   -5.8367 C.ar    1  UNL1        0.1446
     23 F         -30.7925   45.6950   -5.1158 F       1  UNL1       -0.2042
     24 C         -29.5251   45.9417   -7.1076 C.ar    1  UNL1        0.0367
     25 C         -28.5802   46.6340   -7.8704 C.ar    1  UNL1        0.0372
     26 S         -28.1695   46.0197   -9.5067 S.3     1  UNL1       -0.1401
     27 H         -29.1709   46.8021  -10.1114 H       1  UNL1        0.1072
     28 C         -29.6656   48.0242   -3.9196 C.3     1  UNL1        0.4207
     29 F         -31.0142   48.3277   -3.8822 F       1  UNL1       -0.1658
     30 F         -29.4032   47.0523   -2.9692 F       1  UNL1       -0.1658
     31 F         -28.9388   49.1556   -3.5945 F       1  UNL1       -0.1658
     32 N         -20.3597   53.3114   -9.7865 N.pl3   1  UNL1       -0.2814
     33 H         -20.4025   54.3088  -10.0945 H       1  UNL1        0.1551
     34 C         -19.0656   52.7318   -9.5552 C.ar    1  UNL1        0.0889
     35 C         -18.3482   52.2167  -10.6480 C.ar    1  UNL1        0.1543
     36 F         -18.8686   52.2837  -11.8993 F       1  UNL1       -0.2028
     37 C         -17.0818   51.6561  -10.4619 C.ar    1  UNL1        0.0310
     38 C         -16.5266   51.5888   -9.1834 C.ar    1  UNL1        0.0033
     39 C         -17.2414   52.0697   -8.0847 C.ar    1  UNL1        0.0128
     40 C         -18.5116   52.6333   -8.2575 C.ar    1  UNL1        0.0733
     41 CL        -19.3974   53.1306   -6.8200 Cl      1  UNL1       -0.0809
@<TRIPOS>BOND
     1     1     2    1
     2     2     3   ar
     3     3    32    1
     4    32    34    1
     5    34    35   ar
     6    35    36    1
     7    35    37   ar
     8    37    38   ar
     9    38    39   ar
    10    39    40   ar
    11    40    41    1
    12     3     4   ar
    13     4     5   ar
    14     5     6   ar
    15     6     7   ar
    16     7    15    1
    17    15    16    2
    18    15    17   am
    19    17    19    1
    20    19    20   ar
    21    20    21   ar
    22    21    28    1
    23    28    29    1
    24    28    30    1
    25    28    31    1
    26    21    22   ar
    27    22    23    1
    28    22    24   ar
    29    24    25   ar
    30    25    26    1
    31     7     8   ar
    32     8     9   ar
    33     9    10   ar
    34     9    11    1
    35    11    12    1
    36    12    13    1
    37    13    14    1
    38    10     2   ar
    39    40    34   ar
    40    10     5   ar
    41    25    19   ar
    42    14     8    1
    43    32    33    1
    44    17    18    1
    45    26    27    1
@<TRIPOS>MOLECULE
*****
 41 45 0 0 0
SMALL
GASTEIGER

@<TRIPOS>ATOM
      1 C         -22.2516   52.9827  -11.8320 C.3     1  UNL1        0.1333
      2 N         -22.3101   52.4708  -10.4621 N.ar    1  UNL1       -0.2950
      3 C         -21.3591   52.5419   -9.4877 C.ar    1  UNL1        0.2019
      4 N         -21.6976   51.8891   -8.3471 N.ar    1  UNL1       -0.2134
      5 C         -22.9295   51.4248   -8.6205 C.ar    1  UNL1        0.1033
      6 C         -23.7524   50.6816   -7.7778 C.ar    1  UNL1        0.0284
      7 C         -25.0246   50.2913   -8.2537 C.ar    1  UNL1        0.0922
      8 C         -25.4421   50.7049   -9.5491 C.ar    1  UNL1        0.1782
      9 C         -24.5692   51.4339  -10.3844 C.ar    1  UNL1        0.1897
     10 C         -23.3110   51.7802   -9.8825 C.ar    1  UNL1        0.1173
     11 O         -24.9959   51.8032  -11.6636 O.3     1  UNL1       -0.4669
     12 C         -26.1718   51.2336  -12.2413 C.3     1  UNL1        0.2527
     13 C         -27.2622   51.0812  -11.1750 C.3     1  UNL1        0.2526
     14 O         -26.7333   50.4305  -10.0177 O.3     1  UNL1       -0.4682
     15 C         -25.9146   49.5021   -7.3760 C.2     1  UNL1        0.2526
     16 O         -26.2997   48.3636   -7.7581 O.2     1  UNL1       -0.2697
     17 N         -26.3413   50.0229   -6.1053 N.am    1  UNL1       -0.2799
     18 H         -26.0580   50.9918   -5.8383 H       1  UNL1        0.1552
     19 C         -27.0753   49.2506   -5.1412 C.ar    1  UNL1        0.0561
     20 C         -28.0240   48.3026   -5.5618 C.ar    1  UNL1        0.0213
     21 C         -28.7582   47.5525   -4.6244 C.ar    1  UNL1        0.1001
     22 C         -28.5551   47.7885   -3.2531 C.ar    1  UNL1        0.1446
     23 F         -29.2648   47.1019   -2.3216 F       1  UNL1       -0.2042
     24 C         -27.6264   48.7422   -2.8310 C.ar    1  UNL1        0.0367
     25 C         -26.8891   49.4762   -3.7646 C.ar    1  UNL1        0.0372
     26 S         -25.6928   50.6771   -3.1726 S.3     1  UNL1       -0.1401
     27 H         -24.6577   49.7236   -3.1653 H       1  UNL1        0.1072
     28 C         -29.7898   46.5420   -5.0670 C.3     1  UNL1        0.4207
     29 F         -29.5969   45.3590   -4.3776 F       1  UNL1       -0.1658
     30 F         -31.0787   46.9884   -4.8301 F       1  UNL1       -0.1658
     31 F         -29.6568   46.3016   -6.4230 F       1  UNL1       -0.1658
     32 N         -20.1119   53.2407   -9.6122 N.pl3   1  UNL1       -0.2814
     33 H         -20.1422   54.2262   -9.9574 H       1  UNL1        0.1551
     34 C         -18.8261   52.6609   -9.3385 C.ar    1  UNL1        0.0889
     35 C         -18.3293   52.7028   -8.0248 C.ar    1  UNL1        0.1543
     36 F         -19.0641   53.2686   -7.0344 F       1  UNL1       -0.2028
     37 C         -17.0877   52.1386   -7.7198 C.ar    1  UNL1        0.0310
     38 C         -16.3234   51.5429   -8.7240 C.ar    1  UNL1        0.0033
     39 C         -16.7919   51.5211  -10.0391 C.ar    1  UNL1        0.0128
     40 C         -18.0341   52.0834  -10.3581 C.ar    1  UNL1        0.0733
     41 CL        -18.5199   52.1080  -12.0496 Cl      1  UNL1       -0.0809
@<TRIPOS>BOND
     1     1     2    1
     2     2     3   ar
     3     3    32    1
     4    32    34    1
     5    34    35   ar
     6    35    36    1
     7    35    37   ar
     8    37    38   ar
     9    38    39   ar
    10    39    40   ar
    11    40    41    1
    12     3     4   ar
    13     4     5   ar
    14     5     6   ar
    15     6     7   ar
    16     7    15    1
    17    15    16    2
    18    15    17   am
    19    17    19    1
    20    19    20   ar
    21    20    21   ar
    22    21    28    1
    23    28    29    1
    24    28    30    1
    25    28    31    1
    26    21    22   ar
    27    22    23    1
    28    22    24   ar
    29    24    25   ar
    30    25    26    1
    31     7     8   ar
    32     8     9   ar
    33     9    10   ar
    34     9    11    1
    35    11    12    1
    36    12    13    1
    37    13    14    1
    38    10     2   ar
    39    40    34   ar
    40    10     5   ar
    41    25    19   ar
    42    14     8    1
    43    32    33    1
    44    17    18    1
    45    26    27    1
@<TRIPOS>MOLECULE
*****
 41 45 0 0 0
SMALL
GASTEIGER

@<TRIPOS>ATOM
      1 C         -22.4937   53.0416  -11.8017 C.3     1  UNL1        0.1333
      2 N         -22.6499   52.4799  -10.4592 N.ar    1  UNL1       -0.2950
      3 C         -21.7790   52.5298   -9.4113 C.ar    1  UNL1        0.2019
      4 N         -22.1940   51.8313   -8.3241 N.ar    1  UNL1       -0.2134
      5 C         -23.3925   51.3593   -8.7093 C.ar    1  UNL1        0.1033
      6 C         -24.2655   50.5742   -7.9603 C.ar    1  UNL1        0.0284
      7 C         -25.4898   50.1827   -8.5477 C.ar    1  UNL1        0.0922
      8 C         -25.8122   50.6366   -9.8567 C.ar    1  UNL1        0.1782
      9 C         -24.8898   51.4079  -10.5951 C.ar    1  UNL1        0.1897
     10 C         -23.6807   51.7542   -9.9843 C.ar    1  UNL1        0.1173
     11 O         -25.2218   51.8167  -11.8902 O.3     1  UNL1       -0.4669
     12 C         -26.3390   51.2512  -12.5779 C.3     1  UNL1        0.2527
     13 C         -27.5064   51.0445  -11.6064 C.3     1  UNL1        0.2526
     14 O         -27.0580   50.3604  -10.4345 O.3     1  UNL1       -0.4682
     15 C         -26.4316   49.3495   -7.7706 C.2     1  UNL1        0.2526
     16 O         -27.2869   49.9143   -7.0358 O.2     1  UNL1       -0.2697
     17 N         -26.3744   47.9145   -7.8450 N.am    1  UNL1       -0.2799
     18 H         -25.6192   47.4703   -8.4130 H       1  UNL1        0.1552
     19 C         -27.3525   47.0525   -7.2409 C.ar    1  UNL1        0.0561
     20 C         -28.4323   46.5623   -7.9954 C.ar    1  UNL1        0.0213
     21 C         -29.4031   45.7297   -7.4083 C.ar    1  UNL1        0.1001
     22 C         -29.2984   45.4200   -6.0406 C.ar    1  UNL1        0.1446
     23 F         -30.2314   44.6413   -5.4355 F       1  UNL1       -0.2042
     24 C         -28.2370   45.9196   -5.2831 C.ar    1  UNL1        0.0367
     25 C         -27.2669   46.7355   -5.8724 C.ar    1  UNL1        0.0372
     26 S         -25.9106   47.3371   -4.8615 S.3     1  UNL1       -0.1401
     27 H         -25.1090   46.2246   -5.1783 H       1  UNL1        0.1072
     28 C         -30.5745   45.2101   -8.2077 C.3     1  UNL1        0.4207
     29 F         -31.5815   44.8209   -7.3438 F       1  UNL1       -0.1658
     30 F         -31.0751   46.1727   -9.0676 F       1  UNL1       -0.1658
     31 F         -30.1790   44.1193   -8.9613 F       1  UNL1       -0.1658
     32 N         -20.5382   53.2507   -9.4131 N.pl3   1  UNL1       -0.2814
     33 H         -20.5720   54.2707   -9.6364 H       1  UNL1        0.1551
     34 C         -19.2530   52.6545   -9.1747 C.ar    1  UNL1        0.0889
     35 C         -18.7274   52.6748   -7.8718 C.ar    1  UNL1        0.1543
     36 F         -19.4346   53.2356   -6.8587 F       1  UNL1       -0.2028
     37 C         -17.4855   52.0942   -7.6009 C.ar    1  UNL1        0.0310
     38 C         -16.7493   51.5034   -8.6288 C.ar    1  UNL1        0.0033
     39 C         -17.2465   51.5029   -9.9335 C.ar    1  UNL1        0.0128
     40 C         -18.4893   52.0818  -10.2184 C.ar    1  UNL1        0.0733
     41 CL        -19.0114   52.1326  -11.8985 Cl      1  UNL1       -0.0809
@<TRIPOS>BOND
     1     1     2    1
     2     2     3   ar
     3     3    32    1
     4    32    34    1
     5    34    35   ar
     6    35    36    1
     7    35    37   ar
     8    37    38   ar
     9    38    39   ar
    10    39    40   ar
    11    40    41    1
    12     3     4   ar
    13     4     5   ar
    14     5     6   ar
    15     6     7   ar
    16     7    15    1
    17    15    16    2
    18    15    17   am
    19    17    19    1
    20    19    20   ar
    21    20    21   ar
    22    21    28    1
    23    28    29    1
    24    28    30    1
    25    28    31    1
    26    21    22   ar
    27    22    23    1
    28    22    24   ar
    29    24    25   ar
    30    25    26    1
    31     7     8   ar
    32     8     9   ar
    33     9    10   ar
    34     9    11    1
    35    11    12    1
    36    12    13    1
    37    13    14    1
    38    10     2   ar
    39    40    34   ar
    40    10     5   ar
    41    25    19   ar
    42    14     8    1
    43    32    33    1
    44    17    18    1
    45    26    27    1
