@<TRIPOS>MOLECULE
*****
 37 42 0 0 0
SMALL
GASTEIGER

@<TRIPOS>ATOM
      1 C          48.0391   12.8140  -24.8519 C.ar    1  UNL1        0.1095
      2 N          47.1748   12.8004  -25.8976 N.ar    1  UNL1       -0.1677
      3 N          47.2086   13.9960  -26.4758 N.ar    1  UNL1       -0.2319
      4 C          46.4759   14.3436  -27.6857 C.3     1  UNL1        0.1554
      5 C          48.1060   14.7553  -25.8286 C.ar    1  UNL1        0.1649
      6 N          48.4956   16.0134  -26.1454 N.ar    1  UNL1       -0.2121
      7 C          49.4506   16.6110  -25.3693 C.ar    1  UNL1        0.1417
      8 N          49.9731   15.9470  -24.2862 N.ar    1  UNL1       -0.2159
      9 C          49.5825   14.6789  -23.9629 C.ar    1  UNL1        0.1375
     10 C          48.6389   14.0648  -24.7867 C.ar    1  UNL1        0.0865
     11 C          49.3810   10.6996  -24.3004 C.ar    1  UNL1        0.0809
     12 C          48.3755   11.6197  -24.0645 C.ar    1  UNL1        0.0577
     13 C          47.6494   11.0952  -23.0120 C.ar    1  UNL1        0.1231
     14 N          48.1876    9.9169  -22.6415 N.ar    1  UNL1       -0.1676
     15 N          49.2345    9.6857  -23.4190 N.ar    1  UNL1       -0.2488
     16 C          50.0214    8.4593  -23.3499 C.3     1  UNL1        0.1537
     17 C          53.1721   10.7908  -28.6721 C.3     1  UNL1        0.0310
     18 C          52.2044   10.7475  -27.5270 C.ar    1  UNL1       -0.0218
     19 C          51.0886    9.8981  -27.5760 C.ar    1  UNL1       -0.0042
     20 C          50.1672    9.8835  -26.5249 C.ar    1  UNL1        0.0012
     21 C          50.3441   10.7258  -25.4181 C.ar    1  UNL1        0.0174
     22 C          51.4476   11.5906  -25.3786 C.ar    1  UNL1        0.0012
     23 C          52.3692   11.6056  -26.4292 C.ar    1  UNL1       -0.0042
     24 N          50.0682   14.0623  -22.7675 N.pl3   1  UNL1       -0.2917
     25 C          51.4487   14.1477  -22.3436 C.3     1  UNL1        0.0937
     26 C          51.5072   13.3336  -21.0624 C.3     1  UNL1        0.0391
     27 C          50.0808   13.3678  -20.4833 C.3     1  UNL1        0.0790
     28 C          49.1877   13.5832  -21.7158 C.3     1  UNL1        0.1081
     29 N          49.7266   12.1216  -19.7454 N.3     1  UNL1       -0.2723
     30 C          50.7229   11.7249  -18.7195 C.3     1  UNL1        0.0721
     31 C          50.7167   12.6572  -17.4984 C.3     1  UNL1        0.0174
     32 C          49.3210   12.7196  -16.8782 C.3     1  UNL1        0.0029
     33 C          48.2748   13.0905  -17.9294 C.3     1  UNL1        0.0174
     34 C          48.3671   12.1573  -19.1484 C.3     1  UNL1        0.0721
     35 C          49.9056   18.0086  -25.6901 C.3     1  UNL1        0.0587
     36 C          49.1218   18.5702  -26.8804 C.3     1  UNL1        0.0080
     37 C          51.4121   18.0312  -25.9658 C.3     1  UNL1        0.0080
@<TRIPOS>BOND
     1    17    18    1
     2    18    19   ar
     3    19    20   ar
     4    20    21   ar
     5    21    11    1
     6    11    12   ar
     7    12     1    1
     8     1     2   ar
     9     2     3   ar
    10     3     4    1
    11     3     5   ar
    12     5     6   ar
    13     6     7   ar
    14     7    35    1
    15    35    36    1
    16    35    37    1
    17     7     8   ar
    18     8     9   ar
    19     9    24    1
    20    24    25    1
    21    25    26    1
    22    26    27    1
    23    27    29    1
    24    29    30    1
    25    30    31    1
    26    31    32    1
    27    32    33    1
    28    33    34    1
    29    27    28    1
    30     9    10   ar
    31    12    13   ar
    32    13    14   ar
    33    14    15   ar
    34    15    16    1
    35    21    22   ar
    36    22    23   ar
    37    23    18   ar
    38    15    11   ar
    39    10     1   ar
    40    10     5   ar
    41    28    24    1
    42    34    29    1
@<TRIPOS>MOLECULE
*****
 37 42 0 0 0
SMALL
GASTEIGER

@<TRIPOS>ATOM
      1 C          48.1030   14.8813  -22.7226 C.ar    1  UNL1        0.1095
      2 N          46.9402   15.5511  -22.5225 N.ar    1  UNL1       -0.1677
      3 N          46.9991   16.6911  -23.2022 N.ar    1  UNL1       -0.2319
      4 C          45.9029   17.6451  -23.3014 C.3     1  UNL1        0.1554
      5 C          48.1711   16.7364  -23.8543 C.ar    1  UNL1        0.1649
      6 N          48.5929   17.6925  -24.7163 N.ar    1  UNL1       -0.2121
      7 C          49.8196   17.5410  -25.3026 C.ar    1  UNL1        0.1417
      8 N          50.6006   16.4534  -24.9956 N.ar    1  UNL1       -0.2159
      9 C          50.1794   15.4877  -24.1266 C.ar    1  UNL1        0.1375
     10 C          48.9094   15.6323  -23.5677 C.ar    1  UNL1        0.0865
     11 C          48.1432   12.3254  -22.9252 C.ar    1  UNL1        0.0809
     12 C          48.3411   13.5125  -22.2436 C.ar    1  UNL1        0.0577
     13 C          48.6674   13.1357  -20.9546 C.ar    1  UNL1        0.1231
     14 N          48.6574   11.7913  -20.8664 N.ar    1  UNL1       -0.1676
     15 N          48.3452   11.3079  -22.0591 N.ar    1  UNL1       -0.2488
     16 C          48.1701    9.8831  -22.3191 C.3     1  UNL1        0.1537
     17 C          46.1617   11.7921  -28.3365 C.3     1  UNL1        0.0310
     18 C          46.6800   11.9570  -26.9387 C.ar    1  UNL1       -0.0218
     19 C          48.0388   11.7459  -26.6590 C.ar    1  UNL1       -0.0042
     20 C          48.5156   11.8645  -25.3504 C.ar    1  UNL1        0.0012
     21 C          47.6381   12.1840  -24.3045 C.ar    1  UNL1        0.0174
     22 C          46.2762   12.3737  -24.5802 C.ar    1  UNL1        0.0012
     23 C          45.7988   12.2553  -25.8884 C.ar    1  UNL1       -0.0042
     24 N          51.0629   14.4283  -23.7494 N.pl3   1  UNL1       -0.2917
     25 C          51.6311   14.3127  -22.4240 C.3     1  UNL1        0.0937
     26 C          52.5135   13.0781  -22.4918 C.3     1  UNL1        0.0391
     27 C          51.9194   12.2041  -23.6117 C.3     1  UNL1        0.0790
     28 C          51.2134   13.2133  -24.5315 C.3     1  UNL1        0.1081
     29 N          52.9536   11.4126  -24.3375 N.3     1  UNL1       -0.2723
     30 C          52.7009    9.9502  -24.3406 C.3     1  UNL1        0.0721
     31 C          51.5190    9.5568  -25.2398 C.3     1  UNL1        0.0174
     32 C          51.7426   10.0539  -26.6678 C.3     1  UNL1        0.0029
     33 C          52.0419   11.5530  -26.6813 C.3     1  UNL1        0.0174
     34 C          53.1961   11.8906  -25.7226 C.3     1  UNL1        0.0721
     35 C          50.3215   18.5844  -26.2631 C.3     1  UNL1        0.0587
     36 C          49.2001   19.0326  -27.2056 C.3     1  UNL1        0.0080
     37 C          51.5214   18.0524  -27.0526 C.3     1  UNL1        0.0080
@<TRIPOS>BOND
     1    17    18    1
     2    18    19   ar
     3    19    20   ar
     4    20    21   ar
     5    21    11    1
     6    11    12   ar
     7    12     1    1
     8     1     2   ar
     9     2     3   ar
    10     3     4    1
    11     3     5   ar
    12     5     6   ar
    13     6     7   ar
    14     7    35    1
    15    35    36    1
    16    35    37    1
    17     7     8   ar
    18     8     9   ar
    19     9    24    1
    20    24    25    1
    21    25    26    1
    22    26    27    1
    23    27    29    1
    24    29    30    1
    25    30    31    1
    26    31    32    1
    27    32    33    1
    28    33    34    1
    29    27    28    1
    30     9    10   ar
    31    12    13   ar
    32    13    14   ar
    33    14    15   ar
    34    15    16    1
    35    21    22   ar
    36    22    23   ar
    37    23    18   ar
    38    15    11   ar
    39    10     1   ar
    40    10     5   ar
    41    28    24    1
    42    34    29    1
@<TRIPOS>MOLECULE
*****
 37 42 0 0 0
SMALL
GASTEIGER

@<TRIPOS>ATOM
      1 C          47.5468   11.5050  -23.1323 C.ar    1  UNL1        0.1095
      2 N          47.4725   10.1936  -22.7925 N.ar    1  UNL1       -0.1677
      3 N          48.1031   10.0317  -21.6344 N.ar    1  UNL1       -0.2319
      4 C          48.1669    8.7734  -20.9036 C.3     1  UNL1        0.1554
      5 C          48.5481   11.2288  -21.2223 C.ar    1  UNL1        0.1649
      6 N          49.1763   11.5125  -20.0562 N.ar    1  UNL1       -0.2121
      7 C          49.5295   12.8110  -19.8096 C.ar    1  UNL1        0.1417
      8 N          49.2676   13.7854  -20.7417 N.ar    1  UNL1       -0.2159
      9 C          48.6352   13.5034  -21.9189 C.ar    1  UNL1        0.1375
     10 C          48.2426   12.1831  -22.1401 C.ar    1  UNL1        0.0865
     11 C          47.2332   12.1023  -25.6062 C.ar    1  UNL1        0.0809
     12 C          46.8371   12.0847  -24.2812 C.ar    1  UNL1        0.0577
     13 C          45.6979   12.8660  -24.2371 C.ar    1  UNL1        0.1231
     14 N          45.4299   13.3346  -25.4716 N.ar    1  UNL1       -0.1676
     15 N          46.3565   12.8669  -26.2941 N.ar    1  UNL1       -0.2488
     16 C          46.4239   13.2297  -27.7054 C.3     1  UNL1        0.1537
     17 C          52.1240    9.8546  -27.7322 C.3     1  UNL1        0.0310
     18 C          50.8560   10.4173  -27.1621 C.ar    1  UNL1       -0.0218
     19 C          49.6115    9.9977  -27.6562 C.ar    1  UNL1       -0.0042
     20 C          48.4304   10.5481  -27.1501 C.ar    1  UNL1        0.0012
     21 C          48.4798   11.5323  -26.1528 C.ar    1  UNL1        0.0174
     22 C          49.7240   11.9676  -25.6740 C.ar    1  UNL1        0.0012
     23 C          50.9053   11.4177  -26.1795 C.ar    1  UNL1       -0.0042
     24 N          48.4772   14.5225  -22.9096 N.pl3   1  UNL1       -0.2917
     25 C          47.5284   15.6067  -22.7781 C.3     1  UNL1        0.0937
     26 C          47.6864   16.4113  -24.0568 C.3     1  UNL1        0.0391
     27 C          49.1216   16.1391  -24.5440 C.3     1  UNL1        0.0790
     28 C          49.4528   14.7560  -23.9606 C.3     1  UNL1        0.1081
     29 N          49.2421   16.1640  -26.0298 N.3     1  UNL1       -0.2723
     30 C          48.2627   17.0559  -26.6990 C.3     1  UNL1        0.0721
     31 C          48.5700   18.5444  -26.4751 C.3     1  UNL1        0.0174
     32 C          49.9869   18.8760  -26.9430 C.3     1  UNL1        0.0029
     33 C          51.0072   17.9418  -26.2922 C.3     1  UNL1        0.0174
     34 C          50.6161   16.4695  -26.5039 C.3     1  UNL1        0.0721
     35 C          50.2310   13.1625  -18.5260 C.3     1  UNL1        0.0587
     36 C          51.7074   12.7591  -18.5913 C.3     1  UNL1        0.0080
     37 C          49.5333   12.4982  -17.3353 C.3     1  UNL1        0.0080
@<TRIPOS>BOND
     1    17    18    1
     2    18    19   ar
     3    19    20   ar
     4    20    21   ar
     5    21    11    1
     6    11    12   ar
     7    12     1    1
     8     1     2   ar
     9     2     3   ar
    10     3     4    1
    11     3     5   ar
    12     5     6   ar
    13     6     7   ar
    14     7    35    1
    15    35    36    1
    16    35    37    1
    17     7     8   ar
    18     8     9   ar
    19     9    24    1
    20    24    25    1
    21    25    26    1
    22    26    27    1
    23    27    29    1
    24    29    30    1
    25    30    31    1
    26    31    32    1
    27    32    33    1
    28    33    34    1
    29    27    28    1
    30     9    10   ar
    31    12    13   ar
    32    13    14   ar
    33    14    15   ar
    34    15    16    1
    35    21    22   ar
    36    22    23   ar
    37    23    18   ar
    38    15    11   ar
    39    10     1   ar
    40    10     5   ar
    41    28    24    1
    42    34    29    1
@<TRIPOS>MOLECULE
*****
 37 42 0 0 0
SMALL
GASTEIGER

@<TRIPOS>ATOM
      1 C          46.4816   14.5668  -25.6633 C.ar    1  UNL1        0.1095
      2 N          45.8198   15.6270  -26.1912 N.ar    1  UNL1       -0.1677
      3 N          45.5177   15.3380  -27.4521 N.ar    1  UNL1       -0.2319
      4 C          44.7322   16.1988  -28.3260 C.3     1  UNL1        0.1554
      5 C          45.9523   14.0967  -27.7190 C.ar    1  UNL1        0.1649
      6 N          45.7791   13.3965  -28.8656 N.ar    1  UNL1       -0.2121
      7 C          46.2795   12.1249  -28.9304 C.ar    1  UNL1        0.1417
      8 N          46.9581   11.5960  -27.8596 N.ar    1  UNL1       -0.2159
      9 C          47.1356   12.2988  -26.7021 C.ar    1  UNL1        0.1375
     10 C          46.5843   13.5785  -26.6334 C.ar    1  UNL1        0.0865
     11 C          47.9361   15.0299  -23.6029 C.ar    1  UNL1        0.0809
     12 C          46.8475   14.4665  -24.2435 C.ar    1  UNL1        0.0577
     13 C          46.2528   13.6565  -23.2946 C.ar    1  UNL1        0.1231
     14 N          46.9543   13.7249  -22.1464 N.ar    1  UNL1       -0.1676
     15 N          47.9658   14.5583  -22.3368 N.ar    1  UNL1       -0.2488
     16 C          48.9822   14.8205  -21.3237 C.3     1  UNL1        0.1537
     17 C          52.0303   18.2938  -26.0681 C.3     1  UNL1        0.0310
     18 C          50.9621   17.4386  -25.4540 C.ar    1  UNL1       -0.0218
     19 C          49.6711   17.9521  -25.2578 C.ar    1  UNL1       -0.0042
     20 C          48.6850   17.1675  -24.6529 C.ar    1  UNL1        0.0012
     21 C          48.9807   15.8649  -24.2268 C.ar    1  UNL1        0.0174
     22 C          50.2768   15.3588  -24.4032 C.ar    1  UNL1        0.0012
     23 C          51.2632   16.1428  -25.0079 C.ar    1  UNL1       -0.0042
     24 N          47.9395   11.7571  -25.6508 N.pl3   1  UNL1       -0.2917
     25 C          49.3710   11.9527  -25.5749 C.3     1  UNL1        0.0937
     26 C          49.7971   11.1870  -24.3341 C.3     1  UNL1        0.0391
     27 C          48.5533   11.1399  -23.4276 C.3     1  UNL1        0.0790
     28 C          47.3765   11.2519  -24.4103 C.3     1  UNL1        0.1081
     29 N          48.4822    9.8967  -22.6077 N.3     1  UNL1       -0.2723
     30 C          49.7034    9.6326  -21.8067 C.3     1  UNL1        0.0721
     31 C          49.8604   10.6077  -20.6299 C.3     1  UNL1        0.0174
     32 C          48.6245   10.5676  -19.7315 C.3     1  UNL1        0.0029
     33 C          47.3520   10.8006  -20.5461 C.3     1  UNL1        0.0174
     34 C          47.2794    9.8324  -21.7390 C.3     1  UNL1        0.0721
     35 C          46.1079   11.3187  -30.1889 C.3     1  UNL1        0.0587
     36 C          47.0722   10.1285  -30.2015 C.3     1  UNL1        0.0080
     37 C          46.3120   12.2028  -31.4229 C.3     1  UNL1        0.0080
@<TRIPOS>BOND
     1    17    18    1
     2    18    19   ar
     3    19    20   ar
     4    20    21   ar
     5    21    11    1
     6    11    12   ar
     7    12     1    1
     8     1     2   ar
     9     2     3   ar
    10     3     4    1
    11     3     5   ar
    12     5     6   ar
    13     6     7   ar
    14     7    35    1
    15    35    36    1
    16    35    37    1
    17     7     8   ar
    18     8     9   ar
    19     9    24    1
    20    24    25    1
    21    25    26    1
    22    26    27    1
    23    27    29    1
    24    29    30    1
    25    30    31    1
    26    31    32    1
    27    32    33    1
    28    33    34    1
    29    27    28    1
    30     9    10   ar
    31    12    13   ar
    32    13    14   ar
    33    14    15   ar
    34    15    16    1
    35    21    22   ar
    36    22    23   ar
    37    23    18   ar
    38    15    11   ar
    39    10     1   ar
    40    10     5   ar
    41    28    24    1
    42    34    29    1
@<TRIPOS>MOLECULE
*****
 37 42 0 0 0
SMALL
GASTEIGER

@<TRIPOS>ATOM
      1 C          48.1494   12.5548  -25.2262 C.ar    1  UNL1        0.1095
      2 N          47.2575   12.4181  -26.2394 N.ar    1  UNL1       -0.1677
      3 N          47.2239   13.5609  -26.9159 N.ar    1  UNL1       -0.2319
      4 C          46.4434   13.7753  -28.1269 C.3     1  UNL1        0.1554
      5 C          48.1057   14.4078  -26.3626 C.ar    1  UNL1        0.1649
      6 N          48.4319   15.6494  -26.7952 N.ar    1  UNL1       -0.2121
      7 C          49.3817   16.3485  -26.1018 C.ar    1  UNL1        0.1417
      8 N          49.9623   15.8000  -24.9843 N.ar    1  UNL1       -0.2159
      9 C          49.6356   14.5490  -24.5444 C.ar    1  UNL1        0.1375
     10 C          48.6966   13.8299  -25.2842 C.ar    1  UNL1        0.0865
     11 C          49.5584   10.5152  -24.5705 C.ar    1  UNL1        0.0809
     12 C          48.5585   11.4458  -24.3531 C.ar    1  UNL1        0.0577
     13 C          47.9167   11.0209  -23.2052 C.ar    1  UNL1        0.1231
     14 N          48.4974    9.8888  -22.7621 N.ar    1  UNL1       -0.1676
     15 N          49.4899    9.5911  -23.5868 N.ar    1  UNL1       -0.2488
     16 C          50.2980    8.3836  -23.4561 C.3     1  UNL1        0.1537
     17 C          53.0274   10.2074  -29.1926 C.3     1  UNL1        0.0310
     18 C          52.1427   10.2669  -27.9829 C.ar    1  UNL1       -0.0218
     19 C          50.9714    9.4964  -27.9251 C.ar    1  UNL1       -0.0042
     20 C          50.1280    9.5784  -26.8134 C.ar    1  UNL1        0.0012
     21 C          50.4395   10.4399  -25.7519 C.ar    1  UNL1        0.0174
     22 C          51.5988   11.2262  -25.8189 C.ar    1  UNL1        0.0012
     23 C          52.4425   11.1447  -26.9301 C.ar    1  UNL1       -0.0042
     24 N          50.1805   14.0557  -23.3176 N.pl3   1  UNL1       -0.2917
     25 C          51.2943   13.1339  -23.2663 C.3     1  UNL1        0.0937
     26 C          51.5041   12.8684  -21.7854 C.3     1  UNL1        0.0391
     27 C          50.9522   14.1089  -21.0590 C.3     1  UNL1        0.0790
     28 C          49.8987   14.6663  -22.0298 C.3     1  UNL1        0.1081
     29 N          50.3699   13.7862  -19.7250 N.3     1  UNL1       -0.2723
     30 C          48.8893   13.8752  -19.6763 C.3     1  UNL1        0.0721
     31 C          48.2033   12.7357  -20.4452 C.3     1  UNL1        0.0174
     32 C          48.6651   11.3778  -19.9167 C.3     1  UNL1        0.0029
     33 C          50.1908   11.2816  -19.9241 C.3     1  UNL1        0.0174
     34 C          50.8194   12.4766  -19.1877 C.3     1  UNL1        0.0721
     35 C          49.7672   17.7313  -26.5519 C.3     1  UNL1        0.0587
     36 C          51.2490   17.9965  -26.2676 C.3     1  UNL1        0.0080
     37 C          48.8822   18.7813  -25.8736 C.3     1  UNL1        0.0080
@<TRIPOS>BOND
     1    17    18    1
     2    18    19   ar
     3    19    20   ar
     4    20    21   ar
     5    21    11    1
     6    11    12   ar
     7    12     1    1
     8     1     2   ar
     9     2     3   ar
    10     3     4    1
    11     3     5   ar
    12     5     6   ar
    13     6     7   ar
    14     7    35    1
    15    35    36    1
    16    35    37    1
    17     7     8   ar
    18     8     9   ar
    19     9    24    1
    20    24    25    1
    21    25    26    1
    22    26    27    1
    23    27    29    1
    24    29    30    1
    25    30    31    1
    26    31    32    1
    27    32    33    1
    28    33    34    1
    29    27    28    1
    30     9    10   ar
    31    12    13   ar
    32    13    14   ar
    33    14    15   ar
    34    15    16    1
    35    21    22   ar
    36    22    23   ar
    37    23    18   ar
    38    15    11   ar
    39    10     1   ar
    40    10     5   ar
    41    28    24    1
    42    34    29    1
@<TRIPOS>MOLECULE
*****
 37 42 0 0 0
SMALL
GASTEIGER

@<TRIPOS>ATOM
      1 C          47.5111   12.3605  -25.8997 C.ar    1  UNL1        0.1095
      2 N          46.6459   12.5070  -26.9345 N.ar    1  UNL1       -0.1677
      3 N          47.0646   11.7382  -27.9338 N.ar    1  UNL1       -0.2319
      4 C          46.3491   11.5636  -29.1904 C.3     1  UNL1        0.1554
      5 C          48.1656   11.0838  -27.5333 C.ar    1  UNL1        0.1649
      6 N          48.8594   10.1477  -28.2242 N.ar    1  UNL1       -0.2121
      7 C          49.9479    9.5746  -27.6255 C.ar    1  UNL1        0.1417
      8 N          50.3275    9.9673  -26.3651 N.ar    1  UNL1       -0.2159
      9 C          49.6312   10.9111  -25.6654 C.ar    1  UNL1        0.1375
     10 C          48.4989   11.4574  -26.2701 C.ar    1  UNL1        0.0865
     11 C          47.7937   14.1339  -24.0693 C.ar    1  UNL1        0.0809
     12 C          47.2899   12.9474  -24.5707 C.ar    1  UNL1        0.0577
     13 C          46.6535   12.3475  -23.5006 C.ar    1  UNL1        0.1231
     14 N          46.7768   13.1310  -22.4115 N.ar    1  UNL1       -0.1676
     15 N          47.4613   14.2092  -22.7616 N.ar    1  UNL1       -0.2488
     16 C          47.8487   15.2483  -21.8137 C.3     1  UNL1        0.1537
     17 C          51.2523   17.8438  -26.8564 C.3     1  UNL1        0.0310
     18 C          50.3384   16.9028  -26.1290 C.ar    1  UNL1       -0.0218
     19 C          50.5022   16.6803  -24.7533 C.ar    1  UNL1       -0.0042
     20 C          49.6737   15.7765  -24.0820 C.ar    1  UNL1        0.0012
     21 C          48.6796   15.0762  -24.7800 C.ar    1  UNL1        0.0174
     22 C          48.5296   15.2822  -26.1591 C.ar    1  UNL1        0.0012
     23 C          49.3577   16.1857  -26.8308 C.ar    1  UNL1       -0.0042
     24 N          50.1187   11.3714  -24.4022 N.pl3   1  UNL1       -0.2917
     25 C          50.9594   12.5404  -24.2624 C.3     1  UNL1        0.0937
     26 C          51.2509   12.6270  -22.7741 C.3     1  UNL1        0.0391
     27 C          50.0741   11.9181  -22.0787 C.3     1  UNL1        0.0790
     28 C          49.5664   10.9237  -23.1352 C.3     1  UNL1        0.1081
     29 N          50.4753   11.2366  -20.8147 N.3     1  UNL1       -0.2723
     30 C          50.6916   12.1612  -19.6741 C.3     1  UNL1        0.0721
     31 C          49.3803   12.7580  -19.1406 C.3     1  UNL1        0.0174
     32 C          48.4095   11.6476  -18.7395 C.3     1  UNL1        0.0029
     33 C          48.2032   10.6633  -19.8909 C.3     1  UNL1        0.0174
     34 C          49.5519   10.1436  -20.4166 C.3     1  UNL1        0.0721
     35 C          50.7438    8.5333  -28.3640 C.3     1  UNL1        0.0587
     36 C          52.0399    9.1365  -28.9146 C.3     1  UNL1        0.0080
     37 C          49.9056    7.9163  -29.4877 C.3     1  UNL1        0.0080
@<TRIPOS>BOND
     1    17    18    1
     2    18    19   ar
     3    19    20   ar
     4    20    21   ar
     5    21    11    1
     6    11    12   ar
     7    12     1    1
     8     1     2   ar
     9     2     3   ar
    10     3     4    1
    11     3     5   ar
    12     5     6   ar
    13     6     7   ar
    14     7    35    1
    15    35    36    1
    16    35    37    1
    17     7     8   ar
    18     8     9   ar
    19     9    24    1
    20    24    25    1
    21    25    26    1
    22    26    27    1
    23    27    29    1
    24    29    30    1
    25    30    31    1
    26    31    32    1
    27    32    33    1
    28    33    34    1
    29    27    28    1
    30     9    10   ar
    31    12    13   ar
    32    13    14   ar
    33    14    15   ar
    34    15    16    1
    35    21    22   ar
    36    22    23   ar
    37    23    18   ar
    38    15    11   ar
    39    10     1   ar
    40    10     5   ar
    41    28    24    1
    42    34    29    1
@<TRIPOS>MOLECULE
*****
 37 42 0 0 0
SMALL
GASTEIGER

@<TRIPOS>ATOM
      1 C          51.0650   14.7934  -22.5141 C.ar    1  UNL1        0.1095
      2 N          52.3112   14.6123  -22.0092 N.ar    1  UNL1       -0.1677
      3 N          52.2055   13.8874  -20.9009 N.ar    1  UNL1       -0.2319
      4 C          53.3393   13.4154  -20.1177 C.3     1  UNL1        0.1554
      5 C          50.9121   13.5815  -20.7155 C.ar    1  UNL1        0.1649
      6 N          50.3867   12.7963  -19.7448 N.ar    1  UNL1       -0.2121
      7 C          49.0352   12.5840  -19.7436 C.ar    1  UNL1        0.1417
      8 N          48.2433   13.1789  -20.6954 N.ar    1  UNL1       -0.2159
      9 C          48.7690   13.9718  -21.6753 C.ar    1  UNL1        0.1375
     10 C          50.1530   14.1464  -21.6907 C.ar    1  UNL1        0.0865
     11 C          50.6396   14.8113  -25.0427 C.ar    1  UNL1        0.0809
     12 C          50.8028   15.4258  -23.8144 C.ar    1  UNL1        0.0577
     13 C          50.8201   16.7799  -24.0905 C.ar    1  UNL1        0.1231
     14 N          50.6825   16.9667  -25.4178 N.ar    1  UNL1       -0.1676
     15 N          50.5694   15.7761  -25.9864 N.ar    1  UNL1       -0.2488
     16 C          50.4766   15.5895  -27.4303 C.3     1  UNL1        0.1537
     17 C          50.8691    9.1270  -26.1053 C.3     1  UNL1        0.0310
     18 C          50.8115   10.6050  -25.8569 C.ar    1  UNL1       -0.0218
     19 C          51.9910   11.3301  -25.6286 C.ar    1  UNL1       -0.0042
     20 C          51.9349   12.7011  -25.3617 C.ar    1  UNL1        0.0012
     21 C          50.6990   13.3609  -25.3084 C.ar    1  UNL1        0.0174
     22 C          49.5185   12.6325  -25.5150 C.ar    1  UNL1        0.0012
     23 C          49.5738   11.2617  -25.7820 C.ar    1  UNL1       -0.0042
     24 N          47.9031   14.6599  -22.5819 N.pl3   1  UNL1       -0.2917
     25 C          47.7249   16.0955  -22.5624 C.3     1  UNL1        0.0937
     26 C          46.7115   16.3707  -23.6601 C.3     1  UNL1        0.0391
     27 C          46.8482   15.2024  -24.6538 C.3     1  UNL1        0.0790
     28 C          47.3850   14.0474  -23.7931 C.3     1  UNL1        0.1081
     29 N          45.5594   14.8545  -25.3178 N.3     1  UNL1       -0.2723
     30 C          45.5648   15.0581  -26.7878 C.3     1  UNL1        0.0721
     31 C          46.4251   14.0205  -27.5248 C.3     1  UNL1        0.0174
     32 C          45.9583   12.6033  -27.1929 C.3     1  UNL1        0.0029
     33 C          45.9104   12.3867  -25.6803 C.3     1  UNL1        0.0174
     34 C          45.0815   13.4859  -24.9947 C.3     1  UNL1        0.0721
     35 C          48.4166   11.7196  -18.6790 C.3     1  UNL1        0.0587
     36 C          46.8886   11.7443  -18.7859 C.3     1  UNL1        0.0080
     37 C          48.8764   12.1703  -17.2893 C.3     1  UNL1        0.0080
@<TRIPOS>BOND
     1    17    18    1
     2    18    19   ar
     3    19    20   ar
     4    20    21   ar
     5    21    11    1
     6    11    12   ar
     7    12     1    1
     8     1     2   ar
     9     2     3   ar
    10     3     4    1
    11     3     5   ar
    12     5     6   ar
    13     6     7   ar
    14     7    35    1
    15    35    36    1
    16    35    37    1
    17     7     8   ar
    18     8     9   ar
    19     9    24    1
    20    24    25    1
    21    25    26    1
    22    26    27    1
    23    27    29    1
    24    29    30    1
    25    30    31    1
    26    31    32    1
    27    32    33    1
    28    33    34    1
    29    27    28    1
    30     9    10   ar
    31    12    13   ar
    32    13    14   ar
    33    14    15   ar
    34    15    16    1
    35    21    22   ar
    36    22    23   ar
    37    23    18   ar
    38    15    11   ar
    39    10     1   ar
    40    10     5   ar
    41    28    24    1
    42    34    29    1
@<TRIPOS>MOLECULE
*****
 37 42 0 0 0
SMALL
GASTEIGER

@<TRIPOS>ATOM
      1 C          46.6073   12.6963  -27.0329 C.ar    1  UNL1        0.1095
      2 N          46.0614   12.7310  -28.2745 N.ar    1  UNL1       -0.1677
      3 N          46.7184   11.8648  -29.0379 N.ar    1  UNL1       -0.2319
      4 C          46.3692   11.5578  -30.4183 C.3     1  UNL1        0.1554
      5 C          47.6522   11.2603  -28.2872 C.ar    1  UNL1        0.1649
      6 N          48.4856   10.2609  -28.6635 N.ar    1  UNL1       -0.2121
      7 C          49.3551    9.7578  -27.7348 C.ar    1  UNL1        0.1417
      8 N          49.3854   10.2805  -26.4649 N.ar    1  UNL1       -0.2159
      9 C          48.5474   11.2886  -26.0817 C.ar    1  UNL1        0.1375
     10 C          47.6367   11.7642  -27.0254 C.ar    1  UNL1        0.0865
     11 C          46.5147   14.5763  -25.2916 C.ar    1  UNL1        0.0809
     12 C          46.0458   13.4165  -25.8816 C.ar    1  UNL1        0.0577
     13 C          45.0188   12.9875  -25.0623 C.ar    1  UNL1        0.1231
     14 N          44.8847   13.8423  -24.0296 N.ar    1  UNL1       -0.1676
     15 N          45.7865   14.8011  -24.1756 N.ar    1  UNL1       -0.2488
     16 C          45.9804   15.8665  -23.1982 C.3     1  UNL1        0.1537
     17 C          51.1671   17.6139  -26.9105 C.3     1  UNL1        0.0310
     18 C          49.9469   16.8500  -26.4895 C.ar    1  UNL1       -0.0218
     19 C          49.7036   16.5994  -25.1305 C.ar    1  UNL1       -0.0042
     20 C          48.5856   15.8569  -24.7399 C.ar    1  UNL1        0.0012
     21 C          47.7042   15.3465  -25.7035 C.ar    1  UNL1        0.0174
     22 C          47.9587   15.5783  -27.0630 C.ar    1  UNL1        0.0012
     23 C          49.0764   16.3206  -27.4542 C.ar    1  UNL1       -0.0042
     24 N          48.6824   11.8793  -24.7863 N.pl3   1  UNL1       -0.2917
     25 C          47.8718   11.4861  -23.6544 C.3     1  UNL1        0.0937
     26 C          48.3347   12.3852  -22.5209 C.3     1  UNL1        0.0391
     27 C          49.7824   12.7786  -22.8677 C.3     1  UNL1        0.0790
     28 C          49.8356   12.6743  -24.4005 C.3     1  UNL1        0.1081
     29 N          50.1418   14.1431  -22.3861 N.3     1  UNL1       -0.2723
     30 C          49.8968   14.3548  -20.9378 C.3     1  UNL1        0.0721
     31 C          50.8927   13.5905  -20.0522 C.3     1  UNL1        0.0174
     32 C          52.3292   13.9769  -20.4036 C.3     1  UNL1        0.0029
     33 C          52.5894   13.8009  -21.8997 C.3     1  UNL1        0.0174
     34 C          51.5298   14.5427  -22.7318 C.3     1  UNL1        0.0721
     35 C          50.2971    8.6493  -28.1182 C.3     1  UNL1        0.0587
     36 C          51.6918    9.2075  -28.4180 C.3     1  UNL1        0.0080
     37 C          49.7483    7.8713  -29.3179 C.3     1  UNL1        0.0080
@<TRIPOS>BOND
     1    17    18    1
     2    18    19   ar
     3    19    20   ar
     4    20    21   ar
     5    21    11    1
     6    11    12   ar
     7    12     1    1
     8     1     2   ar
     9     2     3   ar
    10     3     4    1
    11     3     5   ar
    12     5     6   ar
    13     6     7   ar
    14     7    35    1
    15    35    36    1
    16    35    37    1
    17     7     8   ar
    18     8     9   ar
    19     9    24    1
    20    24    25    1
    21    25    26    1
    22    26    27    1
    23    27    29    1
    24    29    30    1
    25    30    31    1
    26    31    32    1
    27    32    33    1
    28    33    34    1
    29    27    28    1
    30     9    10   ar
    31    12    13   ar
    32    13    14   ar
    33    14    15   ar
    34    15    16    1
    35    21    22   ar
    36    22    23   ar
    37    23    18   ar
    38    15    11   ar
    39    10     1   ar
    40    10     5   ar
    41    28    24    1
    42    34    29    1
@<TRIPOS>MOLECULE
*****
 37 42 0 0 0
SMALL
GASTEIGER

@<TRIPOS>ATOM
      1 C          48.8383   14.4795  -22.4541 C.ar    1  UNL1        0.1095
      2 N          48.5282   15.7212  -22.0038 N.ar    1  UNL1       -0.1677
      3 N          47.7086   16.2859  -22.8837 N.ar    1  UNL1       -0.2319
      4 C          47.0902   17.5930  -22.7080 C.3     1  UNL1        0.1554
      5 C          47.4717   15.4059  -23.8687 C.ar    1  UNL1        0.1649
      6 N          46.6329   15.5600  -24.9211 N.ar    1  UNL1       -0.2121
      7 C          46.5105   14.5266  -25.8092 C.ar    1  UNL1        0.1417
      8 N          47.2448   13.3786  -25.6361 N.ar    1  UNL1       -0.2159
      9 C          48.0921   13.2195  -24.5768 C.ar    1  UNL1        0.1375
     10 C          48.1763   14.2638  -23.6556 C.ar    1  UNL1        0.0865
     11 C          49.1389   12.6084  -20.7267 C.ar    1  UNL1        0.0809
     12 C          49.6086   13.5036  -21.6707 C.ar    1  UNL1        0.0577
     13 C          50.9852   13.3951  -21.6139 C.ar    1  UNL1        0.1231
     14 N          51.3233   12.4869  -20.6777 N.ar    1  UNL1       -0.1676
     15 N          50.2055   12.0124  -20.1492 N.ar    1  UNL1       -0.2488
     16 C          50.1897   11.0567  -19.0472 C.3     1  UNL1        0.1537
     17 C          43.6394   11.9504  -19.0489 C.3     1  UNL1        0.0310
     18 C          45.0698   12.0949  -19.4763 C.ar    1  UNL1       -0.0218
     19 C          46.0350   12.5595  -18.5700 C.ar    1  UNL1       -0.0042
     20 C          47.3613   12.7284  -18.9779 C.ar    1  UNL1        0.0012
     21 C          47.7359   12.4460  -20.2992 C.ar    1  UNL1        0.0174
     22 C          46.7672   12.0023  -21.2111 C.ar    1  UNL1        0.0012
     23 C          45.4410   11.8332  -20.8039 C.ar    1  UNL1       -0.0042
     24 N          48.9194   12.0563  -24.4893 N.pl3   1  UNL1       -0.2917
     25 C          48.5678   10.8992  -23.6953 C.3     1  UNL1        0.0937
     26 C          49.7335    9.9420  -23.8759 C.3     1  UNL1        0.0391
     27 C          50.3637   10.3067  -25.2327 C.3     1  UNL1        0.0790
     28 C          50.0018   11.7888  -25.4208 C.3     1  UNL1        0.1081
     29 N          51.8372   10.0813  -25.2648 N.3     1  UNL1       -0.2723
     30 C          52.2957    9.2564  -26.4102 C.3     1  UNL1        0.0721
     31 C          52.2054   10.0033  -27.7497 C.3     1  UNL1        0.0174
     32 C          52.9996   11.3080  -27.6911 C.3     1  UNL1        0.0029
     33 C          52.5668   12.1550  -26.4943 C.3     1  UNL1        0.0174
     34 C          52.6266   11.3372  -25.1931 C.3     1  UNL1        0.0721
     35 C          45.5902   14.6635  -26.9913 C.3     1  UNL1        0.0587
     36 C          46.1302   13.8749  -28.1884 C.3     1  UNL1        0.0080
     37 C          45.3955   16.1398  -27.3500 C.3     1  UNL1        0.0080
@<TRIPOS>BOND
     1    17    18    1
     2    18    19   ar
     3    19    20   ar
     4    20    21   ar
     5    21    11    1
     6    11    12   ar
     7    12     1    1
     8     1     2   ar
     9     2     3   ar
    10     3     4    1
    11     3     5   ar
    12     5     6   ar
    13     6     7   ar
    14     7    35    1
    15    35    36    1
    16    35    37    1
    17     7     8   ar
    18     8     9   ar
    19     9    24    1
    20    24    25    1
    21    25    26    1
    22    26    27    1
    23    27    29    1
    24    29    30    1
    25    30    31    1
    26    31    32    1
    27    32    33    1
    28    33    34    1
    29    27    28    1
    30     9    10   ar
    31    12    13   ar
    32    13    14   ar
    33    14    15   ar
    34    15    16    1
    35    21    22   ar
    36    22    23   ar
    37    23    18   ar
    38    15    11   ar
    39    10     1   ar
    40    10     5   ar
    41    28    24    1
    42    34    29    1
