@<TRIPOS>MOLECULE
*****
 45 50 0 0 0
SMALL
GASTEIGER

@<TRIPOS>ATOM
      1 C         -64.2723  -51.6629  -24.7677 C.ar    1  UNL1        0.0702
      2 C         -63.7851  -51.9668  -23.4915 C.ar    1  UNL1        0.0191
      3 C         -64.3620  -52.9944  -22.7443 C.ar    1  UNL1        0.0356
      4 C         -65.4511  -53.7078  -23.2719 C.ar    1  UNL1        0.1318
      5 N         -65.9222  -53.3794  -24.5070 N.ar    1  UNL1       -0.2279
      6 C         -65.3726  -52.3860  -25.2545 C.ar    1  UNL1        0.1149
      7 N         -66.0731  -54.7802  -22.5351 N.pl3   1  UNL1       -0.2932
      8 C         -67.4557  -54.6566  -22.0526 C.3     1  UNL1        0.0923
      9 C         -68.1863  -56.0029  -22.1330 C.3     1  UNL1        0.0252
     10 C         -67.3822  -57.1716  -21.5270 C.3     1  UNL1        0.0472
     11 C         -65.9419  -57.2057  -22.0780 C.3     1  UNL1        0.0252
     12 C         -65.2311  -55.8512  -21.9866 C.3     1  UNL1        0.0923
     13 C         -67.4482  -57.2224  -19.9867 C.3     1  UNL1        0.2054
     14 O         -67.7038  -55.9356  -19.4327 O.3     1  UNL1       -0.4755
     15 C         -68.7957  -55.6205  -18.6128 C.ar    1  UNL1        0.1388
     16 C         -68.8808  -56.0433  -17.2742 C.ar    1  UNL1        0.0369
     17 C         -69.9967  -55.7110  -16.5043 C.ar    1  UNL1        0.0033
     18 C         -71.0316  -54.9528  -17.0562 C.ar    1  UNL1        0.0066
     19 C         -70.9588  -54.5093  -18.3886 C.ar    1  UNL1        0.0785
     20 C         -69.8354  -54.8591  -19.1607 C.ar    1  UNL1        0.0433
     21 C         -72.0658  -53.7067  -18.9635 C.2     1  UNL1        0.3381
     22 O         -73.1845  -54.2463  -19.1747 O.2     1  UNL1       -0.2451
     23 O         -71.9124  -52.3543  -19.2675 O.3     1  UNL1       -0.4771
     24 H         -71.0794  -51.8322  -19.0288 H       1  UNL1        0.2954
     25 C         -64.1367  -49.2227  -25.4607 C.2     1  UNL1        0.2839
     26 O         -65.0603  -48.8881  -24.6718 O.2     1  UNL1       -0.2665
     27 N         -63.6811  -50.5863  -25.5138 N.am    1  UNL1       -0.2766
     28 H         -62.9106  -50.8332  -26.1722 H       1  UNL1        0.1553
     29 C         -63.8900  -49.1829  -28.6892 C.3     1  UNL1        0.0345
     30 C         -63.4002  -48.1708  -27.6985 C.ar    1  UNL1        0.0202
     31 C         -63.5249  -48.1809  -26.3036 C.ar    1  UNL1        0.1946
     32 O         -63.0167  -47.0713  -25.7970 O.2     1  UNL1       -0.4492
     33 C         -62.5473  -46.3538  -26.7885 C.ar    1  UNL1        0.1456
     34 C         -61.9171  -45.1166  -26.7124 C.ar    1  UNL1        0.0433
     35 C         -61.4858  -44.5127  -27.9092 C.ar    1  UNL1        0.0331
     36 I         -60.4418  -42.6725  -27.7467 I       1  UNL1       -0.0424
     37 C         -61.7055  -45.1630  -29.1596 C.ar    1  UNL1        0.0056
     38 C         -62.3416  -46.4243  -29.1907 C.ar    1  UNL1        0.0032
     39 C         -62.7500  -46.9872  -27.9831 C.ar    1  UNL1        0.0337
     40 C         -61.2820  -44.5504  -30.4351 C.ar    1  UNL1        0.0004
     41 C         -62.1791  -43.7696  -31.1829 C.ar    1  UNL1        0.0000
     42 C         -61.7795  -43.2102  -32.4006 C.ar    1  UNL1        0.0000
     43 C         -60.4875  -43.4346  -32.8840 C.ar    1  UNL1        0.0000
     44 C         -59.5944  -44.2226  -32.1527 C.ar    1  UNL1        0.0000
     45 C         -59.9901  -44.7838  -30.9345 C.ar    1  UNL1        0.0000
@<TRIPOS>BOND
     1    29    30    1
     2    30    31   ar
     3    31    25    1
     4    25    26    2
     5    25    27   am
     6    27     1    1
     7     1     2   ar
     8     2     3   ar
     9     3     4   ar
    10     4     7    1
    11     7     8    1
    12     8     9    1
    13     9    10    1
    14    10    13    1
    15    13    14    1
    16    14    15    1
    17    15    16   ar
    18    16    17   ar
    19    17    18   ar
    20    18    19   ar
    21    19    21    1
    22    21    22    2
    23    21    23    1
    24    19    20   ar
    25    10    11    1
    26    11    12    1
    27     4     5   ar
    28     5     6   ar
    29    31    32   ar
    30    32    33   ar
    31    33    34   ar
    32    34    35   ar
    33    35    36    1
    34    35    37   ar
    35    37    40    1
    36    40    41   ar
    37    41    42   ar
    38    42    43   ar
    39    43    44   ar
    40    44    45   ar
    41    37    38   ar
    42    38    39   ar
    43    39    30   ar
    44     6     1   ar
    45    39    33   ar
    46    12     7    1
    47    45    40   ar
    48    20    15   ar
    49    27    28    1
    50    23    24    1
@<TRIPOS>MOLECULE
*****
 45 50 0 0 0
SMALL
GASTEIGER

@<TRIPOS>ATOM
      1 C         -64.4936  -51.6966  -24.5435 C.ar    1  UNL1        0.0702
      2 C         -63.7032  -52.4774  -23.6926 C.ar    1  UNL1        0.0191
      3 C         -64.2814  -53.4931  -22.9302 C.ar    1  UNL1        0.0356
      4 C         -65.6670  -53.7125  -23.0048 C.ar    1  UNL1        0.1318
      5 N         -66.4191  -52.9254  -23.8234 N.ar    1  UNL1       -0.2279
      6 C         -65.8766  -51.9340  -24.5787 C.ar    1  UNL1        0.1149
      7 N         -66.3037  -54.7547  -22.2379 N.pl3   1  UNL1       -0.2932
      8 C         -66.5284  -56.0851  -22.8203 C.3     1  UNL1        0.0923
      9 C         -66.3480  -57.1829  -21.7644 C.3     1  UNL1        0.0252
     10 C         -67.1132  -56.9026  -20.4546 C.3     1  UNL1        0.0472
     11 C         -66.8295  -55.4787  -19.9338 C.3     1  UNL1        0.0252
     12 C         -67.0171  -54.3986  -21.0046 C.3     1  UNL1        0.0923
     13 C         -68.6176  -57.2311  -20.5458 C.3     1  UNL1        0.2054
     14 O         -69.3569  -56.5811  -19.5168 O.3     1  UNL1       -0.4755
     15 C         -70.6907  -56.1664  -19.6304 C.ar    1  UNL1        0.1388
     16 C         -71.3992  -55.6010  -18.5551 C.ar    1  UNL1        0.0369
     17 C         -72.7305  -55.2150  -18.7192 C.ar    1  UNL1        0.0033
     18 C         -73.3646  -55.3823  -19.9523 C.ar    1  UNL1        0.0066
     19 C         -72.6690  -55.9332  -21.0431 C.ar    1  UNL1        0.0785
     20 C         -71.3307  -56.3304  -20.8650 C.ar    1  UNL1        0.0433
     21 C         -73.3548  -56.1079  -22.3467 C.2     1  UNL1        0.3381
     22 O         -74.6036  -55.9584  -22.4208 O.2     1  UNL1       -0.2451
     23 O         -72.6528  -56.4209  -23.5104 O.3     1  UNL1       -0.4771
     24 H         -71.6424  -56.4530  -23.5464 H       1  UNL1        0.2954
     25 C         -64.2397  -49.2509  -25.1817 C.2     1  UNL1        0.2839
     26 O         -65.0776  -48.8792  -24.3174 O.2     1  UNL1       -0.2665
     27 N         -63.8851  -50.6398  -25.3039 N.am    1  UNL1       -0.2766
     28 H         -63.1838  -50.9176  -26.0244 H       1  UNL1        0.1553
     29 C         -63.8892  -49.3184  -28.4002 C.3     1  UNL1        0.0345
     30 C         -63.4506  -48.2631  -27.4308 C.ar    1  UNL1        0.0202
     31 C         -63.6202  -48.2272  -26.0411 C.ar    1  UNL1        0.1946
     32 O         -63.1493  -47.0909  -25.5581 O.2     1  UNL1       -0.4492
     33 C         -62.6613  -46.3993  -26.5589 C.ar    1  UNL1        0.1456
     34 C         -62.0568  -45.1481  -26.5067 C.ar    1  UNL1        0.0433
     35 C         -61.5981  -44.5777  -27.7097 C.ar    1  UNL1        0.0331
     36 I         -60.5941  -42.7130  -27.5793 I       1  UNL1       -0.0424
     37 C         -61.7652  -45.2752  -28.9427 C.ar    1  UNL1        0.0056
     38 C         -62.3766  -46.5490  -28.9494 C.ar    1  UNL1        0.0032
     39 C         -62.8134  -47.0776  -27.7363 C.ar    1  UNL1        0.0337
     40 C         -61.3120  -44.6992  -30.2250 C.ar    1  UNL1        0.0004
     41 C         -60.0015  -44.9190  -30.6811 C.ar    1  UNL1        0.0000
     42 C         -59.5711  -44.3530  -31.8852 C.ar    1  UNL1        0.0000
     43 C         -60.4410  -43.5569  -32.6354 C.ar    1  UNL1        0.0000
     44 C         -61.7414  -43.3217  -32.1805 C.ar    1  UNL1        0.0000
     45 C         -62.1758  -43.8859  -30.9769 C.ar    1  UNL1        0.0000
@<TRIPOS>BOND
     1    29    30    1
     2    30    31   ar
     3    31    25    1
     4    25    26    2
     5    25    27   am
     6    27     1    1
     7     1     2   ar
     8     2     3   ar
     9     3     4   ar
    10     4     7    1
    11     7     8    1
    12     8     9    1
    13     9    10    1
    14    10    13    1
    15    13    14    1
    16    14    15    1
    17    15    16   ar
    18    16    17   ar
    19    17    18   ar
    20    18    19   ar
    21    19    21    1
    22    21    22    2
    23    21    23    1
    24    19    20   ar
    25    10    11    1
    26    11    12    1
    27     4     5   ar
    28     5     6   ar
    29    31    32   ar
    30    32    33   ar
    31    33    34   ar
    32    34    35   ar
    33    35    36    1
    34    35    37   ar
    35    37    40    1
    36    40    41   ar
    37    41    42   ar
    38    42    43   ar
    39    43    44   ar
    40    44    45   ar
    41    37    38   ar
    42    38    39   ar
    43    39    30   ar
    44     6     1   ar
    45    39    33   ar
    46    12     7    1
    47    45    40   ar
    48    20    15   ar
    49    27    28    1
    50    23    24    1
@<TRIPOS>MOLECULE
*****
 45 50 0 0 0
SMALL
GASTEIGER

@<TRIPOS>ATOM
      1 C         -61.5258  -45.4248  -22.1967 C.ar    1  UNL1        0.0702
      2 C         -60.7421  -46.2284  -21.3610 C.ar    1  UNL1        0.0191
      3 C         -60.5533  -47.5787  -21.6581 C.ar    1  UNL1        0.0356
      4 C         -61.1742  -48.1327  -22.7900 C.ar    1  UNL1        0.1318
      5 N         -61.9504  -47.3361  -23.5762 N.ar    1  UNL1       -0.2279
      6 C         -62.1440  -46.0174  -23.3090 C.ar    1  UNL1        0.1149
      7 N         -61.0012  -49.5220  -23.1359 N.pl3   1  UNL1       -0.2932
      8 C         -60.9134  -49.9405  -24.5419 C.3     1  UNL1        0.0923
      9 C         -59.9225  -51.0995  -24.7076 C.3     1  UNL1        0.0252
     10 C         -60.1444  -52.2426  -23.6957 C.3     1  UNL1        0.0472
     11 C         -60.2432  -51.7031  -22.2540 C.3     1  UNL1        0.0252
     12 C         -61.2393  -50.5472  -22.1117 C.3     1  UNL1        0.0923
     13 C         -61.3096  -53.1778  -24.0791 C.3     1  UNL1        0.2054
     14 O         -62.1657  -53.4269  -22.9687 O.3     1  UNL1       -0.4755
     15 C         -63.5409  -53.6806  -23.0603 C.ar    1  UNL1        0.1388
     16 C         -64.3889  -52.9456  -23.9078 C.ar    1  UNL1        0.0369
     17 C         -65.7542  -53.2322  -23.9525 C.ar    1  UNL1        0.0033
     18 C         -66.2850  -54.2532  -23.1611 C.ar    1  UNL1        0.0066
     19 C         -65.4512  -55.0083  -22.3174 C.ar    1  UNL1        0.0785
     20 C         -64.0779  -54.7044  -22.2700 C.ar    1  UNL1        0.0433
     21 C         -66.0278  -56.0884  -21.4800 C.2     1  UNL1        0.3381
     22 O         -66.2064  -57.2337  -21.9735 O.2     1  UNL1       -0.2451
     23 O         -66.3688  -55.8799  -20.1439 O.3     1  UNL1       -0.4771
     24 H         -66.1576  -55.0203  -19.6543 H       1  UNL1        0.2954
     25 C         -62.7248  -43.5730  -20.9370 C.2     1  UNL1        0.2839
     26 O         -63.4395  -44.3915  -20.2993 O.2     1  UNL1       -0.2665
     27 N         -61.7284  -44.0417  -21.8628 N.am    1  UNL1       -0.2766
     28 H         -61.1471  -43.3413  -22.3723 H       1  UNL1        0.1553
     29 C         -65.0645  -42.1638  -19.1975 C.3     1  UNL1        0.0345
     30 C         -63.9428  -41.5213  -19.9555 C.ar    1  UNL1        0.0202
     31 C         -62.9208  -42.1338  -20.6915 C.ar    1  UNL1        0.1946
     32 O         -62.0878  -41.2187  -21.1552 O.2     1  UNL1       -0.4492
     33 C         -62.5300  -40.0436  -20.7788 C.ar    1  UNL1        0.1456
     34 C         -61.9690  -38.8014  -21.0540 C.ar    1  UNL1        0.0433
     35 C         -62.6096  -37.6533  -20.5496 C.ar    1  UNL1        0.0331
     36 I         -61.7807  -35.7709  -21.0710 I       1  UNL1       -0.0424
     37 C         -63.7979  -37.7797  -19.7706 C.ar    1  UNL1        0.0056
     38 C         -64.3396  -39.0610  -19.5226 C.ar    1  UNL1        0.0032
     39 C         -63.6753  -40.1701  -20.0427 C.ar    1  UNL1        0.0337
     40 C         -64.4858  -36.5984  -19.2114 C.ar    1  UNL1        0.0004
     41 C         -65.7288  -36.1895  -19.7226 C.ar    1  UNL1        0.0000
     42 C         -66.3652  -35.0575  -19.2040 C.ar    1  UNL1        0.0000
     43 C         -65.7613  -34.3215  -18.1808 C.ar    1  UNL1        0.0000
     44 C         -64.5179  -34.7137  -17.6775 C.ar    1  UNL1        0.0000
     45 C         -63.8782  -35.8452  -18.1933 C.ar    1  UNL1        0.0000
@<TRIPOS>BOND
     1    29    30    1
     2    30    31   ar
     3    31    25    1
     4    25    26    2
     5    25    27   am
     6    27     1    1
     7     1     2   ar
     8     2     3   ar
     9     3     4   ar
    10     4     7    1
    11     7     8    1
    12     8     9    1
    13     9    10    1
    14    10    13    1
    15    13    14    1
    16    14    15    1
    17    15    16   ar
    18    16    17   ar
    19    17    18   ar
    20    18    19   ar
    21    19    21    1
    22    21    22    2
    23    21    23    1
    24    19    20   ar
    25    10    11    1
    26    11    12    1
    27     4     5   ar
    28     5     6   ar
    29    31    32   ar
    30    32    33   ar
    31    33    34   ar
    32    34    35   ar
    33    35    36    1
    34    35    37   ar
    35    37    40    1
    36    40    41   ar
    37    41    42   ar
    38    42    43   ar
    39    43    44   ar
    40    44    45   ar
    41    37    38   ar
    42    38    39   ar
    43    39    30   ar
    44     6     1   ar
    45    39    33   ar
    46    12     7    1
    47    45    40   ar
    48    20    15   ar
    49    27    28    1
    50    23    24    1
