@<TRIPOS>MOLECULE
*****
 52 58 0 0 0
SMALL
GASTEIGER

@<TRIPOS>ATOM
      1 C          60.6764   84.7014    9.1211 C.ar    1  UNL1        0.0481
      2 C          61.2388   83.6845    8.3323 C.ar    1  UNL1        0.0176
      3 C          60.4199   82.7293    7.7237 C.ar    1  UNL1        0.0382
      4 C          59.0325   82.7661    7.9009 C.ar    1  UNL1        0.1388
      5 C          58.4655   83.8080    8.6551 C.ar    1  UNL1        0.0382
      6 C          59.2823   84.7626    9.2658 C.ar    1  UNL1        0.0176
      7 N          62.6779   87.7639   11.1829 N.pl3   1  UNL1       -0.3041
      8 C          62.0321   86.6935   11.9519 C.3     1  UNL1        0.1122
      9 C          62.0108   85.4022   11.1337 C.3     1  UNL1        0.1122
     10 N          61.5130   85.6705    9.7790 N.pl3   1  UNL1       -0.3041
     11 C          62.1583   86.7411    9.0100 C.3     1  UNL1        0.1122
     12 C          62.1796   88.0324    9.8285 C.3     1  UNL1        0.1122
     13 C          65.2049   90.5813   13.1343 C.ar    1  UNL1        0.0659
     14 C          64.3949   89.7085   13.8751 C.ar    1  UNL1        0.0187
     15 C          63.5663   88.7890   13.2347 C.ar    1  UNL1        0.0160
     16 C          63.5324   88.7203   11.8375 C.ar    1  UNL1        0.0477
     17 C          64.3272   89.6005   11.0876 C.ar    1  UNL1        0.0117
     18 C          65.1565   90.5518   11.7167 C.ar    1  UNL1       -0.0050
     19 N          67.7047   92.2612   15.1299 N.ar    1  UNL1       -0.2024
     20 N          67.2825   93.2737   14.3842 N.ar    1  UNL1       -0.1442
     21 C          66.2944   92.7846   13.6025 C.ar    1  UNL1        0.2073
     22 N          66.0808   91.4724   13.8413 N.ar    1  UNL1       -0.2401
     23 C          66.9931   91.1742   14.7818 C.ar    1  UNL1        0.3522
     24 O          67.1645   90.0229   15.2669 O.2     1  UNL1       -0.2444
     25 C          68.8211   92.3322   16.0775 C.3     1  UNL1        0.1099
     26 C          69.3580   93.7682   16.1376 C.3     1  UNL1        0.0265
     27 C          70.0163   91.1529   14.1476 C.3     1  UNL1        0.0021
     28 C          69.9075   91.3202   15.6632 C.3     1  UNL1        0.0245
     29 C          65.9532   91.5326   10.8645 C.3     1  UNL1        0.0238
     30 C          67.2388   90.8829   10.3404 C.3     1  UNL1        0.0047
     31 C          65.1077   92.0889    9.7104 C.3     1  UNL1        0.0047
     32 O          58.2567   81.7568    7.3113 O.3     1  UNL1       -0.4727
     33 C          57.7629   80.5993    7.9887 C.3     1  UNL1        0.2374
     34 C          58.5291   80.3822    9.3010 C.3     1  UNL1        0.1909
     35 C          57.8998   79.3504   10.1923 C.3     1  UNL1        0.1783
     36 O          58.1825   79.7542   11.4987 O.3     1  UNL1       -0.3282
     37 C          58.7149   81.0651   11.3996 C.3     1  UNL1        0.2081
     38 O          58.5555   81.5374   10.0774 O.3     1  UNL1       -0.3269
     39 C          60.2051   81.0608   11.7664 C.ar    1  UNL1        0.0390
     40 C          61.1303   81.7367   10.9408 C.ar    1  UNL1        0.0021
     41 C          62.4939   81.7373   11.2400 C.ar    1  UNL1        0.0113
     42 C          62.9667   81.0507   12.3571 C.ar    1  UNL1        0.0585
     43 CL         64.6813   81.0527   12.7282 Cl      1  UNL1       -0.0822
     44 C          62.0763   80.3502   13.1712 C.ar    1  UNL1        0.0226
     45 C          60.7056   80.3382   12.8841 C.ar    1  UNL1        0.0590
     46 CL         59.6766   79.3783   13.9461 Cl      1  UNL1       -0.0824
     47 C          57.9688   81.9843   12.3964 C.3     1  UNL1        0.0609
     48 C          58.4509   83.4530   12.3941 C.3     1  UNL1        0.0052
     49 C          59.3740   83.7980   13.5601 C.3     1  UNL1        0.0002
     50 C          59.1207   85.2666   13.8921 C.3     1  UNL1        0.0000
     51 C          57.8934   85.6982   13.0951 C.3     1  UNL1        0.0000
     52 C          57.2859   84.4260   12.5299 C.3     1  UNL1        0.0002
@<TRIPOS>BOND
     1    27    28    1
     2    28    25    1
     3    25    26    1
     4    25    19    1
     5    19    20   ar
     6    20    21   ar
     7    21    22   ar
     8    22    13    1
     9    13    14   ar
    10    14    15   ar
    11    15    16   ar
    12    16     7    1
    13     7     8    1
    14     8     9    1
    15     9    10    1
    16    10     1    1
    17     1     2   ar
    18     2     3   ar
    19     3     4   ar
    20     4    32    1
    21    32    33    1
    22    33    34    1
    23    34    35    1
    24    35    36    1
    25    36    37    1
    26    37    47    1
    27    47    48    1
    28    48    49    1
    29    49    50    1
    30    50    51    1
    31    51    52    1
    32    37    39    1
    33    39    40   ar
    34    40    41   ar
    35    41    42   ar
    36    42    43    1
    37    42    44   ar
    38    44    45   ar
    39    45    46    1
    40    37    38    1
    41     4     5   ar
    42     5     6   ar
    43    10    11    1
    44    11    12    1
    45    16    17   ar
    46    17    18   ar
    47    18    29    1
    48    29    30    1
    49    29    31    1
    50    22    23   ar
    51    23    24    2
    52    23    19   ar
    53    18    13   ar
    54    12     7    1
    55     6     1   ar
    56    38    34    1
    57    52    48    1
    58    45    39   ar
@<TRIPOS>MOLECULE
*****
 52 58 0 0 0
SMALL
GASTEIGER

@<TRIPOS>ATOM
      1 C          58.4771   83.5419   10.5742 C.ar    1  UNL1        0.0481
      2 C          58.4640   82.2113   10.1246 C.ar    1  UNL1        0.0176
      3 C          58.3092   81.1610   11.0337 C.ar    1  UNL1        0.0382
      4 C          58.1771   81.4196   12.4024 C.ar    1  UNL1        0.1388
      5 C          58.1475   82.7523   12.8482 C.ar    1  UNL1        0.0382
      6 C          58.3039   83.8034   11.9415 C.ar    1  UNL1        0.0176
      7 N          59.5029   86.5096    7.7856 N.pl3   1  UNL1       -0.3041
      8 C          59.1261   85.1770    7.2993 C.3     1  UNL1        0.1122
      9 C          58.1553   84.5184    8.2796 C.3     1  UNL1        0.1122
     10 N          58.6686   84.6291    9.6505 N.pl3   1  UNL1       -0.3041
     11 C          59.0459   85.9613   10.1368 C.3     1  UNL1        0.1122
     12 C          60.0168   86.6198    9.1561 C.3     1  UNL1        0.1122
     13 C          60.0235   89.7344    5.0542 C.ar    1  UNL1        0.0659
     14 C          61.1303   89.0551    5.5835 C.ar    1  UNL1        0.0187
     15 C          60.9581   88.0017    6.4796 C.ar    1  UNL1        0.0160
     16 C          59.6732   87.6025    6.8636 C.ar    1  UNL1        0.0477
     17 C          58.5602   88.2866    6.3518 C.ar    1  UNL1        0.0117
     18 C          58.7144   89.3682    5.4602 C.ar    1  UNL1       -0.0050
     19 N          61.1119   91.9736    2.4360 N.ar    1  UNL1       -0.2024
     20 N          59.9010   92.4614    2.6715 N.ar    1  UNL1       -0.1442
     21 C          59.3847   91.7265    3.6815 C.ar    1  UNL1        0.2073
     22 N          60.2520   90.7765    4.0934 N.ar    1  UNL1       -0.2401
     23 C          61.3081   90.9446    3.2796 C.ar    1  UNL1        0.3522
     24 O          62.3431   90.2247    3.2995 O.2     1  UNL1       -0.2444
     25 C          62.0033   92.4350    1.3674 C.3     1  UNL1        0.1099
     26 C          62.0636   91.3818    0.2533 C.3     1  UNL1        0.0265
     27 C          64.5359   92.1898    1.1029 C.3     1  UNL1        0.0021
     28 C          63.3942   92.7390    1.9584 C.3     1  UNL1        0.0245
     29 C          57.4822   90.1258    4.9800 C.3     1  UNL1        0.0238
     30 C          56.1972   89.4209    5.4291 C.3     1  UNL1        0.0047
     31 C          57.5022   91.5865    5.4514 C.3     1  UNL1        0.0047
     32 O          58.0746   80.3307   13.2810 O.3     1  UNL1       -0.4727
     33 C          59.1729   79.5392   13.7392 C.3     1  UNL1        0.2374
     34 C          60.4969   80.1068   13.2090 C.3     1  UNL1        0.1909
     35 C          61.7056   79.3990   13.7505 C.3     1  UNL1        0.1783
     36 O          62.7115   80.3649   13.8199 O.3     1  UNL1       -0.3282
     37 C          62.0777   81.6117   13.5845 C.3     1  UNL1        0.2081
     38 O          60.6759   81.4337   13.5898 O.3     1  UNL1       -0.3269
     39 C          62.5171   82.1819   12.2291 C.ar    1  UNL1        0.0390
     40 C          61.5731   82.8341   11.4057 C.ar    1  UNL1        0.0021
     41 C          61.9394   83.3490   10.1609 C.ar    1  UNL1        0.0113
     42 C          63.2483   83.2100    9.7024 C.ar    1  UNL1        0.0585
     43 CL         63.7036   83.8571    8.1367 Cl      1  UNL1       -0.0822
     44 C          64.1918   82.5430   10.4841 C.ar    1  UNL1        0.0226
     45 C          63.8403   82.0192   11.7345 C.ar    1  UNL1        0.0590
     46 CL         65.0947   81.1488   12.6160 Cl      1  UNL1       -0.0824
     47 C          62.5013   82.6051   14.6931 C.3     1  UNL1        0.0609
     48 C          62.2128   84.0880   14.3660 C.3     1  UNL1        0.0052
     49 C          63.4125   85.0081   14.5773 C.3     1  UNL1        0.0002
     50 C          62.8491   86.3631   14.9990 C.3     1  UNL1        0.0000
     51 C          61.3609   86.1625   15.2681 C.3     1  UNL1        0.0000
     52 C          61.1290   84.6614   15.2710 C.3     1  UNL1        0.0002
@<TRIPOS>BOND
     1    27    28    1
     2    28    25    1
     3    25    26    1
     4    25    19    1
     5    19    20   ar
     6    20    21   ar
     7    21    22   ar
     8    22    13    1
     9    13    14   ar
    10    14    15   ar
    11    15    16   ar
    12    16     7    1
    13     7     8    1
    14     8     9    1
    15     9    10    1
    16    10     1    1
    17     1     2   ar
    18     2     3   ar
    19     3     4   ar
    20     4    32    1
    21    32    33    1
    22    33    34    1
    23    34    35    1
    24    35    36    1
    25    36    37    1
    26    37    47    1
    27    47    48    1
    28    48    49    1
    29    49    50    1
    30    50    51    1
    31    51    52    1
    32    37    39    1
    33    39    40   ar
    34    40    41   ar
    35    41    42   ar
    36    42    43    1
    37    42    44   ar
    38    44    45   ar
    39    45    46    1
    40    37    38    1
    41     4     5   ar
    42     5     6   ar
    43    10    11    1
    44    11    12    1
    45    16    17   ar
    46    17    18   ar
    47    18    29    1
    48    29    30    1
    49    29    31    1
    50    22    23   ar
    51    23    24    2
    52    23    19   ar
    53    18    13   ar
    54    12     7    1
    55     6     1   ar
    56    38    34    1
    57    52    48    1
    58    45    39   ar
