@<TRIPOS>MOLECULE
*****
 47 52 0 0 0
SMALL
GASTEIGER

@<TRIPOS>ATOM
      1 C          12.1771   81.8486   25.1234 C.ar    1  UNL1        0.0702
      2 C          13.1846   82.3312   25.9657 C.ar    1  UNL1        0.0191
      3 C          14.0039   83.3835   25.5540 C.ar    1  UNL1        0.0356
      4 C          13.8249   83.9483   24.2777 C.ar    1  UNL1        0.1318
      5 N          12.8532   83.4407   23.4677 N.ar    1  UNL1       -0.2279
      6 C          12.0415   82.4196   23.8488 C.ar    1  UNL1        0.1149
      7 N          14.6468   85.0469   23.8156 N.pl3   1  UNL1       -0.2932
      8 C          15.3403   84.9709   22.5194 C.3     1  UNL1        0.0923
      9 C          15.0054   86.1879   21.6397 C.3     1  UNL1        0.0252
     10 C          14.7856   87.4919   22.4506 C.3     1  UNL1        0.0472
     11 C          15.4369   87.4128   23.8438 C.3     1  UNL1        0.0252
     12 C          14.8234   86.2539   24.6438 C.3     1  UNL1        0.0923
     13 C          15.2373   88.7531   21.6877 C.3     1  UNL1        0.2054
     14 O          14.1223   89.5059   21.1995 O.3     1  UNL1       -0.4755
     15 C          13.3952   89.2769   20.0184 C.ar    1  UNL1        0.1388
     16 C          11.9883   89.2265   19.9713 C.ar    1  UNL1        0.0369
     17 C          11.3342   89.0014   18.7586 C.ar    1  UNL1        0.0033
     18 C          12.0664   88.8241   17.5833 C.ar    1  UNL1        0.0066
     19 C          13.4708   88.8667   17.6084 C.ar    1  UNL1        0.0785
     20 C          14.1214   89.1059   18.8327 C.ar    1  UNL1        0.0433
     21 C          14.2664   88.6872   16.3691 C.2     1  UNL1        0.3381
     22 O          13.9522   87.7828   15.5502 O.2     1  UNL1       -0.2451
     23 O          15.3546   89.5061   16.0694 O.3     1  UNL1       -0.4771
     24 H          15.5997   90.3137   16.6270 H       1  UNL1        0.2954
     25 C          11.7881   79.3787   25.5638 C.2     1  UNL1        0.2839
     26 O          12.8367   79.0391   24.9523 O.2     1  UNL1       -0.2665
     27 N          11.3559   80.7489   25.5529 N.am    1  UNL1       -0.2766
     28 H          10.3582   80.9502   25.7910 H       1  UNL1        0.1553
     29 C           8.6852   78.7315   25.0877 C.3     1  UNL1        0.0345
     30 C           9.6240   78.0743   26.0542 C.ar    1  UNL1        0.0202
     31 C          10.9783   78.3606   26.2595 C.ar    1  UNL1        0.1946
     32 O          11.4709   77.5684   27.1953 O.2     1  UNL1       -0.4492
     33 C          10.5057   76.7837   27.6079 C.ar    1  UNL1        0.1452
     34 C          10.5804   75.7949   28.5826 C.ar    1  UNL1        0.0375
     35 C           9.4156   75.0629   28.8711 C.ar    1  UNL1        0.0031
     36 C           8.1998   75.3284   28.1852 C.ar    1  UNL1        0.0002
     37 C           8.1665   76.3443   27.1997 C.ar    1  UNL1        0.0028
     38 C           9.3414   77.0514   26.9391 C.ar    1  UNL1        0.0337
     39 C           6.9758   74.5482   28.4986 C.ar    1  UNL1       -0.0000
     40 C           6.2969   74.7418   29.7151 C.ar    1  UNL1       -0.0002
     41 C           5.1456   74.0061   30.0104 C.ar    1  UNL1       -0.0019
     42 C           4.6450   73.0734   29.0904 C.ar    1  UNL1        0.0070
     43 C           5.3274   72.8649   27.8830 C.ar    1  UNL1       -0.0019
     44 C           6.4794   73.5991   27.5868 C.ar    1  UNL1       -0.0002
     45 C           3.4298   72.2576   29.4242 C.3     1  UNL1        0.1636
     46 O           3.4644   71.0591   28.7023 O.3     1  UNL1       -0.3772
     47 H           2.6450   70.5604   28.9573 H       1  UNL1        0.2109
@<TRIPOS>BOND
     1    29    30    1
     2    30    31   ar
     3    31    25    1
     4    25    26    2
     5    25    27   am
     6    27     1    1
     7     1     2   ar
     8     2     3   ar
     9     3     4   ar
    10     4     7    1
    11     7     8    1
    12     8     9    1
    13     9    10    1
    14    10    13    1
    15    13    14    1
    16    14    15    1
    17    15    16   ar
    18    16    17   ar
    19    17    18   ar
    20    18    19   ar
    21    19    21    1
    22    21    22    2
    23    21    23    1
    24    19    20   ar
    25    10    11    1
    26    11    12    1
    27     4     5   ar
    28     5     6   ar
    29    31    32   ar
    30    32    33   ar
    31    33    34   ar
    32    34    35   ar
    33    35    36   ar
    34    36    39    1
    35    39    40   ar
    36    40    41   ar
    37    41    42   ar
    38    42    45    1
    39    45    46    1
    40    42    43   ar
    41    43    44   ar
    42    36    37   ar
    43    37    38   ar
    44    38    30   ar
    45     6     1   ar
    46    38    33   ar
    47    12     7    1
    48    44    39   ar
    49    20    15   ar
    50    27    28    1
    51    23    24    1
    52    46    47    1
@<TRIPOS>MOLECULE
*****
 47 52 0 0 0
SMALL
GASTEIGER

@<TRIPOS>ATOM
      1 C          12.1180   81.7755   25.6747 C.ar    1  UNL1        0.0702
      2 C          13.1955   82.4125   26.2997 C.ar    1  UNL1        0.0191
      3 C          13.9045   83.4141   25.6350 C.ar    1  UNL1        0.0356
      4 C          13.5428   83.7710   24.3229 C.ar    1  UNL1        0.1318
      5 N          12.5059   83.1154   23.7285 N.ar    1  UNL1       -0.2279
      6 C          11.7991   82.1401   24.3576 C.ar    1  UNL1        0.1149
      7 N          14.2459   84.8108   23.6015 N.pl3   1  UNL1       -0.2932
      8 C          15.0267   84.4902   22.3955 C.3     1  UNL1        0.0923
      9 C          14.5971   85.3686   21.2077 C.3     1  UNL1        0.0252
     10 C          14.1599   86.7973   21.6249 C.3     1  UNL1        0.0472
     11 C          14.7235   87.1852   23.0045 C.3     1  UNL1        0.0252
     12 C          14.2123   86.2074   24.0731 C.3     1  UNL1        0.0923
     13 C          14.4957   87.8598   20.5595 C.3     1  UNL1        0.2054
     14 O          13.6198   87.7748   19.4308 O.3     1  UNL1       -0.4755
     15 C          13.9796   87.5366   18.0929 C.ar    1  UNL1        0.1388
     16 C          14.0710   88.5529   17.1218 C.ar    1  UNL1        0.0369
     17 C          14.4418   88.2412   15.8125 C.ar    1  UNL1        0.0033
     18 C          14.7248   86.9221   15.4533 C.ar    1  UNL1        0.0066
     19 C          14.6360   85.8923   16.4055 C.ar    1  UNL1        0.0785
     20 C          14.2732   86.2171   17.7254 C.ar    1  UNL1        0.0433
     21 C          14.9391   84.4855   16.0451 C.2     1  UNL1        0.3381
     22 O          16.0056   83.9521   16.4517 O.2     1  UNL1       -0.2451
     23 O          14.0651   83.7197   15.2743 O.3     1  UNL1       -0.4771
     24 H          13.1478   84.0475   15.0015 H       1  UNL1        0.2954
     25 C          10.7509   80.9032   27.6281 C.2     1  UNL1        0.2839
     26 O          10.9742   81.9293   28.3253 O.2     1  UNL1       -0.2665
     27 N          11.4116   80.7296   26.3640 N.am    1  UNL1       -0.2766
     28 H          11.4538   79.7661   25.9612 H       1  UNL1        0.1553
     29 C           9.2386   78.6755   25.8892 C.3     1  UNL1        0.0345
     30 C           9.1782   78.8816   27.3729 C.ar    1  UNL1        0.0202
     31 C           9.8397   79.8564   28.1283 C.ar    1  UNL1        0.1946
     32 O           9.5385   79.7184   29.4073 O.2     1  UNL1       -0.4492
     33 C           8.7152   78.7049   29.5204 C.ar    1  UNL1        0.1452
     34 C           8.1459   78.2063   30.6867 C.ar    1  UNL1        0.0375
     35 C           7.2845   77.1006   30.5804 C.ar    1  UNL1        0.0031
     36 C           7.0062   76.5127   29.3171 C.ar    1  UNL1        0.0002
     37 C           7.6065   77.0514   28.1536 C.ar    1  UNL1        0.0028
     38 C           8.4561   78.1496   28.2960 C.ar    1  UNL1        0.0337
     39 C           6.0947   75.3446   29.2176 C.ar    1  UNL1       -0.0000
     40 C           6.1978   74.4475   28.1392 C.ar    1  UNL1       -0.0002
     41 C           5.3386   73.3489   28.0450 C.ar    1  UNL1       -0.0019
     42 C           4.3700   73.1198   29.0331 C.ar    1  UNL1        0.0070
     43 C           4.2524   74.0204   30.1019 C.ar    1  UNL1       -0.0019
     44 C           5.1102   75.1199   30.1967 C.ar    1  UNL1       -0.0002
     45 C           3.4239   71.9606   28.9119 C.3     1  UNL1        0.1636
     46 O           4.1510   70.7965   28.6382 O.3     1  UNL1       -0.3772
     47 H           3.4836   70.0652   28.5681 H       1  UNL1        0.2109
@<TRIPOS>BOND
     1    29    30    1
     2    30    31   ar
     3    31    25    1
     4    25    26    2
     5    25    27   am
     6    27     1    1
     7     1     2   ar
     8     2     3   ar
     9     3     4   ar
    10     4     7    1
    11     7     8    1
    12     8     9    1
    13     9    10    1
    14    10    13    1
    15    13    14    1
    16    14    15    1
    17    15    16   ar
    18    16    17   ar
    19    17    18   ar
    20    18    19   ar
    21    19    21    1
    22    21    22    2
    23    21    23    1
    24    19    20   ar
    25    10    11    1
    26    11    12    1
    27     4     5   ar
    28     5     6   ar
    29    31    32   ar
    30    32    33   ar
    31    33    34   ar
    32    34    35   ar
    33    35    36   ar
    34    36    39    1
    35    39    40   ar
    36    40    41   ar
    37    41    42   ar
    38    42    45    1
    39    45    46    1
    40    42    43   ar
    41    43    44   ar
    42    36    37   ar
    43    37    38   ar
    44    38    30   ar
    45     6     1   ar
    46    38    33   ar
    47    12     7    1
    48    44    39   ar
    49    20    15   ar
    50    27    28    1
    51    23    24    1
    52    46    47    1
@<TRIPOS>MOLECULE
*****
 47 52 0 0 0
SMALL
GASTEIGER

@<TRIPOS>ATOM
      1 C          12.5725   82.3821   25.3099 C.ar    1  UNL1        0.0702
      2 C          12.5033   82.9066   24.0148 C.ar    1  UNL1        0.0191
      3 C          13.2813   84.0091   23.6579 C.ar    1  UNL1        0.0356
      4 C          14.1257   84.6050   24.6129 C.ar    1  UNL1        0.1318
      5 N          14.1532   84.0898   25.8746 N.ar    1  UNL1       -0.2279
      6 C          13.4077   83.0151   26.2433 C.ar    1  UNL1        0.1149
      7 N          14.9559   85.7438   24.2815 N.pl3   1  UNL1       -0.2932
      8 C          15.9858   85.6415   23.2348 C.3     1  UNL1        0.0923
      9 C          15.8152   86.7482   22.1797 C.3     1  UNL1        0.0252
     10 C          15.2786   88.0804   22.7660 C.3     1  UNL1        0.0472
     11 C          15.5215   88.1733   24.2839 C.3     1  UNL1        0.0252
     12 C          14.8017   87.0214   25.0011 C.3     1  UNL1        0.0923
     13 C          15.8254   89.3201   22.0305 C.3     1  UNL1        0.2054
     14 O          15.1900   89.5076   20.7619 O.3     1  UNL1       -0.4755
     15 C          14.1163   88.7703   20.2329 C.ar    1  UNL1        0.1388
     16 C          12.7723   89.1811   20.3274 C.ar    1  UNL1        0.0369
     17 C          11.7585   88.3991   19.7710 C.ar    1  UNL1        0.0033
     18 C          12.0660   87.2046   19.1171 C.ar    1  UNL1        0.0066
     19 C          13.3998   86.7742   19.0147 C.ar    1  UNL1        0.0785
     20 C          14.4162   87.5744   19.5679 C.ar    1  UNL1        0.0433
     21 C          13.7475   85.5114   18.3180 C.2     1  UNL1        0.3381
     22 O          14.2426   85.5522   17.1602 O.2     1  UNL1       -0.2451
     23 O          13.5562   84.2658   18.9152 O.3     1  UNL1       -0.4771
     24 H          13.2612   84.1614   19.8771 H       1  UNL1        0.2954
     25 C          12.1091   79.8891   25.4352 C.2     1  UNL1        0.2839
     26 O          13.0674   79.6075   24.6663 O.2     1  UNL1       -0.2665
     27 N          11.7479   81.2600   25.6689 N.am    1  UNL1       -0.2766
     28 H          10.7931   81.4581   26.0453 H       1  UNL1        0.1553
     29 C           8.9648   79.3504   25.1242 C.3     1  UNL1        0.0345
     30 C           9.9563   78.5689   25.9326 C.ar    1  UNL1        0.0202
     31 C          11.3286   78.8080   26.0664 C.ar    1  UNL1        0.1946
     32 O          11.8697   77.9028   26.8624 O.2     1  UNL1       -0.4492
     33 C          10.9190   77.0894   27.2524 C.ar    1  UNL1        0.1452
     34 C          11.0416   75.9908   28.0958 C.ar    1  UNL1        0.0375
     35 C           9.8840   75.2476   28.3843 C.ar    1  UNL1        0.0031
     36 C           8.6275   75.6112   27.8290 C.ar    1  UNL1        0.0002
     37 C           8.5461   76.7373   26.9749 C.ar    1  UNL1        0.0028
     38 C           9.7152   77.4524   26.7104 C.ar    1  UNL1        0.0337
     39 C           7.4116   74.8180   28.1410 C.ar    1  UNL1       -0.0000
     40 C           6.8271   74.8788   29.4189 C.ar    1  UNL1       -0.0002
     41 C           5.6834   74.1308   29.7128 C.ar    1  UNL1       -0.0019
     42 C           5.0959   73.3190   28.7316 C.ar    1  UNL1        0.0070
     43 C           5.6842   73.2422   27.4607 C.ar    1  UNL1       -0.0019
     44 C           6.8285   73.9888   27.1658 C.ar    1  UNL1       -0.0002
     45 C           3.8893   72.4880   29.0591 C.3     1  UNL1        0.1636
     46 O           3.5688   72.6504   30.4118 O.3     1  UNL1       -0.3772
     47 H           2.7702   72.0843   30.5753 H       1  UNL1        0.2109
@<TRIPOS>BOND
     1    29    30    1
     2    30    31   ar
     3    31    25    1
     4    25    26    2
     5    25    27   am
     6    27     1    1
     7     1     2   ar
     8     2     3   ar
     9     3     4   ar
    10     4     7    1
    11     7     8    1
    12     8     9    1
    13     9    10    1
    14    10    13    1
    15    13    14    1
    16    14    15    1
    17    15    16   ar
    18    16    17   ar
    19    17    18   ar
    20    18    19   ar
    21    19    21    1
    22    21    22    2
    23    21    23    1
    24    19    20   ar
    25    10    11    1
    26    11    12    1
    27     4     5   ar
    28     5     6   ar
    29    31    32   ar
    30    32    33   ar
    31    33    34   ar
    32    34    35   ar
    33    35    36   ar
    34    36    39    1
    35    39    40   ar
    36    40    41   ar
    37    41    42   ar
    38    42    45    1
    39    45    46    1
    40    42    43   ar
    41    43    44   ar
    42    36    37   ar
    43    37    38   ar
    44    38    30   ar
    45     6     1   ar
    46    38    33   ar
    47    12     7    1
    48    44    39   ar
    49    20    15   ar
    50    27    28    1
    51    23    24    1
    52    46    47    1
@<TRIPOS>MOLECULE
*****
 47 52 0 0 0
SMALL
GASTEIGER

@<TRIPOS>ATOM
      1 C          11.4987   81.2694   25.1453 C.ar    1  UNL1        0.0702
      2 C          12.3348   81.9941   24.2891 C.ar    1  UNL1        0.0191
      3 C          13.1897   82.9721   24.7994 C.ar    1  UNL1        0.0356
      4 C          13.1959   83.2409   26.1806 C.ar    1  UNL1        0.1318
      5 N          12.3517   82.5384   26.9880 N.ar    1  UNL1       -0.2279
      6 C          11.5139   81.5793   26.5139 C.ar    1  UNL1        0.1149
      7 N          14.0738   84.2404   26.7519 N.pl3   1  UNL1       -0.2932
      8 C          14.6552   85.2977   25.9088 C.3     1  UNL1        0.0923
      9 C          14.3624   86.6924   26.4887 C.3     1  UNL1        0.0252
     10 C          14.3229   86.7186   28.0392 C.3     1  UNL1        0.0472
     11 C          15.0707   85.5180   28.6483 C.3     1  UNL1        0.0252
     12 C          14.4207   84.2059   28.1845 C.3     1  UNL1        0.0923
     13 C          14.8244   88.0525   28.6272 C.3     1  UNL1        0.2054
     14 O          15.3152   88.9303   27.6088 O.3     1  UNL1       -0.4755
     15 C          16.6323   89.0172   27.1254 C.ar    1  UNL1        0.1388
     16 C          17.7192   89.4507   27.9096 C.ar    1  UNL1        0.0369
     17 C          19.0023   89.5045   27.3622 C.ar    1  UNL1        0.0033
     18 C          19.2205   89.1304   26.0351 C.ar    1  UNL1        0.0066
     19 C          18.1498   88.6986   25.2338 C.ar    1  UNL1        0.0785
     20 C          16.8620   88.6361   25.7971 C.ar    1  UNL1        0.0433
     21 C          18.3623   88.2906   23.8234 C.2     1  UNL1        0.3381
     22 O          17.4049   88.3445   23.0062 O.2     1  UNL1       -0.2451
     23 O          19.6055   87.8585   23.3628 O.3     1  UNL1       -0.4771
     24 H          20.4396   87.8877   23.9344 H       1  UNL1        0.2954
     25 C          10.5800   78.9061   25.0188 C.2     1  UNL1        0.2839
     26 O          11.5205   78.4348   25.7132 O.2     1  UNL1       -0.2665
     27 N          10.6070   80.2807   24.6017 N.am    1  UNL1       -0.2766
     28 H          10.0018   80.5608   23.7968 H       1  UNL1        0.1553
     29 C           8.6458   79.3356   22.4993 C.3     1  UNL1        0.0345
     30 C           8.6207   78.2178   23.4979 C.ar    1  UNL1        0.0202
     31 C           9.4668   78.0344   24.5974 C.ar    1  UNL1        0.1946
     32 O           9.1356   76.9305   25.2435 O.2     1  UNL1       -0.4492
     33 C           8.1178   76.3889   24.6202 C.ar    1  UNL1        0.1452
     34 C           7.4495   75.2167   24.9557 C.ar    1  UNL1        0.0375
     35 C           6.3766   74.8126   24.1425 C.ar    1  UNL1        0.0031
     36 C           5.9892   75.5818   23.0122 C.ar    1  UNL1        0.0002
     37 C           6.6961   76.7694   22.7057 C.ar    1  UNL1        0.0028
     38 C           7.7558   77.1408   23.5348 C.ar    1  UNL1        0.0337
     39 C           4.8541   75.1444   22.1604 C.ar    1  UNL1       -0.0000
     40 C           4.9369   73.9545   21.4152 C.ar    1  UNL1       -0.0002
     41 C           3.8688   73.5439   20.6123 C.ar    1  UNL1       -0.0019
     42 C           2.6944   74.3079   20.5499 C.ar    1  UNL1        0.0070
     43 C           2.6131   75.5036   21.2783 C.ar    1  UNL1       -0.0019
     44 C           3.6807   75.9160   22.0808 C.ar    1  UNL1       -0.0002
     45 C           1.5624   73.8853   19.6590 C.3     1  UNL1        0.1636
     46 O           0.8854   72.8117   20.2488 O.3     1  UNL1       -0.3772
     47 H           0.1519   72.5724   19.6245 H       1  UNL1        0.2109
@<TRIPOS>BOND
     1    29    30    1
     2    30    31   ar
     3    31    25    1
     4    25    26    2
     5    25    27   am
     6    27     1    1
     7     1     2   ar
     8     2     3   ar
     9     3     4   ar
    10     4     7    1
    11     7     8    1
    12     8     9    1
    13     9    10    1
    14    10    13    1
    15    13    14    1
    16    14    15    1
    17    15    16   ar
    18    16    17   ar
    19    17    18   ar
    20    18    19   ar
    21    19    21    1
    22    21    22    2
    23    21    23    1
    24    19    20   ar
    25    10    11    1
    26    11    12    1
    27     4     5   ar
    28     5     6   ar
    29    31    32   ar
    30    32    33   ar
    31    33    34   ar
    32    34    35   ar
    33    35    36   ar
    34    36    39    1
    35    39    40   ar
    36    40    41   ar
    37    41    42   ar
    38    42    45    1
    39    45    46    1
    40    42    43   ar
    41    43    44   ar
    42    36    37   ar
    43    37    38   ar
    44    38    30   ar
    45     6     1   ar
    46    38    33   ar
    47    12     7    1
    48    44    39   ar
    49    20    15   ar
    50    27    28    1
    51    23    24    1
    52    46    47    1
@<TRIPOS>MOLECULE
*****
 47 52 0 0 0
SMALL
GASTEIGER

@<TRIPOS>ATOM
      1 C          12.5842   82.1385   25.1923 C.ar    1  UNL1        0.0702
      2 C          12.4373   82.7816   23.9585 C.ar    1  UNL1        0.0191
      3 C          13.1725   83.9327   23.6714 C.ar    1  UNL1        0.0356
      4 C          14.0522   84.4569   24.6364 C.ar    1  UNL1        0.1318
      5 N          14.1556   83.8251   25.8398 N.ar    1  UNL1       -0.2279
      6 C          13.4529   82.7014   26.1398 C.ar    1  UNL1        0.1149
      7 N          14.8401   85.6432   24.3755 N.pl3   1  UNL1       -0.2932
      8 C          15.9498   85.6086   23.4089 C.3     1  UNL1        0.0923
      9 C          15.7973   86.7148   22.3506 C.3     1  UNL1        0.0252
     10 C          15.1447   88.0093   22.9027 C.3     1  UNL1        0.0472
     11 C          15.2674   88.1000   24.4351 C.3     1  UNL1        0.0252
     12 C          14.5612   86.9029   25.0890 C.3     1  UNL1        0.0923
     13 C          15.6751   89.2847   22.2180 C.3     1  UNL1        0.2054
     14 O          15.0635   89.4951   20.9412 O.3     1  UNL1       -0.4755
     15 C          14.0088   88.7593   20.3735 C.ar    1  UNL1        0.1388
     16 C          12.6497   89.0673   20.5789 C.ar    1  UNL1        0.0369
     17 C          11.6559   88.2943   19.9757 C.ar    1  UNL1        0.0033
     18 C          11.9984   87.2106   19.1650 C.ar    1  UNL1        0.0066
     19 C          13.3480   86.8834   18.9499 C.ar    1  UNL1        0.0785
     20 C          14.3432   87.6750   19.5520 C.ar    1  UNL1        0.0433
     21 C          13.7323   85.7398   18.0866 C.2     1  UNL1        0.3381
     22 O          13.4062   84.5690   18.4183 O.2     1  UNL1       -0.2451
     23 O          14.4382   85.9212   16.8976 O.3     1  UNL1       -0.4771
     24 H          14.6423   86.8365   16.5184 H       1  UNL1        0.2954
     25 C          10.7806   80.9102   26.4899 C.2     1  UNL1        0.2839
     26 O          10.6890   81.8245   27.3527 O.2     1  UNL1       -0.2665
     27 N          11.8030   80.9664   25.4819 N.am    1  UNL1       -0.2766
     28 H          12.0526   80.0803   24.9869 H       1  UNL1        0.1553
     29 C           9.5637   79.5257   29.1121 C.3     1  UNL1        0.0345
     30 C           9.3276   79.1502   27.6801 C.ar    1  UNL1        0.0202
     31 C           9.8617   79.7570   26.5378 C.ar    1  UNL1        0.1946
     32 O           9.4202   79.1457   25.4529 O.2     1  UNL1       -0.4492
     33 C           8.6279   78.1732   25.8326 C.ar    1  UNL1        0.1452
     34 C           7.9444   77.2755   25.0201 C.ar    1  UNL1        0.0375
     35 C           7.1400   76.3040   25.6405 C.ar    1  UNL1        0.0031
     36 C           7.0312   76.2439   27.0560 C.ar    1  UNL1        0.0002
     37 C           7.7443   77.1767   27.8470 C.ar    1  UNL1        0.0028
     38 C           8.5335   78.1274   27.1977 C.ar    1  UNL1        0.0337
     39 C           6.1781   75.2130   27.6998 C.ar    1  UNL1       -0.0000
     40 C           5.1796   75.5837   28.6185 C.ar    1  UNL1       -0.0002
     41 C           4.3777   74.6129   29.2255 C.ar    1  UNL1       -0.0019
     42 C           4.5503   73.2560   28.9158 C.ar    1  UNL1        0.0070
     43 C           5.5553   72.8798   28.0127 C.ar    1  UNL1       -0.0019
     44 C           6.3586   73.8494   27.4058 C.ar    1  UNL1       -0.0002
     45 C           3.7134   72.2115   29.5957 C.3     1  UNL1        0.1636
     46 O           3.2635   71.2880   28.6451 O.3     1  UNL1       -0.3772
     47 H           2.7192   70.6238   29.1427 H       1  UNL1        0.2109
@<TRIPOS>BOND
     1    29    30    1
     2    30    31   ar
     3    31    25    1
     4    25    26    2
     5    25    27   am
     6    27     1    1
     7     1     2   ar
     8     2     3   ar
     9     3     4   ar
    10     4     7    1
    11     7     8    1
    12     8     9    1
    13     9    10    1
    14    10    13    1
    15    13    14    1
    16    14    15    1
    17    15    16   ar
    18    16    17   ar
    19    17    18   ar
    20    18    19   ar
    21    19    21    1
    22    21    22    2
    23    21    23    1
    24    19    20   ar
    25    10    11    1
    26    11    12    1
    27     4     5   ar
    28     5     6   ar
    29    31    32   ar
    30    32    33   ar
    31    33    34   ar
    32    34    35   ar
    33    35    36   ar
    34    36    39    1
    35    39    40   ar
    36    40    41   ar
    37    41    42   ar
    38    42    45    1
    39    45    46    1
    40    42    43   ar
    41    43    44   ar
    42    36    37   ar
    43    37    38   ar
    44    38    30   ar
    45     6     1   ar
    46    38    33   ar
    47    12     7    1
    48    44    39   ar
    49    20    15   ar
    50    27    28    1
    51    23    24    1
    52    46    47    1
