@<TRIPOS>MOLECULE
*****
 42 46 0 0 0
SMALL
GASTEIGER

@<TRIPOS>ATOM
      1 C           8.8701   76.0095   27.3946 C.3     1  UNL1        0.0498
      2 C           8.3666   77.0460   26.3835 C.3     1  UNL1        0.1673
      3 C           7.7772   78.2575   27.1153 C.3     1  UNL1        0.0498
      4 O           7.3220   76.4387   25.5917 O.3     1  UNL1       -0.4770
      5 C           7.2182   76.5192   24.1868 C.ar    1  UNL1        0.1407
      6 C           6.0735   76.0336   23.5464 C.ar    1  UNL1        0.0452
      7 C           5.9651   76.1030   22.1503 C.ar    1  UNL1        0.0450
      8 C           7.0072   76.6558   21.3923 C.ar    1  UNL1        0.0085
      9 C           8.1573   77.1371   22.0257 C.ar    1  UNL1        0.0052
     10 C           8.2624   77.0679   23.4206 C.ar    1  UNL1        0.0529
     11 C           9.4387   77.5373   24.1457 C.ar    1  UNL1        0.1005
     12 N          10.5599   78.0745   23.6294 N.ar    1  UNL1       -0.2271
     13 C          11.2984   78.3598   24.7310 C.ar    1  UNL1        0.1417
     14 N          10.6781   78.0314   25.8889 N.ar    1  UNL1       -0.3380
     15 C           9.5082   77.5004   25.5038 C.ar    1  UNL1        0.0891
     16 H          11.0107   78.1959   26.8650 H       1  UNL1        0.1672
     17 C          12.6379   78.9970   24.6673 C.ar    1  UNL1        0.0531
     18 C          12.7928   80.3747   24.9617 C.ar    1  UNL1        0.0720
     19 C          14.0610   80.9666   24.9015 C.ar    1  UNL1        0.0104
     20 C          15.1774   80.2097   24.5500 C.ar    1  UNL1        0.0014
     21 C          15.0392   78.8553   24.2511 C.ar    1  UNL1        0.0104
     22 C          13.7810   78.2417   24.3037 C.ar    1  UNL1        0.0720
     23 C          11.6753   81.1950   25.3675 C.1     1  UNL1        0.1005
     24 N          10.7801   81.8525   25.6928 N.1     1  UNL1       -0.1908
     25 C          13.6851   76.8505   23.9277 C.1     1  UNL1        0.1005
     26 N          13.6078   75.7358   23.6261 N.1     1  UNL1       -0.1908
     27 C           4.7843   75.6057   21.4964 C.1     1  UNL1       -0.0597
     28 C           3.7909   75.1932   20.9521 C.1     1  UNL1       -0.0598
     29 C           2.5976   74.7038   20.3045 C.ar    1  UNL1        0.0459
     30 C           1.9724   73.5674   20.8293 C.ar    1  UNL1        0.0084
     31 C           0.8166   73.0571   20.2384 C.ar    1  UNL1        0.0070
     32 C           0.2595   73.6793   19.1104 C.ar    1  UNL1        0.0754
     33 C           0.8939   74.8145   18.5745 C.ar    1  UNL1        0.0109
     34 C           2.0619   75.3421   19.1613 C.ar    1  UNL1        0.0793
     35 C          -0.9668   73.1431   18.4697 C.2     1  UNL1        0.3380
     36 O          -1.8383   73.9367   18.0249 O.2     1  UNL1       -0.2451
     37 O          -1.1960   71.7723   18.3555 O.3     1  UNL1       -0.4771
     38 H          -0.5919   71.0811   18.7804 H       1  UNL1        0.2954
     39 C           2.7280   76.5720   18.5749 C.3     1  UNL1        0.4191
     40 F           4.0181   76.2595   18.1854 F       1  UNL1       -0.1658
     41 F           2.0142   77.0048   17.4719 F       1  UNL1       -0.1658
     42 F           2.7898   77.6117   19.4871 F       1  UNL1       -0.1658
@<TRIPOS>BOND
     1     1     2    1
     2     2     3    1
     3     2     4    1
     4     4     5    1
     5     5     6   ar
     6     6     7   ar
     7     7    27    1
     8    27    28    3
     9    28    29    1
    10    29    30   ar
    11    30    31   ar
    12    31    32   ar
    13    32    35    1
    14    35    36    2
    15    35    37    1
    16    32    33   ar
    17    33    34   ar
    18    34    39    1
    19    39    40    1
    20    39    41    1
    21    39    42    1
    22     7     8   ar
    23     8     9   ar
    24     9    10   ar
    25    10    11    1
    26    11    12   ar
    27    12    13   ar
    28    13    17    1
    29    17    18   ar
    30    18    23    1
    31    23    24    3
    32    18    19   ar
    33    19    20   ar
    34    20    21   ar
    35    21    22   ar
    36    22    25    1
    37    25    26    3
    38    13    14   ar
    39    14    15   ar
    40    15     2    1
    41    10     5   ar
    42    15    11   ar
    43    34    29   ar
    44    22    17   ar
    45    37    38    1
    46    14    16    1
@<TRIPOS>MOLECULE
*****
 42 46 0 0 0
SMALL
GASTEIGER

@<TRIPOS>ATOM
      1 C           8.8963   76.0052   27.3767 C.3     1  UNL1        0.0498
      2 C           8.3998   77.0429   26.3634 C.3     1  UNL1        0.1673
      3 C           7.8189   78.2600   27.0927 C.3     1  UNL1        0.0498
      4 O           7.3508   76.4411   25.5732 O.3     1  UNL1       -0.4770
      5 C           7.2473   76.5191   24.1681 C.ar    1  UNL1        0.1407
      6 C           6.0991   76.0401   23.5291 C.ar    1  UNL1        0.0452
      7 C           5.9909   76.1071   22.1329 C.ar    1  UNL1        0.0450
      8 C           7.0366   76.6510   21.3734 C.ar    1  UNL1        0.0085
      9 C           8.1901   77.1258   22.0055 C.ar    1  UNL1        0.0052
     10 C           8.2951   77.0590   23.4006 C.ar    1  UNL1        0.0529
     11 C           9.4747   77.5217   24.1244 C.ar    1  UNL1        0.1005
     12 N          10.5995   78.0500   23.6066 N.ar    1  UNL1       -0.2271
     13 C          11.3402   78.3328   24.7074 C.ar    1  UNL1        0.1417
     14 N          10.7179   78.0112   25.8662 N.ar    1  UNL1       -0.3380
     15 C           9.5443   77.4874   25.4825 C.ar    1  UNL1        0.0891
     16 H          11.0519   78.1756   26.8418 H       1  UNL1        0.1672
     17 C          12.6841   78.9605   24.6420 C.ar    1  UNL1        0.0531
     18 C          13.8170   78.1952   24.2685 C.ar    1  UNL1        0.0720
     19 C          15.0805   78.7968   24.2069 C.ar    1  UNL1        0.0104
     20 C          15.2352   80.1476   24.5140 C.ar    1  UNL1        0.0014
     21 C          14.1311   80.9110   24.8896 C.ar    1  UNL1        0.0104
     22 C          12.8578   80.3311   24.9591 C.ar    1  UNL1        0.0720
     23 C          13.7059   76.8019   23.9042 C.1     1  UNL1        0.1005
     24 N          13.6171   75.6855   23.6120 N.1     1  UNL1       -0.1908
     25 C          11.7587   81.1525   25.4102 C.1     1  UNL1        0.1005
     26 N          10.8782   81.8110   25.7715 N.1     1  UNL1       -0.1908
     27 C           4.8065   75.6166   21.4804 C.1     1  UNL1       -0.0597
     28 C           3.8108   75.2050   20.9395 C.1     1  UNL1       -0.0598
     29 C           2.6155   74.7117   20.2984 C.ar    1  UNL1        0.0459
     30 C           1.9948   73.5756   20.8290 C.ar    1  UNL1        0.0084
     31 C           0.8374   73.0616   20.2446 C.ar    1  UNL1        0.0070
     32 C           0.2741   73.6798   19.1175 C.ar    1  UNL1        0.0754
     33 C           0.9040   74.8148   18.5758 C.ar    1  UNL1        0.0109
     34 C           2.0736   75.3460   19.1560 C.ar    1  UNL1        0.0793
     35 C          -0.9540   73.1397   18.4836 C.2     1  UNL1        0.3380
     36 O          -1.8383   73.9302   18.0589 O.2     1  UNL1       -0.2451
     37 O          -1.1711   71.7683   18.3541 O.3     1  UNL1       -0.4771
     38 H          -0.5554   71.0777   18.7633 H       1  UNL1        0.2954
     39 C           2.7349   76.5756   18.5634 C.3     1  UNL1        0.4191
     40 F           2.0253   76.9936   17.4519 F       1  UNL1       -0.1658
     41 F           2.7481   77.5925   19.5011 F       1  UNL1       -0.1658
     42 F           4.0403   76.3254   18.1762 F       1  UNL1       -0.1658
@<TRIPOS>BOND
     1     1     2    1
     2     2     3    1
     3     2     4    1
     4     4     5    1
     5     5     6   ar
     6     6     7   ar
     7     7    27    1
     8    27    28    3
     9    28    29    1
    10    29    30   ar
    11    30    31   ar
    12    31    32   ar
    13    32    35    1
    14    35    36    2
    15    35    37    1
    16    32    33   ar
    17    33    34   ar
    18    34    39    1
    19    39    40    1
    20    39    41    1
    21    39    42    1
    22     7     8   ar
    23     8     9   ar
    24     9    10   ar
    25    10    11    1
    26    11    12   ar
    27    12    13   ar
    28    13    17    1
    29    17    18   ar
    30    18    23    1
    31    23    24    3
    32    18    19   ar
    33    19    20   ar
    34    20    21   ar
    35    21    22   ar
    36    22    25    1
    37    25    26    3
    38    13    14   ar
    39    14    15   ar
    40    15     2    1
    41    10     5   ar
    42    15    11   ar
    43    34    29   ar
    44    22    17   ar
    45    37    38    1
    46    14    16    1
@<TRIPOS>MOLECULE
*****
 42 46 0 0 0
SMALL
GASTEIGER

@<TRIPOS>ATOM
      1 C          12.1505   74.0433   21.6274 C.3     1  UNL1        0.0498
      2 C          11.0608   74.4939   22.6070 C.3     1  UNL1        0.1673
      3 C          11.1170   73.6510   23.8865 C.3     1  UNL1        0.0498
      4 O           9.7746   74.2893   21.9820 O.3     1  UNL1       -0.4770
      5 C           8.7214   75.2282   21.9671 C.ar    1  UNL1        0.1407
      6 C           7.4655   74.8548   21.4775 C.ar    1  UNL1        0.0452
      7 C           6.4153   75.7833   21.4524 C.ar    1  UNL1        0.0450
      8 C           6.6237   77.0908   21.9143 C.ar    1  UNL1        0.0085
      9 C           7.8786   77.4726   22.3990 C.ar    1  UNL1        0.0052
     10 C           8.9256   76.5426   22.4244 C.ar    1  UNL1        0.0529
     11 C          10.2634   76.8761   22.9027 C.ar    1  UNL1        0.1005
     12 N          10.6968   78.0645   23.3633 N.ar    1  UNL1       -0.2271
     13 C          11.9864   77.8107   23.6997 C.ar    1  UNL1        0.1417
     14 N          12.3537   76.5271   23.4750 N.ar    1  UNL1       -0.3380
     15 C          11.2583   75.9502   22.9589 C.ar    1  UNL1        0.0891
     16 H          13.2672   76.0722   23.6961 H       1  UNL1        0.1672
     17 C          12.8890   78.8345   24.2843 C.ar    1  UNL1        0.0531
     18 C          12.3869   80.1068   24.6559 C.ar    1  UNL1        0.0720
     19 C          13.2455   81.0653   25.2092 C.ar    1  UNL1        0.0104
     20 C          14.5968   80.7790   25.3959 C.ar    1  UNL1        0.0014
     21 C          15.1059   79.5345   25.0288 C.ar    1  UNL1        0.0104
     22 C          14.2668   78.5603   24.4728 C.ar    1  UNL1        0.0720
     23 C          10.9884   80.4412   24.5185 C.1     1  UNL1        0.1005
     24 N           9.8678   80.7089   24.4087 N.1     1  UNL1       -0.1908
     25 C          14.8572   77.3097   24.0561 C.1     1  UNL1        0.1005
     26 N          15.3299   76.3074   23.7223 N.1     1  UNL1       -0.1908
     27 C           5.1245   75.3936   20.9514 C.1     1  UNL1       -0.0597
     28 C           4.0399   75.0722   20.5347 C.1     1  UNL1       -0.0598
     29 C           2.7384   74.6930   20.0394 C.ar    1  UNL1        0.0459
     30 C           2.1091   73.5781   20.6039 C.ar    1  UNL1        0.0084
     31 C           0.8508   73.1730   20.1588 C.ar    1  UNL1        0.0070
     32 C           0.1937   73.8813   19.1408 C.ar    1  UNL1        0.0754
     33 C           0.8305   74.9950   18.5642 C.ar    1  UNL1        0.0109
     34 C           2.1016   75.4166   19.0040 C.ar    1  UNL1        0.0793
     35 C          -1.1428   73.4574   18.6553 C.2     1  UNL1        0.3380
     36 O          -2.0803   74.2965   18.5915 O.2     1  UNL1       -0.2451
     37 O          -1.4025   72.1407   18.2762 O.3     1  UNL1       -0.4771
     38 H          -0.7298   71.3952   18.3987 H       1  UNL1        0.2954
     39 C           2.7698   76.6249   18.3765 C.3     1  UNL1        0.4191
     40 F           1.9735   77.1190   17.3589 F       1  UNL1       -0.1658
     41 F           2.9435   77.6083   19.3337 F       1  UNL1       -0.1658
     42 F           4.0095   76.3129   17.8449 F       1  UNL1       -0.1658
@<TRIPOS>BOND
     1     1     2    1
     2     2     3    1
     3     2     4    1
     4     4     5    1
     5     5     6   ar
     6     6     7   ar
     7     7    27    1
     8    27    28    3
     9    28    29    1
    10    29    30   ar
    11    30    31   ar
    12    31    32   ar
    13    32    35    1
    14    35    36    2
    15    35    37    1
    16    32    33   ar
    17    33    34   ar
    18    34    39    1
    19    39    40    1
    20    39    41    1
    21    39    42    1
    22     7     8   ar
    23     8     9   ar
    24     9    10   ar
    25    10    11    1
    26    11    12   ar
    27    12    13   ar
    28    13    17    1
    29    17    18   ar
    30    18    23    1
    31    23    24    3
    32    18    19   ar
    33    19    20   ar
    34    20    21   ar
    35    21    22   ar
    36    22    25    1
    37    25    26    3
    38    13    14   ar
    39    14    15   ar
    40    15     2    1
    41    10     5   ar
    42    15    11   ar
    43    34    29   ar
    44    22    17   ar
    45    37    38    1
    46    14    16    1
@<TRIPOS>MOLECULE
*****
 42 46 0 0 0
SMALL
GASTEIGER

@<TRIPOS>ATOM
      1 C          12.1421   74.0575   21.6182 C.3     1  UNL1        0.0498
      2 C          11.0560   74.5069   22.6023 C.3     1  UNL1        0.1673
      3 C          11.1202   73.6662   23.8827 C.3     1  UNL1        0.0498
      4 O           9.7673   74.2983   21.9836 O.3     1  UNL1       -0.4770
      5 C           8.7118   75.2347   21.9723 C.ar    1  UNL1        0.1407
      6 C           7.4545   74.8576   21.4892 C.ar    1  UNL1        0.0452
      7 C           6.4020   75.7835   21.4676 C.ar    1  UNL1        0.0450
      8 C           6.6094   77.0921   21.9265 C.ar    1  UNL1        0.0085
      9 C           7.8657   77.4777   22.4047 C.ar    1  UNL1        0.0052
     10 C           8.9150   76.5503   22.4266 C.ar    1  UNL1        0.0529
     11 C          10.2542   76.8877   22.8980 C.ar    1  UNL1        0.1005
     12 N          10.6870   78.0778   23.3548 N.ar    1  UNL1       -0.2271
     13 C          11.9787   77.8277   23.6855 C.ar    1  UNL1        0.1417
     14 N          12.3481   76.5446   23.4611 N.ar    1  UNL1       -0.3380
     15 C          11.2517   75.9642   22.9509 C.ar    1  UNL1        0.0891
     16 H          13.2637   76.0922   23.6785 H       1  UNL1        0.1672
     17 C          12.8816   78.8545   24.2643 C.ar    1  UNL1        0.0531
     18 C          14.2617   78.5822   24.4372 C.ar    1  UNL1        0.0720
     19 C          15.1063   79.5581   24.9816 C.ar    1  UNL1        0.0104
     20 C          14.5987   80.8000   25.3596 C.ar    1  UNL1        0.0014
     21 C          13.2423   81.0794   25.2018 C.ar    1  UNL1        0.0104
     22 C          12.3781   80.1189   24.6605 C.ar    1  UNL1        0.0720
     23 C          14.8452   77.3260   24.0276 C.1     1  UNL1        0.1005
     24 N          15.3123   76.3192   23.6993 N.1     1  UNL1       -0.1908
     25 C          10.9724   80.4389   24.5735 C.1     1  UNL1        0.1005
     26 N           9.8459   80.6954   24.5043 N.1     1  UNL1       -0.1908
     27 C           5.1098   75.3900   20.9733 C.1     1  UNL1       -0.0597
     28 C           4.0255   75.0665   20.5574 C.1     1  UNL1       -0.0598
     29 C           2.7260   74.6862   20.0577 C.ar    1  UNL1        0.0459
     30 C           2.0944   73.5726   20.6222 C.ar    1  UNL1        0.0084
     31 C           0.8379   73.1665   20.1731 C.ar    1  UNL1        0.0070
     32 C           0.1849   73.8725   19.1508 C.ar    1  UNL1        0.0754
     33 C           0.8241   74.9847   18.5741 C.ar    1  UNL1        0.0109
     34 C           2.0934   75.4074   19.0181 C.ar    1  UNL1        0.0793
     35 C          -1.1496   73.4474   18.6608 C.2     1  UNL1        0.3380
     36 O          -2.0834   74.2892   18.5794 O.2     1  UNL1       -0.2451
     37 O          -1.4117   72.1270   18.2967 O.3     1  UNL1       -0.4771
     38 H          -0.7429   71.3806   18.4337 H       1  UNL1        0.2954
     39 C           2.7642   76.6142   18.3904 C.3     1  UNL1        0.4191
     40 F           1.9789   77.0971   17.3590 F       1  UNL1       -0.1658
     41 F           2.9211   77.6052   19.3426 F       1  UNL1       -0.1658
     42 F           4.0121   76.3041   17.8772 F       1  UNL1       -0.1658
@<TRIPOS>BOND
     1     1     2    1
     2     2     3    1
     3     2     4    1
     4     4     5    1
     5     5     6   ar
     6     6     7   ar
     7     7    27    1
     8    27    28    3
     9    28    29    1
    10    29    30   ar
    11    30    31   ar
    12    31    32   ar
    13    32    35    1
    14    35    36    2
    15    35    37    1
    16    32    33   ar
    17    33    34   ar
    18    34    39    1
    19    39    40    1
    20    39    41    1
    21    39    42    1
    22     7     8   ar
    23     8     9   ar
    24     9    10   ar
    25    10    11    1
    26    11    12   ar
    27    12    13   ar
    28    13    17    1
    29    17    18   ar
    30    18    23    1
    31    23    24    3
    32    18    19   ar
    33    19    20   ar
    34    20    21   ar
    35    21    22   ar
    36    22    25    1
    37    25    26    3
    38    13    14   ar
    39    14    15   ar
    40    15     2    1
    41    10     5   ar
    42    15    11   ar
    43    34    29   ar
    44    22    17   ar
    45    37    38    1
    46    14    16    1
@<TRIPOS>MOLECULE
*****
 42 46 0 0 0
SMALL
GASTEIGER

@<TRIPOS>ATOM
      1 C           7.9296   79.2109   28.2343 C.3     1  UNL1        0.0498
      2 C           9.2514   78.8817   27.5309 C.3     1  UNL1        0.1673
      3 C          10.1256   78.0007   28.4308 C.3     1  UNL1        0.0498
      4 O           9.9543   80.1189   27.2819 O.3     1  UNL1       -0.4770
      5 C          10.5700   80.4708   26.0619 C.ar    1  UNL1        0.1407
      6 C          11.3639   81.6202   25.9913 C.ar    1  UNL1        0.0452
      7 C          11.9736   81.9812   24.7815 C.ar    1  UNL1        0.0450
      8 C          11.7847   81.1923   23.6378 C.ar    1  UNL1        0.0085
      9 C          10.9869   80.0454   23.6999 C.ar    1  UNL1        0.0052
     10 C          10.3802   79.6862   24.9101 C.ar    1  UNL1        0.0529
     11 C           9.5240   78.5120   25.0434 C.ar    1  UNL1        0.1005
     12 N           9.1829   77.6326   24.0829 N.ar    1  UNL1       -0.2271
     13 C           8.4133   76.7352   24.7483 C.ar    1  UNL1        0.1417
     14 N           8.2782   77.0208   26.0649 N.ar    1  UNL1       -0.3380
     15 C           8.9751   78.1541   26.2355 C.ar    1  UNL1        0.0891
     16 H           7.7839   76.4626   26.7960 H       1  UNL1        0.1672
     17 C           7.8091   75.5447   24.0985 C.ar    1  UNL1        0.0531
     18 C           6.4008   75.4017   24.0286 C.ar    1  UNL1        0.0720
     19 C           5.8399   74.2765   23.4111 C.ar    1  UNL1        0.0104
     20 C           6.6583   73.2894   22.8646 C.ar    1  UNL1        0.0014
     21 C           8.0450   73.4133   22.9321 C.ar    1  UNL1        0.0104
     22 C           8.6289   74.5293   23.5454 C.ar    1  UNL1        0.0720
     23 C           5.5081   76.4128   24.5455 C.1     1  UNL1        0.1005
     24 N           4.7926   77.2226   24.9599 N.1     1  UNL1       -0.1908
     25 C          10.0693   74.5791   23.6398 C.1     1  UNL1        0.1005
     26 N          11.2235   74.6186   23.7153 N.1     1  UNL1       -0.1908
     27 C          12.7921   83.1622   24.7146 C.1     1  UNL1       -0.0597
     28 C          13.4731   84.1555   24.6613 C.1     1  UNL1       -0.0598
     29 C          14.2830   85.3485   24.6003 C.ar    1  UNL1        0.0459
     30 C          14.3485   86.1684   25.7322 C.ar    1  UNL1        0.0084
     31 C          15.1182   87.3316   25.7217 C.ar    1  UNL1        0.0070
     32 C          15.8436   87.6950   24.5765 C.ar    1  UNL1        0.0754
     33 C          15.7688   86.8781   23.4340 C.ar    1  UNL1        0.0109
     34 C          14.9959   85.6993   23.4299 C.ar    1  UNL1        0.0793
     35 C          16.6619   88.9325   24.5512 C.2     1  UNL1        0.3380
     36 O          16.9326   89.4810   23.4499 O.2     1  UNL1       -0.2451
     37 O          17.1596   89.5076   25.7201 O.3     1  UNL1       -0.4771
     38 H          17.0694   89.0666   26.6261 H       1  UNL1        0.2954
     39 C          14.9335   84.8259   22.1916 C.3     1  UNL1        0.4191
     40 F          15.5498   85.4734   21.1358 F       1  UNL1       -0.1658
     41 F          15.5869   83.6309   22.4334 F       1  UNL1       -0.1658
     42 F          13.6295   84.5409   21.8243 F       1  UNL1       -0.1658
@<TRIPOS>BOND
     1     1     2    1
     2     2     3    1
     3     2     4    1
     4     4     5    1
     5     5     6   ar
     6     6     7   ar
     7     7    27    1
     8    27    28    3
     9    28    29    1
    10    29    30   ar
    11    30    31   ar
    12    31    32   ar
    13    32    35    1
    14    35    36    2
    15    35    37    1
    16    32    33   ar
    17    33    34   ar
    18    34    39    1
    19    39    40    1
    20    39    41    1
    21    39    42    1
    22     7     8   ar
    23     8     9   ar
    24     9    10   ar
    25    10    11    1
    26    11    12   ar
    27    12    13   ar
    28    13    17    1
    29    17    18   ar
    30    18    23    1
    31    23    24    3
    32    18    19   ar
    33    19    20   ar
    34    20    21   ar
    35    21    22   ar
    36    22    25    1
    37    25    26    3
    38    13    14   ar
    39    14    15   ar
    40    15     2    1
    41    10     5   ar
    42    15    11   ar
    43    34    29   ar
    44    22    17   ar
    45    37    38    1
    46    14    16    1
@<TRIPOS>MOLECULE
*****
 42 46 0 0 0
SMALL
GASTEIGER

@<TRIPOS>ATOM
      1 C           7.9429   79.1836   28.2508 C.3     1  UNL1        0.0498
      2 C           9.2657   78.8702   27.5423 C.3     1  UNL1        0.1673
      3 C          10.1502   77.9922   28.4353 C.3     1  UNL1        0.0498
      4 O           9.9570   80.1150   27.2983 O.3     1  UNL1       -0.4770
      5 C          10.5664   80.4789   26.0787 C.ar    1  UNL1        0.1407
      6 C          11.3497   81.6358   26.0123 C.ar    1  UNL1        0.0452
      7 C          11.9531   82.0088   24.8030 C.ar    1  UNL1        0.0450
      8 C          11.7683   81.2243   23.6555 C.ar    1  UNL1        0.0085
      9 C          10.9811   80.0700   23.7134 C.ar    1  UNL1        0.0052
     10 C          10.3806   79.6989   24.9231 C.ar    1  UNL1        0.0529
     11 C           9.5354   78.5163   25.0522 C.ar    1  UNL1        0.1005
     12 N           9.1997   77.6391   24.0878 N.ar    1  UNL1       -0.2271
     13 C           8.4399   76.7312   24.7503 C.ar    1  UNL1        0.1417
     14 N           8.3056   77.0085   26.0687 N.ar    1  UNL1       -0.3380
     15 C           8.9927   78.1471   26.2437 C.ar    1  UNL1        0.0891
     16 H           7.8182   76.4420   26.7980 H       1  UNL1        0.1672
     17 C           7.8448   75.5389   24.0955 C.ar    1  UNL1        0.0531
     18 C           8.6759   74.5462   23.5189 C.ar    1  UNL1        0.0720
     19 C           8.1054   73.4234   22.9057 C.ar    1  UNL1        0.0104
     20 C           6.7205   73.2742   22.8544 C.ar    1  UNL1        0.0014
     21 C           5.8906   74.2458   23.4112 C.ar    1  UNL1        0.0104
     22 C           6.4381   75.3776   24.0289 C.ar    1  UNL1        0.0720
     23 C          10.1165   74.6337   23.5777 C.1     1  UNL1        0.1005
     24 N          11.2708   74.7038   23.6253 N.1     1  UNL1       -0.1908
     25 C           5.5327   76.3816   24.5373 C.1     1  UNL1        0.1005
     26 N           4.8074   77.1861   24.9450 N.1     1  UNL1       -0.1908
     27 C          12.7608   83.1974   24.7405 C.1     1  UNL1       -0.0597
     28 C          13.4407   84.1917   24.6938 C.1     1  UNL1       -0.0598
     29 C          14.2579   85.3804   24.6442 C.ar    1  UNL1        0.0459
     30 C          14.3471   86.1765   25.7914 C.ar    1  UNL1        0.0084
     31 C          15.1246   87.3344   25.7923 C.ar    1  UNL1        0.0070
     32 C          15.8344   87.7163   24.6433 C.ar    1  UNL1        0.0754
     33 C          15.7358   86.9235   23.4857 C.ar    1  UNL1        0.0109
     34 C          14.9547   85.7502   23.4700 C.ar    1  UNL1        0.0793
     35 C          16.6609   88.9486   24.6302 C.2     1  UNL1        0.3380
     36 O          16.9335   89.5073   23.5344 O.2     1  UNL1       -0.2451
     37 O          17.1643   89.5075   25.8044 O.3     1  UNL1       -0.4771
     38 H          17.0726   89.0572   26.7057 H       1  UNL1        0.2954
     39 C          14.8666   84.9028   22.2153 C.3     1  UNL1        0.4191
     40 F          13.5400   84.7365   21.8601 F       1  UNL1       -0.1658
     41 F          15.5365   85.5328   21.1820 F       1  UNL1       -0.1658
     42 F          15.4278   83.6502   22.3962 F       1  UNL1       -0.1658
@<TRIPOS>BOND
     1     1     2    1
     2     2     3    1
     3     2     4    1
     4     4     5    1
     5     5     6   ar
     6     6     7   ar
     7     7    27    1
     8    27    28    3
     9    28    29    1
    10    29    30   ar
    11    30    31   ar
    12    31    32   ar
    13    32    35    1
    14    35    36    2
    15    35    37    1
    16    32    33   ar
    17    33    34   ar
    18    34    39    1
    19    39    40    1
    20    39    41    1
    21    39    42    1
    22     7     8   ar
    23     8     9   ar
    24     9    10   ar
    25    10    11    1
    26    11    12   ar
    27    12    13   ar
    28    13    17    1
    29    17    18   ar
    30    18    23    1
    31    23    24    3
    32    18    19   ar
    33    19    20   ar
    34    20    21   ar
    35    21    22   ar
    36    22    25    1
    37    25    26    3
    38    13    14   ar
    39    14    15   ar
    40    15     2    1
    41    10     5   ar
    42    15    11   ar
    43    34    29   ar
    44    22    17   ar
    45    37    38    1
    46    14    16    1
@<TRIPOS>MOLECULE
*****
 42 46 0 0 0
SMALL
GASTEIGER

@<TRIPOS>ATOM
      1 C          10.4378   76.7990   22.2994 C.3     1  UNL1        0.0498
      2 C           9.7342   78.0253   22.8921 C.3     1  UNL1        0.1673
      3 C           8.5330   78.4181   22.0241 C.3     1  UNL1        0.0498
      4 O          10.6698   79.1260   22.9013 O.3     1  UNL1       -0.4770
      5 C          10.8899   79.9944   23.9915 C.ar    1  UNL1        0.1407
      6 C          11.6970   81.1248   23.8265 C.ar    1  UNL1        0.0452
      7 C          11.9269   81.9891   24.9062 C.ar    1  UNL1        0.0450
      8 C          11.3513   81.7191   26.1559 C.ar    1  UNL1        0.0085
      9 C          10.5487   80.5872   26.3295 C.ar    1  UNL1        0.0052
     10 C          10.3194   79.7261   25.2489 C.ar    1  UNL1        0.0529
     11 C           9.5054   78.5202   25.3621 C.ar    1  UNL1        0.1005
     12 N           8.8822   78.0517   26.4595 N.ar    1  UNL1       -0.2271
     13 C           8.2520   76.9405   26.0030 C.ar    1  UNL1        0.1417
     14 N           8.4540   76.7168   24.6830 N.ar    1  UNL1       -0.3380
     15 C           9.2590   77.7162   24.2928 C.ar    1  UNL1        0.0891
     16 H           8.0405   75.9647   24.0882 H       1  UNL1        0.1672
     17 C           7.4022   76.0785   26.8630 C.ar    1  UNL1        0.0531
     18 C           7.9731   75.3475   27.9346 C.ar    1  UNL1        0.0720
     19 C           7.1631   74.5390   28.7423 C.ar    1  UNL1        0.0104
     20 C           5.7940   74.4438   28.4985 C.ar    1  UNL1        0.0014
     21 C           5.2199   75.1516   27.4439 C.ar    1  UNL1        0.0104
     22 C           6.0099   75.9658   26.6222 C.ar    1  UNL1        0.0720
     23 C           9.3790   75.4400   28.2533 C.1     1  UNL1        0.1005
     24 N          10.5054   75.5136   28.5087 N.1     1  UNL1       -0.1908
     25 C           5.3746   76.6306   25.5083 C.1     1  UNL1        0.1005
     26 N           4.8660   77.1635   24.6157 N.1     1  UNL1       -0.1908
     27 C          12.7546   83.1524   24.7307 C.1     1  UNL1       -0.0597
     28 C          13.4446   84.1306   24.5883 C.1     1  UNL1       -0.0598
     29 C          14.2668   85.3052   24.4228 C.ar    1  UNL1        0.0459
     30 C          14.3478   86.2168   25.4810 C.ar    1  UNL1        0.0084
     31 C          15.1298   87.3663   25.3686 C.ar    1  UNL1        0.0070
     32 C          15.8522   87.6237   24.1931 C.ar    1  UNL1        0.0754
     33 C          15.7619   86.7142   23.1240 C.ar    1  UNL1        0.0109
     34 C          14.9765   85.5480   23.2233 C.ar    1  UNL1        0.0793
     35 C          16.6835   88.8455   24.0594 C.2     1  UNL1        0.3380
     36 O          17.1585   89.3947   25.0889 O.2     1  UNL1       -0.2451
     37 O          16.9476   89.4215   22.8171 O.3     1  UNL1       -0.4771
     38 H          16.5158   89.0959   21.9622 H       1  UNL1        0.2954
     39 C          14.8974   84.5740   22.0634 C.3     1  UNL1        0.4191
     40 F          15.3839   85.1771   20.9174 F       1  UNL1       -0.1658
     41 F          15.6599   83.4547   22.3448 F       1  UNL1       -0.1658
     42 F          13.5978   84.1637   21.8198 F       1  UNL1       -0.1658
@<TRIPOS>BOND
     1     1     2    1
     2     2     3    1
     3     2     4    1
     4     4     5    1
     5     5     6   ar
     6     6     7   ar
     7     7    27    1
     8    27    28    3
     9    28    29    1
    10    29    30   ar
    11    30    31   ar
    12    31    32   ar
    13    32    35    1
    14    35    36    2
    15    35    37    1
    16    32    33   ar
    17    33    34   ar
    18    34    39    1
    19    39    40    1
    20    39    41    1
    21    39    42    1
    22     7     8   ar
    23     8     9   ar
    24     9    10   ar
    25    10    11    1
    26    11    12   ar
    27    12    13   ar
    28    13    17    1
    29    17    18   ar
    30    18    23    1
    31    23    24    3
    32    18    19   ar
    33    19    20   ar
    34    20    21   ar
    35    21    22   ar
    36    22    25    1
    37    25    26    3
    38    13    14   ar
    39    14    15   ar
    40    15     2    1
    41    10     5   ar
    42    15    11   ar
    43    34    29   ar
    44    22    17   ar
    45    37    38    1
    46    14    16    1
@<TRIPOS>MOLECULE
*****
 42 46 0 0 0
SMALL
GASTEIGER

@<TRIPOS>ATOM
      1 C          10.2176   77.0006   22.0394 C.3     1  UNL1        0.0498
      2 C           9.5615   78.1995   22.7340 C.3     1  UNL1        0.1673
      3 C           8.3233   78.6528   21.9517 C.3     1  UNL1        0.0498
      4 O          10.5111   79.2879   22.7558 O.3     1  UNL1       -0.4770
      5 C          10.7979   80.0919   23.8794 C.ar    1  UNL1        0.1407
      6 C          11.6108   81.2210   23.7356 C.ar    1  UNL1        0.0452
      7 C          11.9067   82.0215   24.8480 C.ar    1  UNL1        0.0450
      8 C          11.3915   81.6885   26.1088 C.ar    1  UNL1        0.0085
      9 C          10.5835   80.5574   26.2608 C.ar    1  UNL1        0.0052
     10 C          10.2882   79.7602   25.1477 C.ar    1  UNL1        0.0529
     11 C           9.4647   78.5587   25.2359 C.ar    1  UNL1        0.1005
     12 N           8.8916   78.0366   26.3365 N.ar    1  UNL1       -0.2271
     13 C           8.2241   76.9592   25.8525 C.ar    1  UNL1        0.1417
     14 N           8.3560   76.8072   24.5136 N.ar    1  UNL1       -0.3380
     15 C           9.1536   77.8181   24.1381 C.ar    1  UNL1        0.0891
     16 H           7.9028   76.0939   23.9002 H       1  UNL1        0.1672
     17 C           7.4074   76.0599   26.7062 C.ar    1  UNL1        0.0531
     18 C           6.0170   75.9152   26.4730 C.ar    1  UNL1        0.0720
     19 C           5.2551   75.0624   27.2818 C.ar    1  UNL1        0.0104
     20 C           5.8545   74.3532   28.3213 C.ar    1  UNL1        0.0014
     21 C           7.2197   74.4908   28.5668 C.ar    1  UNL1        0.0104
     22 C           8.0018   75.3384   27.7717 C.ar    1  UNL1        0.0720
     23 C           5.3540   76.5979   25.3863 C.1     1  UNL1        0.1005
     24 N           4.8224   77.1447   24.5157 N.1     1  UNL1       -0.1908
     25 C           9.3988   75.4892   28.1061 C.1     1  UNL1        0.1005
     26 N          10.5181   75.6103   28.3743 N.1     1  UNL1       -0.1908
     27 C          12.7401   83.1838   24.6945 C.1     1  UNL1       -0.0597
     28 C          13.4348   84.1612   24.5704 C.1     1  UNL1       -0.0598
     29 C          14.2623   85.3349   24.4266 C.ar    1  UNL1        0.0459
     30 C          14.3398   86.2313   25.4980 C.ar    1  UNL1        0.0084
     31 C          15.1267   87.3794   25.4067 C.ar    1  UNL1        0.0070
     32 C          15.8576   87.6505   24.2396 C.ar    1  UNL1        0.0754
     33 C          15.7709   86.7564   23.1573 C.ar    1  UNL1        0.0109
     34 C          14.9806   85.5918   23.2353 C.ar    1  UNL1        0.0793
     35 C          16.6942   88.8709   24.1283 C.2     1  UNL1        0.3380
     36 O          16.9576   89.3473   22.9922 O.2     1  UNL1       -0.2451
     37 O          17.2173   89.5076   25.2534 O.3     1  UNL1       -0.4771
     38 H          17.1334   89.1237   26.1856 H       1  UNL1        0.2954
     39 C          14.9055   84.6344   22.0614 C.3     1  UNL1        0.4191
     40 F          15.4454   85.2347   20.9380 F       1  UNL1       -0.1658
     41 F          15.6229   83.4878   22.3513 F       1  UNL1       -0.1658
     42 F          13.6013   84.2693   21.7739 F       1  UNL1       -0.1658
@<TRIPOS>BOND
     1     1     2    1
     2     2     3    1
     3     2     4    1
     4     4     5    1
     5     5     6   ar
     6     6     7   ar
     7     7    27    1
     8    27    28    3
     9    28    29    1
    10    29    30   ar
    11    30    31   ar
    12    31    32   ar
    13    32    35    1
    14    35    36    2
    15    35    37    1
    16    32    33   ar
    17    33    34   ar
    18    34    39    1
    19    39    40    1
    20    39    41    1
    21    39    42    1
    22     7     8   ar
    23     8     9   ar
    24     9    10   ar
    25    10    11    1
    26    11    12   ar
    27    12    13   ar
    28    13    17    1
    29    17    18   ar
    30    18    23    1
    31    23    24    3
    32    18    19   ar
    33    19    20   ar
    34    20    21   ar
    35    21    22   ar
    36    22    25    1
    37    25    26    3
    38    13    14   ar
    39    14    15   ar
    40    15     2    1
    41    10     5   ar
    42    15    11   ar
    43    34    29   ar
    44    22    17   ar
    45    37    38    1
    46    14    16    1
@<TRIPOS>MOLECULE
*****
 42 46 0 0 0
SMALL
GASTEIGER

@<TRIPOS>ATOM
      1 C           8.7325   78.8273   19.9855 C.3     1  UNL1        0.0498
      2 C           8.7070   78.7046   21.5134 C.3     1  UNL1        0.1673
      3 C           7.2699   78.8349   22.0316 C.3     1  UNL1        0.0498
      4 O           9.4919   79.7824   22.0693 O.3     1  UNL1       -0.4770
      5 C          10.4533   79.6418   23.0925 C.ar    1  UNL1        0.1407
      6 C          11.0290   80.7806   23.6652 C.ar    1  UNL1        0.0452
      7 C          11.9902   80.6500   24.6775 C.ar    1  UNL1        0.0450
      8 C          12.3799   79.3760   25.1148 C.ar    1  UNL1        0.0085
      9 C          11.8130   78.2332   24.5420 C.ar    1  UNL1        0.0052
     10 C          10.8519   78.3665   23.5319 C.ar    1  UNL1        0.0529
     11 C          10.2303   77.2182   22.8802 C.ar    1  UNL1        0.1005
     12 N          10.4670   75.9142   23.1161 N.ar    1  UNL1       -0.2271
     13 C           9.6075   75.2893   22.2728 C.ar    1  UNL1        0.1417
     14 N           8.8556   76.1481   21.5446 N.ar    1  UNL1       -0.3380
     15 C           9.2687   77.3648   21.9293 C.ar    1  UNL1        0.0891
     16 H           8.0922   75.9202   20.8696 H       1  UNL1        0.1672
     17 C           9.4867   73.8120   22.1852 C.ar    1  UNL1        0.0531
     18 C          10.6209   72.9855   22.3827 C.ar    1  UNL1        0.0720
     19 C          10.4967   71.5927   22.3008 C.ar    1  UNL1        0.0104
     20 C           9.2619   71.0092   22.0223 C.ar    1  UNL1        0.0014
     21 C           8.1392   71.8097   21.8189 C.ar    1  UNL1        0.0104
     22 C           8.2391   73.2049   21.8950 C.ar    1  UNL1        0.0720
     23 C          11.9149   73.5373   22.7107 C.1     1  UNL1        0.1005
     24 N          12.9519   73.9790   22.9737 N.1     1  UNL1       -0.1908
     25 C           7.0580   73.9888   21.6180 C.1     1  UNL1        0.1005
     26 N           6.1118   74.6173   21.3964 N.1     1  UNL1       -0.1908
     27 C          12.5769   81.8242   25.2661 C.1     1  UNL1       -0.0597
     28 C          13.0624   82.8101   25.7613 C.1     1  UNL1       -0.0598
     29 C          13.6371   83.9928   26.3564 C.ar    1  UNL1        0.0459
     30 C          13.8298   84.0156   27.7421 C.ar    1  UNL1        0.0084
     31 C          14.3822   85.1358   28.3629 C.ar    1  UNL1        0.0070
     32 C          14.7585   86.2562   27.6060 C.ar    1  UNL1        0.0754
     33 C          14.5540   86.2393   26.2145 C.ar    1  UNL1        0.0109
     34 C          13.9977   85.1142   25.5730 C.ar    1  UNL1        0.0793
     35 C          15.3424   87.4557   28.2554 C.2     1  UNL1        0.3380
     36 O          15.0135   87.7510   29.4351 O.2     1  UNL1       -0.2451
     37 O          16.2436   88.2858   27.5894 O.3     1  UNL1       -0.4771
     38 H          16.4720   88.1688   26.6108 H       1  UNL1        0.2954
     39 C          13.7920   85.1102   24.0704 C.3     1  UNL1        0.4191
     40 F          12.4524   85.3043   23.7851 F       1  UNL1       -0.1658
     41 F          14.5294   86.1313   23.4986 F       1  UNL1       -0.1658
     42 F          14.1892   83.9144   23.4968 F       1  UNL1       -0.1658
@<TRIPOS>BOND
     1     1     2    1
     2     2     3    1
     3     2     4    1
     4     4     5    1
     5     5     6   ar
     6     6     7   ar
     7     7    27    1
     8    27    28    3
     9    28    29    1
    10    29    30   ar
    11    30    31   ar
    12    31    32   ar
    13    32    35    1
    14    35    36    2
    15    35    37    1
    16    32    33   ar
    17    33    34   ar
    18    34    39    1
    19    39    40    1
    20    39    41    1
    21    39    42    1
    22     7     8   ar
    23     8     9   ar
    24     9    10   ar
    25    10    11    1
    26    11    12   ar
    27    12    13   ar
    28    13    17    1
    29    17    18   ar
    30    18    23    1
    31    23    24    3
    32    18    19   ar
    33    19    20   ar
    34    20    21   ar
    35    21    22   ar
    36    22    25    1
    37    25    26    3
    38    13    14   ar
    39    14    15   ar
    40    15     2    1
    41    10     5   ar
    42    15    11   ar
    43    34    29   ar
    44    22    17   ar
    45    37    38    1
    46    14    16    1
