@<TRIPOS>MOLECULE
*****
 36 40 0 0 0
SMALL
GASTEIGER

@<TRIPOS>ATOM
      1 C          -9.1960   -6.7814   30.8247 C.ar    1  UNL1        0.1317
      2 C          -9.4796   -5.4763   30.3770 C.ar    1  UNL1        0.0286
      3 C         -10.8031   -5.0968   30.0806 C.ar    1  UNL1        0.0777
      4 C         -11.8423   -6.0237   30.2468 C.ar    1  UNL1        0.2967
      5 N         -11.5267   -7.2661   30.6915 N.ar    1  UNL1       -0.1224
      6 C         -12.3227   -8.3092   30.9664 C.ar    1  UNL1        0.3137
      7 C         -11.5022   -9.3349   31.4260 C.ar    1  UNL1        0.1320
      8 N         -10.2104   -8.9234   31.4323 N.ar    1  UNL1       -0.2941
      9 C         -10.2744   -7.6588   30.9729 C.ar    1  UNL1        0.3123
     10 H          -9.4126   -9.4301   31.7080 H       1  UNL1        0.1718
     11 N          -5.8195   -8.9951   31.5634 N.3     1  UNL1       -0.2647
     12 C          -5.5417   -7.8719   30.6444 C.3     1  UNL1        0.0941
     13 C          -6.8404   -7.2584   30.1002 C.3     1  UNL1        0.1084
     14 N          -7.8567   -7.1810   31.1542 N.pl3   1  UNL1       -0.2988
     15 C          -7.4531   -7.3106   32.5557 C.3     1  UNL1        0.1084
     16 C          -6.5901   -8.5734   32.7646 C.3     1  UNL1        0.0941
     17 C          -6.4459  -10.1387   30.8636 C.3     1  UNL1        0.1199
     18 C          -8.4006  -11.6176   33.4791 C.ar    1  UNL1        0.1165
     19 N          -7.3791  -10.8188   33.1003 N.ar    1  UNL1       -0.2344
     20 C          -7.4423  -10.8263   31.7525 C.ar    1  UNL1        0.0878
     21 C          -8.4895  -11.6314   31.3465 C.ar    1  UNL1        0.0499
     22 C          -8.8606  -11.9927   29.9433 C.3     1  UNL1        0.0511
     23 N          -9.0938  -12.1232   32.4395 N.ar    1  UNL1       -0.3443
     24 H          -9.9155  -12.7669   32.4771 H       1  UNL1        0.1668
     25 C          -9.5342  -13.1708   35.0485 C.3     1  UNL1        0.0084
     26 C          -8.7584  -11.8664   34.9107 C.3     1  UNL1        0.0637
     27 C         -11.9242  -10.6834   31.8730 C.ar    1  UNL1        0.0218
     28 C         -12.1687  -10.9640   33.2257 C.ar    1  UNL1        0.0013
     29 C         -12.5431  -12.2485   33.6314 C.ar    1  UNL1       -0.0042
     30 C         -12.6856  -13.2970   32.6930 C.ar    1  UNL1       -0.0228
     31 C         -12.4428  -12.9975   31.3353 C.ar    1  UNL1       -0.0042
     32 C         -12.0697  -11.7138   30.9335 C.ar    1  UNL1        0.0013
     33 C         -13.0855  -14.7313   33.0964 C.3     1  UNL1        0.0189
     34 C         -12.3602  -15.7443   32.1840 C.3     1  UNL1        0.0044
     35 C         -12.6817  -14.9836   34.5656 C.3     1  UNL1        0.0044
     36 C         -14.6059  -14.9945   32.9752 C.3     1  UNL1        0.0044
@<TRIPOS>BOND
     1    25    26    1
     2    26    18    1
     3    18    19   ar
     4    19    20   ar
     5    20    17    1
     6    17    11    1
     7    11    12    1
     8    12    13    1
     9    13    14    1
    10    14     1    1
    11     1     2   ar
    12     2     3   ar
    13     3     4   ar
    14     4     5   ar
    15     5     6   ar
    16     6     7   ar
    17     7    27    1
    18    27    28   ar
    19    28    29   ar
    20    29    30   ar
    21    30    33    1
    22    33    34    1
    23    33    35    1
    24    33    36    1
    25    30    31   ar
    26    31    32   ar
    27     7     8   ar
    28     8     9   ar
    29    14    15    1
    30    15    16    1
    31    20    21   ar
    32    21    22    1
    33    21    23   ar
    34    23    18   ar
    35    16    11    1
    36     9     1   ar
    37     9     5   ar
    38    32    27   ar
    39    23    24    1
    40     8    10    1
@<TRIPOS>MOLECULE
*****
 36 40 0 0 0
SMALL
GASTEIGER

@<TRIPOS>ATOM
      1 C          -9.0841   -6.3997   30.9756 C.ar    1  UNL1        0.1317
      2 C          -9.4459   -5.1393   30.4608 C.ar    1  UNL1        0.0286
      3 C         -10.7771   -4.8805   30.0809 C.ar    1  UNL1        0.0777
      4 C         -11.7466   -5.8827   30.2305 C.ar    1  UNL1        0.2967
      5 N         -11.3579   -7.0780   30.7413 N.ar    1  UNL1       -0.1224
      6 C         -12.0821   -8.1720   31.0167 C.ar    1  UNL1        0.3137
      7 C         -11.2089   -9.1097   31.5598 C.ar    1  UNL1        0.1320
      8 N          -9.9563   -8.5939   31.6164 N.ar    1  UNL1       -0.2941
      9 C         -10.0956   -7.3564   31.1031 C.ar    1  UNL1        0.3123
     10 H          -9.1370   -9.0232   31.9536 H       1  UNL1        0.1718
     11 N          -5.3166   -7.9951   31.3020 N.3     1  UNL1       -0.2647
     12 C          -5.2777   -6.5191   31.2438 C.3     1  UNL1        0.0941
     13 C          -6.6238   -5.9405   30.7831 C.3     1  UNL1        0.1084
     14 N          -7.7375   -6.6760   31.3902 N.pl3   1  UNL1       -0.2988
     15 C          -7.4880   -7.5322   32.5515 C.3     1  UNL1        0.1084
     16 C          -6.3188   -8.5023   32.2780 C.3     1  UNL1        0.0941
     17 C          -5.4814   -8.5960   29.9596 C.3     1  UNL1        0.1199
     18 C          -8.2051  -10.9250   29.8835 C.ar    1  UNL1        0.1165
     19 N          -7.7047   -9.7100   29.5697 N.ar    1  UNL1       -0.2344
     20 C          -6.4301   -9.7593   30.0095 C.ar    1  UNL1        0.0878
     21 C          -6.1901  -10.9930   30.5841 C.ar    1  UNL1        0.0499
     22 C          -4.9422  -11.4400   31.2770 C.3     1  UNL1        0.0511
     23 N          -7.3111  -11.7260   30.4967 N.ar    1  UNL1       -0.3443
     24 H          -7.4623  -12.7010   30.8394 H       1  UNL1        0.1668
     25 C          -9.7583  -12.8554   29.7365 C.3     1  UNL1        0.0084
     26 C          -9.5948  -11.3543   29.5314 C.3     1  UNL1        0.0637
     27 C         -11.5459  -10.4710   32.0388 C.ar    1  UNL1        0.0218
     28 C         -10.7528  -11.1307   32.9898 C.ar    1  UNL1        0.0013
     29 C         -11.0734  -12.4243   33.4122 C.ar    1  UNL1       -0.0042
     30 C         -12.2019  -13.1017   32.8947 C.ar    1  UNL1       -0.0228
     31 C         -12.9935  -12.4226   31.9438 C.ar    1  UNL1       -0.0042
     32 C         -12.6712  -11.1308   31.5247 C.ar    1  UNL1        0.0013
     33 C         -12.5869  -14.5329   33.3231 C.3     1  UNL1        0.0189
     34 C         -12.0056  -14.8255   34.7235 C.3     1  UNL1        0.0044
     35 C         -14.1254  -14.6591   33.3698 C.3     1  UNL1        0.0044
     36 C         -12.0553  -15.6194   32.3574 C.3     1  UNL1        0.0044
@<TRIPOS>BOND
     1    25    26    1
     2    26    18    1
     3    18    19   ar
     4    19    20   ar
     5    20    17    1
     6    17    11    1
     7    11    12    1
     8    12    13    1
     9    13    14    1
    10    14     1    1
    11     1     2   ar
    12     2     3   ar
    13     3     4   ar
    14     4     5   ar
    15     5     6   ar
    16     6     7   ar
    17     7    27    1
    18    27    28   ar
    19    28    29   ar
    20    29    30   ar
    21    30    33    1
    22    33    34    1
    23    33    35    1
    24    33    36    1
    25    30    31   ar
    26    31    32   ar
    27     7     8   ar
    28     8     9   ar
    29    14    15    1
    30    15    16    1
    31    20    21   ar
    32    21    22    1
    33    21    23   ar
    34    23    18   ar
    35    16    11    1
    36     9     1   ar
    37     9     5   ar
    38    32    27   ar
    39    23    24    1
    40     8    10    1
@<TRIPOS>MOLECULE
*****
 36 40 0 0 0
SMALL
GASTEIGER

@<TRIPOS>ATOM
      1 C          -9.2999   -6.6408   31.0400 C.ar    1  UNL1        0.1317
      2 C          -9.6598   -5.3545   30.5926 C.ar    1  UNL1        0.0286
      3 C         -10.9967   -5.0651   30.2577 C.ar    1  UNL1        0.0777
      4 C         -11.9735   -6.0633   30.3849 C.ar    1  UNL1        0.2967
      5 N         -11.5861   -7.2848   30.8306 N.ar    1  UNL1       -0.1224
      6 C         -12.3156   -8.3830   31.0733 C.ar    1  UNL1        0.3137
      7 C         -11.4401   -9.3535   31.5513 C.ar    1  UNL1        0.1320
      8 N         -10.1809   -8.8534   31.6007 N.ar    1  UNL1       -0.2941
      9 C         -10.3186   -7.5923   31.1483 C.ar    1  UNL1        0.3123
     10 H          -9.3586   -9.3060   31.8977 H       1  UNL1        0.1718
     11 N          -5.9162   -8.5736   32.3292 N.3     1  UNL1       -0.2647
     12 C          -5.6887   -7.8797   31.0446 C.3     1  UNL1        0.0941
     13 C          -7.0137   -7.4528   30.3956 C.3     1  UNL1        0.1084
     14 N          -7.9468   -6.9495   31.4084 N.pl3   1  UNL1       -0.2988
     15 C          -7.4417   -6.5729   32.7301 C.3     1  UNL1        0.1084
     16 C          -6.5874   -7.7071   33.3357 C.3     1  UNL1        0.0941
     17 C          -6.6129   -9.8658   32.1424 C.3     1  UNL1        0.1199
     18 C          -5.4975  -10.7417   28.8504 C.ar    1  UNL1        0.1165
     19 N          -5.2727  -10.1161   30.0265 N.ar    1  UNL1       -0.2344
     20 C          -6.3612  -10.4129   30.7665 C.ar    1  UNL1        0.0878
     21 C          -7.2204  -11.2003   30.0240 C.ar    1  UNL1        0.0499
     22 C          -8.5800  -11.6795   30.4230 C.3     1  UNL1        0.0511
     23 N          -6.6681  -11.4093   28.8186 N.ar    1  UNL1       -0.3443
     24 H          -7.0638  -11.9598   28.0240 H       1  UNL1        0.1668
     25 C          -4.6300   -9.4494   26.9170 C.3     1  UNL1        0.0084
     26 C          -4.5162  -10.7392   27.7205 C.3     1  UNL1        0.0637
     27 C         -11.7807  -10.7320   31.9754 C.ar    1  UNL1        0.0218
     28 C         -12.8157  -11.4532   31.3613 C.ar    1  UNL1        0.0013
     29 C         -13.1381  -12.7439   31.7909 C.ar    1  UNL1       -0.0042
     30 C         -12.4327  -13.3567   32.8526 C.ar    1  UNL1       -0.0228
     31 C         -11.3900  -12.6211   33.4558 C.ar    1  UNL1       -0.0042
     32 C         -11.0701  -11.3328   33.0241 C.ar    1  UNL1        0.0013
     33 C         -12.7612  -14.7735   33.3670 C.3     1  UNL1        0.0189
     34 C         -12.3044  -14.9071   34.8360 C.3     1  UNL1        0.0044
     35 C         -14.2847  -15.0114   33.2801 C.3     1  UNL1        0.0044
     36 C         -12.0640  -15.8912   32.5546 C.3     1  UNL1        0.0044
@<TRIPOS>BOND
     1    25    26    1
     2    26    18    1
     3    18    19   ar
     4    19    20   ar
     5    20    17    1
     6    17    11    1
     7    11    12    1
     8    12    13    1
     9    13    14    1
    10    14     1    1
    11     1     2   ar
    12     2     3   ar
    13     3     4   ar
    14     4     5   ar
    15     5     6   ar
    16     6     7   ar
    17     7    27    1
    18    27    28   ar
    19    28    29   ar
    20    29    30   ar
    21    30    33    1
    22    33    34    1
    23    33    35    1
    24    33    36    1
    25    30    31   ar
    26    31    32   ar
    27     7     8   ar
    28     8     9   ar
    29    14    15    1
    30    15    16    1
    31    20    21   ar
    32    21    22    1
    33    21    23   ar
    34    23    18   ar
    35    16    11    1
    36     9     1   ar
    37     9     5   ar
    38    32    27   ar
    39    23    24    1
    40     8    10    1
@<TRIPOS>MOLECULE
*****
 36 40 0 0 0
SMALL
GASTEIGER

@<TRIPOS>ATOM
      1 C          -8.6248   -8.4695   29.6917 C.ar    1  UNL1        0.1317
      2 C          -8.6701   -7.0883   29.4185 C.ar    1  UNL1        0.0286
      3 C          -9.8545   -6.3578   29.6351 C.ar    1  UNL1        0.0777
      4 C         -10.9884   -7.0117   30.1386 C.ar    1  UNL1        0.2967
      5 N         -10.8981   -8.3401   30.3994 N.ar    1  UNL1       -0.1224
      6 C         -11.8088   -9.1797   30.9120 C.ar    1  UNL1        0.3137
      7 C         -11.1997  -10.4272   31.0100 C.ar    1  UNL1        0.1320
      8 N          -9.9231  -10.3530   30.5593 N.ar    1  UNL1       -0.2941
      9 C          -9.7864   -9.0638   30.1942 C.ar    1  UNL1        0.3123
     10 H          -9.2532  -11.0727   30.5105 H       1  UNL1        0.1718
     11 N          -5.1398  -10.5450   30.3186 N.3     1  UNL1       -0.2647
     12 C          -6.0642  -11.2898   29.4387 C.3     1  UNL1        0.0941
     13 C          -7.4787  -10.6924   29.4776 C.3     1  UNL1        0.1084
     14 N          -7.4206   -9.2274   29.4996 N.pl3   1  UNL1       -0.2988
     15 C          -6.1787   -8.5496   29.1229 C.3     1  UNL1        0.1084
     16 C          -4.9793   -9.1240   29.9069 C.3     1  UNL1        0.0941
     17 C          -5.5065  -10.6813   31.7459 C.3     1  UNL1        0.1199
     18 C          -6.8902   -7.5067   32.6711 C.ar    1  UNL1        0.1165
     19 N          -5.9255   -8.2177   32.0475 N.ar    1  UNL1       -0.2344
     20 C          -6.3137   -9.5004   32.2036 C.ar    1  UNL1        0.0878
     21 C          -7.4940   -9.5386   32.9213 C.ar    1  UNL1        0.0499
     22 C          -8.2240  -10.7546   33.3965 C.3     1  UNL1        0.0511
     23 N          -7.8559   -8.2784   33.2085 N.ar    1  UNL1       -0.3443
     24 H          -8.6968   -7.9637   33.7423 H       1  UNL1        0.1668
     25 C          -6.6803   -5.4384   31.3152 C.3     1  UNL1        0.0084
     26 C          -6.9108   -6.0108   32.7085 C.3     1  UNL1        0.0637
     27 C         -11.8005  -11.6750   31.5375 C.ar    1  UNL1        0.0218
     28 C         -13.1746  -11.7712   31.8042 C.ar    1  UNL1        0.0013
     29 C         -13.7196  -12.9490   32.3240 C.ar    1  UNL1       -0.0042
     30 C         -12.9042  -14.0725   32.5944 C.ar    1  UNL1       -0.0228
     31 C         -11.5252  -13.9627   32.3146 C.ar    1  UNL1       -0.0042
     32 C         -10.9842  -12.7854   31.7950 C.ar    1  UNL1        0.0013
     33 C         -13.4601  -15.3879   33.1782 C.3     1  UNL1        0.0189
     34 C         -12.8741  -16.5856   32.3991 C.3     1  UNL1        0.0044
     35 C         -13.0610  -15.4991   34.6659 C.3     1  UNL1        0.0044
     36 C         -15.0027  -15.4840   33.0970 C.3     1  UNL1        0.0044
@<TRIPOS>BOND
     1    25    26    1
     2    26    18    1
     3    18    19   ar
     4    19    20   ar
     5    20    17    1
     6    17    11    1
     7    11    12    1
     8    12    13    1
     9    13    14    1
    10    14     1    1
    11     1     2   ar
    12     2     3   ar
    13     3     4   ar
    14     4     5   ar
    15     5     6   ar
    16     6     7   ar
    17     7    27    1
    18    27    28   ar
    19    28    29   ar
    20    29    30   ar
    21    30    33    1
    22    33    34    1
    23    33    35    1
    24    33    36    1
    25    30    31   ar
    26    31    32   ar
    27     7     8   ar
    28     8     9   ar
    29    14    15    1
    30    15    16    1
    31    20    21   ar
    32    21    22    1
    33    21    23   ar
    34    23    18   ar
    35    16    11    1
    36     9     1   ar
    37     9     5   ar
    38    32    27   ar
    39    23    24    1
    40     8    10    1
