@<TRIPOS>MOLECULE
*****
 51 57 0 0 0
SMALL
GASTEIGER

@<TRIPOS>ATOM
      1 C          -6.1458  -16.2689   24.5042 C.ar    1  UNL1        0.0360
      2 C          -7.3896  -16.1018   25.1404 C.ar    1  UNL1        0.0043
      3 C          -7.5100  -15.2757   26.2615 C.ar    1  UNL1        0.0148
      4 C          -6.3862  -14.6096   26.7786 C.ar    1  UNL1        0.0516
      5 C          -5.1515  -14.7547   26.1321 C.ar    1  UNL1        0.0148
      6 C          -5.0284  -15.5811   25.0116 C.ar    1  UNL1        0.0043
      7 N          -7.9304  -19.1665   20.9959 N.ar    1  UNL1       -0.2357
      8 N          -7.3621  -19.7476   19.9420 N.ar    1  UNL1       -0.1663
      9 C          -6.0260  -19.5139   19.9932 C.ar    1  UNL1        0.1260
     10 C          -5.7634  -18.7490   21.1127 C.ar    1  UNL1        0.0880
     11 C          -4.6240  -18.1486   21.6388 C.ar    1  UNL1        0.1380
     12 N          -4.7869  -17.3482   22.7355 N.ar    1  UNL1       -0.2117
     13 C          -6.0171  -17.1461   23.3147 C.ar    1  UNL1        0.1653
     14 N          -7.1253  -17.7503   22.7824 N.ar    1  UNL1       -0.2079
     15 C          -6.9689  -18.5445   21.6968 C.ar    1  UNL1        0.1652
     16 C         -13.2152  -18.2073   22.7092 C.2     1  UNL1        0.4050
     17 O         -14.1073  -17.9541   21.8524 O.2     1  UNL1       -0.2262
     18 N         -11.8260  -18.1826   22.3292 N.am    1  UNL1       -0.2459
     19 C         -11.4608  -17.7264   20.9782 C.3     1  UNL1        0.0987
     20 C          -9.9441  -17.7583   20.7583 C.3     1  UNL1        0.0461
     21 C          -9.3751  -19.1029   21.2369 C.3     1  UNL1        0.1102
     22 C          -9.6823  -19.3745   22.7310 C.3     1  UNL1        0.0461
     23 C         -10.7747  -18.4639   23.3189 C.3     1  UNL1        0.0987
     24 C         -14.8988  -18.3157   24.5219 C.3     1  UNL1        0.2573
     25 O         -13.5797  -18.5095   24.0261 O.3     1  UNL1       -0.4304
     26 N          -3.3278  -18.3194   21.0453 N.pl3   1  UNL1       -0.2879
     27 C          -3.0139  -17.6537   19.7782 C.3     1  UNL1        0.1242
     28 C          -1.4973  -17.4856   19.6524 C.3     1  UNL1        0.1636
     29 O          -0.8389  -18.7256   19.8342 O.3     1  UNL1       -0.3501
     30 C          -1.0421  -19.1885   21.1567 C.3     1  UNL1        0.1636
     31 C          -2.5236  -19.4871   21.4099 C.3     1  UNL1        0.1242
     32 N          -6.4885  -13.7355   27.9159 N.am    1  UNL1       -0.2681
     33 C          -7.7274  -13.3621   28.5379 C.2     1  UNL1        0.3082
     34 O          -8.7978  -13.9535   28.2297 O.2     1  UNL1       -0.2522
     35 N          -7.7365  -12.3092   29.5139 N.am    1  UNL1       -0.2681
     36 H          -5.6041  -13.4235   28.3773 H       1  UNL1        0.1564
     37 H          -6.9057  -11.6759   29.5480 H       1  UNL1        0.1564
     38 C          -8.8626  -11.9928   30.3502 C.ar    1  UNL1        0.0516
     39 C         -10.1217  -11.7994   29.7636 C.ar    1  UNL1        0.0144
     40 C         -11.2290  -11.4737   30.5514 C.ar    1  UNL1       -0.0029
     41 C         -11.0885  -11.3130   31.9386 C.ar    1  UNL1       -0.0207
     42 C          -9.8275  -11.4921   32.5267 C.ar    1  UNL1       -0.0029
     43 C          -8.7201  -11.8185   31.7384 C.ar    1  UNL1        0.0144
     44 C         -12.2899  -11.0079   32.7954 C.3     1  UNL1        0.0437
     45 C         -13.3559  -12.1057   32.6736 C.3     1  UNL1        0.0769
     46 N         -12.7823  -13.4421   32.9440 N.3     1  UNL1       -0.2681
     47 C         -12.5626  -13.6335   34.3918 C.3     1  UNL1        0.1046
     48 C         -12.2146  -15.1013   34.7107 C.3     1  UNL1        0.1595
     49 O         -11.8573  -15.8004   33.5357 O.3     1  UNL1       -0.3508
     50 C         -12.9776  -15.8916   32.6723 C.3     1  UNL1        0.1595
     51 C         -13.6421  -14.5208   32.4217 C.3     1  UNL1        0.1046
@<TRIPOS>BOND
     1    24    25    1
     2    25    16    1
     3    16    17    2
     4    16    18   am
     5    18    19    1
     6    19    20    1
     7    20    21    1
     8    21     7    1
     9     7     8   ar
    10     8     9   ar
    11     9    10   ar
    12    10    11   ar
    13    11    26    1
    14    26    27    1
    15    27    28    1
    16    28    29    1
    17    29    30    1
    18    30    31    1
    19    11    12   ar
    20    12    13   ar
    21    13     1    1
    22     1     2   ar
    23     2     3   ar
    24     3     4   ar
    25     4    32    1
    26    32    33   am
    27    33    34    2
    28    33    35   am
    29    35    38    1
    30    38    39   ar
    31    39    40   ar
    32    40    41   ar
    33    41    44    1
    34    44    45    1
    35    45    46    1
    36    46    47    1
    37    47    48    1
    38    48    49    1
    39    49    50    1
    40    50    51    1
    41    41    42   ar
    42    42    43   ar
    43     4     5   ar
    44     5     6   ar
    45    13    14   ar
    46    14    15   ar
    47    21    22    1
    48    22    23    1
    49    23    18    1
    50    15     7   ar
    51    15    10   ar
    52    31    26    1
    53     6     1   ar
    54    43    38   ar
    55    51    46    1
    56    32    36    1
    57    35    37    1
@<TRIPOS>MOLECULE
*****
 51 57 0 0 0
SMALL
GASTEIGER

@<TRIPOS>ATOM
      1 C          -7.3505  -15.5700   25.4936 C.ar    1  UNL1        0.0360
      2 C          -6.0857  -14.9716   25.6411 C.ar    1  UNL1        0.0043
      3 C          -5.7539  -14.2891   26.8149 C.ar    1  UNL1        0.0148
      4 C          -6.6850  -14.1787   27.8612 C.ar    1  UNL1        0.0516
      5 C          -7.9363  -14.7949   27.7269 C.ar    1  UNL1        0.0148
      6 C          -8.2707  -15.4770   26.5537 C.ar    1  UNL1        0.0043
      7 N          -6.2681  -17.9191   21.3465 N.ar    1  UNL1       -0.2357
      8 N          -7.0242  -18.5661   20.4627 N.ar    1  UNL1       -0.1663
      9 C          -8.3255  -18.4037   20.8125 C.ar    1  UNL1        0.1260
     10 C          -8.3721  -17.6397   21.9621 C.ar    1  UNL1        0.0880
     11 C          -9.3892  -17.2171   22.8121 C.ar    1  UNL1        0.1380
     12 N          -9.0203  -16.5532   23.9492 N.ar    1  UNL1       -0.2117
     13 C          -7.7037  -16.2939   24.2478 C.ar    1  UNL1        0.1653
     14 N          -6.7185  -16.7159   23.3947 N.ar    1  UNL1       -0.2079
     15 C          -7.0789  -17.3732   22.2669 C.ar    1  UNL1        0.1652
     16 C          -0.7450  -18.9158   20.8108 C.2     1  UNL1        0.4050
     17 O           0.0278  -17.9670   20.4998 O.2     1  UNL1       -0.2262
     18 N          -2.1707  -18.7523   20.6848 N.am    1  UNL1       -0.2459
     19 C          -2.6992  -17.5271   20.0634 C.3     1  UNL1        0.0987
     20 C          -4.2309  -17.5340   20.0063 C.3     1  UNL1        0.0461
     21 C          -4.8025  -17.9470   21.3715 C.3     1  UNL1        0.1102
     22 C          -4.3000  -19.3411   21.8234 C.3     1  UNL1        0.0461
     23 C          -3.0833  -19.8525   21.0320 C.3     1  UNL1        0.0987
     24 C           1.1861  -20.3600   21.3738 C.3     1  UNL1        0.2573
     25 O          -0.2132  -20.1239   21.2755 O.3     1  UNL1       -0.4304
     26 N         -10.7725  -17.4913   22.5427 N.pl3   1  UNL1       -0.2879
     27 C         -11.5494  -18.3059   23.4809 C.3     1  UNL1        0.1242
     28 C         -13.0378  -17.9818   23.3266 C.3     1  UNL1        0.1636
     29 O         -13.4412  -18.1106   21.9757 O.3     1  UNL1       -0.3501
     30 C         -12.7774  -17.1445   21.1815 C.3     1  UNL1        0.1636
     31 C         -11.2654  -17.3936   21.1676 C.3     1  UNL1        0.1242
     32 N          -6.3596  -13.5028   29.0881 N.am    1  UNL1       -0.2681
     33 C          -6.5493  -12.0971   29.3098 C.2     1  UNL1        0.3082
     34 O          -7.2090  -11.4063   28.4863 O.2     1  UNL1       -0.2522
     35 N          -5.9810  -11.4851   30.4776 N.am    1  UNL1       -0.2681
     36 H          -6.0516  -14.0820   29.9018 H       1  UNL1        0.1564
     37 H          -5.2348  -12.0132   30.9843 H       1  UNL1        0.1564
     38 C          -6.2773  -10.1473   30.9137 C.ar    1  UNL1        0.0516
     39 C          -5.6511   -9.0635   30.2810 C.ar    1  UNL1        0.0144
     40 C          -5.9078   -7.7543   30.6969 C.ar    1  UNL1       -0.0029
     41 C          -6.7787   -7.5101   31.7700 C.ar    1  UNL1       -0.0207
     42 C          -7.3958   -8.5928   32.4141 C.ar    1  UNL1       -0.0029
     43 C          -7.1394   -9.9023   31.9974 C.ar    1  UNL1        0.0144
     44 C          -7.0928   -6.0973   32.1895 C.3     1  UNL1        0.0437
     45 C          -8.1105   -5.4467   31.2422 C.3     1  UNL1        0.0769
     46 N          -9.2589   -6.3445   30.9908 N.3     1  UNL1       -0.2681
     47 C         -10.5351   -5.6364   31.2160 C.3     1  UNL1        0.1046
     48 C         -11.7291   -6.4709   30.7108 C.3     1  UNL1        0.1595
     49 O         -11.3465   -7.8129   30.4878 O.3     1  UNL1       -0.3508
     50 C         -10.4093   -7.8745   29.4263 C.3     1  UNL1        0.1595
     51 C          -9.2290   -6.8993   29.6245 C.3     1  UNL1        0.1046
@<TRIPOS>BOND
     1    24    25    1
     2    25    16    1
     3    16    17    2
     4    16    18   am
     5    18    19    1
     6    19    20    1
     7    20    21    1
     8    21     7    1
     9     7     8   ar
    10     8     9   ar
    11     9    10   ar
    12    10    11   ar
    13    11    26    1
    14    26    27    1
    15    27    28    1
    16    28    29    1
    17    29    30    1
    18    30    31    1
    19    11    12   ar
    20    12    13   ar
    21    13     1    1
    22     1     2   ar
    23     2     3   ar
    24     3     4   ar
    25     4    32    1
    26    32    33   am
    27    33    34    2
    28    33    35   am
    29    35    38    1
    30    38    39   ar
    31    39    40   ar
    32    40    41   ar
    33    41    44    1
    34    44    45    1
    35    45    46    1
    36    46    47    1
    37    47    48    1
    38    48    49    1
    39    49    50    1
    40    50    51    1
    41    41    42   ar
    42    42    43   ar
    43     4     5   ar
    44     5     6   ar
    45    13    14   ar
    46    14    15   ar
    47    21    22    1
    48    22    23    1
    49    23    18    1
    50    15     7   ar
    51    15    10   ar
    52    31    26    1
    53     6     1   ar
    54    43    38   ar
    55    51    46    1
    56    32    36    1
    57    35    37    1
@<TRIPOS>MOLECULE
*****
 51 57 0 0 0
SMALL
GASTEIGER

@<TRIPOS>ATOM
      1 C          -6.1605  -16.1101   24.7163 C.ar    1  UNL1        0.0360
      2 C          -7.4763  -15.9754   25.1963 C.ar    1  UNL1        0.0043
      3 C          -7.7369  -15.2566   26.3664 C.ar    1  UNL1        0.0148
      4 C          -6.6854  -14.6684   27.0891 C.ar    1  UNL1        0.0516
      5 C          -5.3771  -14.7799   26.6001 C.ar    1  UNL1        0.0148
      6 C          -5.1139  -15.4991   25.4309 C.ar    1  UNL1        0.0043
      7 N          -7.4906  -18.6104   20.7329 N.ar    1  UNL1       -0.2357
      8 N          -6.7919  -19.1043   19.7134 N.ar    1  UNL1       -0.1663
      9 C          -5.4722  -18.9138   19.9667 C.ar    1  UNL1        0.1260
     10 C          -5.3541  -18.2664   21.1809 C.ar    1  UNL1        0.0880
     11 C          -4.2887  -17.7505   21.9120 C.ar    1  UNL1        0.1380
     12 N          -4.5883  -17.0538   23.0498 N.ar    1  UNL1       -0.2117
     13 C          -5.8831  -16.8735   23.4749 C.ar    1  UNL1        0.1653
     14 N          -6.9168  -17.3933   22.7416 N.ar    1  UNL1       -0.2079
     15 C          -6.6250  -18.0848   21.6144 C.ar    1  UNL1        0.1652
     16 C         -12.9535  -17.8928   21.9271 C.2     1  UNL1        0.4050
     17 O         -13.7011  -17.3212   21.0854 O.2     1  UNL1       -0.2262
     18 N         -11.5226  -17.8420   21.7688 N.am    1  UNL1       -0.2459
     19 C         -10.9491  -17.0058   20.7018 C.3     1  UNL1        0.0987
     20 C          -9.4176  -17.0679   20.6924 C.3     1  UNL1        0.0461
     21 C          -8.9536  -18.5299   20.7821 C.3     1  UNL1        0.1102
     22 C          -9.4877  -19.2409   22.0508 C.3     1  UNL1        0.0461
     23 C         -10.6382  -18.4931   22.7475 C.3     1  UNL1        0.0987
     24 C         -13.8773  -17.9209   24.2245 C.3     1  UNL1        0.2573
     25 O         -13.5181  -18.5727   23.0121 O.3     1  UNL1       -0.4304
     26 N          -2.9261  -17.9001   21.4847 N.pl3   1  UNL1       -0.2879
     27 C          -2.2084  -19.1468   21.7638 C.3     1  UNL1        0.1242
     28 C          -1.0653  -19.3133   20.7588 C.3     1  UNL1        0.1636
     29 O          -0.2418  -18.1619   20.7413 O.3     1  UNL1       -0.3501
     30 C          -0.9796  -17.0502   20.2676 C.3     1  UNL1        0.1636
     31 C          -2.1228  -16.7036   21.2275 C.3     1  UNL1        0.1242
     32 N          -6.9296  -13.9036   28.2822 N.am    1  UNL1       -0.2681
     33 C          -6.3642  -12.6096   28.5411 C.2     1  UNL1        0.3082
     34 O          -5.7672  -11.9811   27.6251 O.2     1  UNL1       -0.2522
     35 N          -6.4843  -12.0378   29.8526 N.am    1  UNL1       -0.2681
     36 H          -7.6331  -14.2676   28.9642 H       1  UNL1        0.1564
     37 H          -6.7395  -12.6796   30.6371 H       1  UNL1        0.1564
     38 C          -6.1502  -10.6767   30.1740 C.ar    1  UNL1        0.0516
     39 C          -5.7581  -10.3555   31.4817 C.ar    1  UNL1        0.0144
     40 C          -5.4451   -9.0376   31.8250 C.ar    1  UNL1       -0.0029
     41 C          -5.5425   -8.0146   30.8692 C.ar    1  UNL1       -0.0207
     42 C          -5.9479   -8.3303   29.5638 C.ar    1  UNL1       -0.0029
     43 C          -6.2604   -9.6489   29.2205 C.ar    1  UNL1        0.0144
     44 C          -5.1605   -6.6011   31.2251 C.3     1  UNL1        0.0437
     45 C          -6.3880   -5.7790   31.6420 C.3     1  UNL1        0.0769
     46 N          -7.5951   -6.2044   30.9004 N.3     1  UNL1       -0.2681
     47 C          -8.5343   -6.9130   31.7930 C.3     1  UNL1        0.1046
     48 C          -9.8969   -7.1300   31.1048 C.3     1  UNL1        0.1595
     49 O          -9.7962   -6.9177   29.7113 O.3     1  UNL1       -0.3508
     50 C          -9.4927   -5.5574   29.4539 C.3     1  UNL1        0.1595
     51 C          -8.2760   -5.0611   30.2642 C.3     1  UNL1        0.1046
@<TRIPOS>BOND
     1    24    25    1
     2    25    16    1
     3    16    17    2
     4    16    18   am
     5    18    19    1
     6    19    20    1
     7    20    21    1
     8    21     7    1
     9     7     8   ar
    10     8     9   ar
    11     9    10   ar
    12    10    11   ar
    13    11    26    1
    14    26    27    1
    15    27    28    1
    16    28    29    1
    17    29    30    1
    18    30    31    1
    19    11    12   ar
    20    12    13   ar
    21    13     1    1
    22     1     2   ar
    23     2     3   ar
    24     3     4   ar
    25     4    32    1
    26    32    33   am
    27    33    34    2
    28    33    35   am
    29    35    38    1
    30    38    39   ar
    31    39    40   ar
    32    40    41   ar
    33    41    44    1
    34    44    45    1
    35    45    46    1
    36    46    47    1
    37    47    48    1
    38    48    49    1
    39    49    50    1
    40    50    51    1
    41    41    42   ar
    42    42    43   ar
    43     4     5   ar
    44     5     6   ar
    45    13    14   ar
    46    14    15   ar
    47    21    22    1
    48    22    23    1
    49    23    18    1
    50    15     7   ar
    51    15    10   ar
    52    31    26    1
    53     6     1   ar
    54    43    38   ar
    55    51    46    1
    56    32    36    1
    57    35    37    1
@<TRIPOS>MOLECULE
*****
 51 57 0 0 0
SMALL
GASTEIGER

@<TRIPOS>ATOM
      1 C          -8.4182  -12.1478   29.2757 C.ar    1  UNL1        0.0360
      2 C          -7.0268  -12.0733   29.0804 C.ar    1  UNL1        0.0043
      3 C          -6.3427  -13.1067   28.4340 C.ar    1  UNL1        0.0148
      4 C          -7.0334  -14.2432   27.9812 C.ar    1  UNL1        0.0516
      5 C          -8.4226  -14.3088   28.1523 C.ar    1  UNL1        0.0148
      6 C          -9.1088  -13.2772   28.7993 C.ar    1  UNL1        0.0043
      7 N         -11.7833  -10.3908   32.3544 N.ar    1  UNL1       -0.2357
      8 N         -12.0528   -9.1568   32.7739 N.ar    1  UNL1       -0.1663
      9 C         -11.2611   -8.2905   32.0922 C.ar    1  UNL1        0.1260
     10 C         -10.4647   -9.0189   31.2305 C.ar    1  UNL1        0.0880
     11 C          -9.4311   -8.7026   30.3545 C.ar    1  UNL1        0.1380
     12 N          -8.7880   -9.7426   29.7425 N.ar    1  UNL1       -0.2117
     13 C          -9.1450  -11.0517   29.9623 C.ar    1  UNL1        0.1653
     14 N         -10.1682  -11.3403   30.8261 N.ar    1  UNL1       -0.2079
     15 C         -10.8088  -10.3137   31.4340 C.ar    1  UNL1        0.1652
     16 C         -13.3178  -15.6025   33.8603 C.2     1  UNL1        0.4050
     17 O         -13.3662  -15.9038   35.0855 O.2     1  UNL1       -0.2262
     18 N         -12.6727  -14.3834   33.4449 N.am    1  UNL1       -0.2459
     19 C         -11.9575  -13.5744   34.4452 C.3     1  UNL1        0.0987
     20 C         -11.3281  -12.3242   33.8204 C.3     1  UNL1        0.0461
     21 C         -12.3564  -11.6122   32.9279 C.3     1  UNL1        0.1102
     22 C         -12.8970  -12.5307   31.8034 C.3     1  UNL1        0.0461
     23 C         -12.5980  -14.0246   32.0202 C.3     1  UNL1        0.0987
     24 C         -13.1132  -17.2042   31.9829 C.3     1  UNL1        0.2573
     25 O         -13.8901  -16.4555   32.9099 O.3     1  UNL1       -0.4304
     26 N          -9.0171   -7.3480   30.1197 N.pl3   1  UNL1       -0.2879
     27 C          -9.9157   -6.4222   29.4249 C.3     1  UNL1        0.1242
     28 C          -9.5543   -4.9824   29.8002 C.3     1  UNL1        0.1636
     29 O          -8.1790   -4.7355   29.5727 O.3     1  UNL1       -0.3501
     30 C          -7.3968   -5.5405   30.4358 C.3     1  UNL1        0.1636
     31 C          -7.5886   -7.0276   30.1195 C.3     1  UNL1        0.1242
     32 N          -6.3566  -15.3086   27.2922 N.am    1  UNL1       -0.2681
     33 C          -6.1520  -15.3491   25.8717 C.2     1  UNL1        0.3082
     34 O          -6.3901  -14.3319   25.1652 O.2     1  UNL1       -0.2522
     35 N          -5.6739  -16.5584   25.2630 N.am    1  UNL1       -0.2681
     36 H          -5.9045  -16.0561   27.8659 H       1  UNL1        0.1564
     37 H          -5.7421  -17.4391   25.8215 H       1  UNL1        0.1564
     38 C          -5.2335  -16.6559   23.8976 C.ar    1  UNL1        0.0516
     39 C          -3.9381  -16.2362   23.5616 C.ar    1  UNL1        0.0144
     40 C          -3.4911  -16.3036   22.2393 C.ar    1  UNL1       -0.0029
     41 C          -4.3432  -16.7710   21.2267 C.ar    1  UNL1       -0.0207
     42 C          -5.6443  -17.1784   21.5574 C.ar    1  UNL1       -0.0029
     43 C          -6.0909  -17.1114   22.8803 C.ar    1  UNL1        0.0144
     44 C          -3.8477  -16.8884   19.8086 C.3     1  UNL1        0.0437
     45 C          -3.5314  -18.3461   19.4464 C.3     1  UNL1        0.0769
     46 N          -2.1039  -18.6581   19.6768 N.3     1  UNL1       -0.2681
     47 C          -1.2707  -17.4509   19.5047 C.3     1  UNL1        0.1046
     48 C           0.1711  -17.6981   19.9921 C.3     1  UNL1        0.1595
     49 O           0.4192  -19.0804   20.1488 O.3     1  UNL1       -0.3508
     50 C          -0.3903  -19.5981   21.1907 C.3     1  UNL1        0.1595
     51 C          -1.8803  -19.2334   21.0163 C.3     1  UNL1        0.1046
@<TRIPOS>BOND
     1    24    25    1
     2    25    16    1
     3    16    17    2
     4    16    18   am
     5    18    19    1
     6    19    20    1
     7    20    21    1
     8    21     7    1
     9     7     8   ar
    10     8     9   ar
    11     9    10   ar
    12    10    11   ar
    13    11    26    1
    14    26    27    1
    15    27    28    1
    16    28    29    1
    17    29    30    1
    18    30    31    1
    19    11    12   ar
    20    12    13   ar
    21    13     1    1
    22     1     2   ar
    23     2     3   ar
    24     3     4   ar
    25     4    32    1
    26    32    33   am
    27    33    34    2
    28    33    35   am
    29    35    38    1
    30    38    39   ar
    31    39    40   ar
    32    40    41   ar
    33    41    44    1
    34    44    45    1
    35    45    46    1
    36    46    47    1
    37    47    48    1
    38    48    49    1
    39    49    50    1
    40    50    51    1
    41    41    42   ar
    42    42    43   ar
    43     4     5   ar
    44     5     6   ar
    45    13    14   ar
    46    14    15   ar
    47    21    22    1
    48    22    23    1
    49    23    18    1
    50    15     7   ar
    51    15    10   ar
    52    31    26    1
    53     6     1   ar
    54    43    38   ar
    55    51    46    1
    56    32    36    1
    57    35    37    1
@<TRIPOS>MOLECULE
*****
 51 57 0 0 0
SMALL
GASTEIGER

@<TRIPOS>ATOM
      1 C          -6.0896  -16.4011   24.3459 C.ar    1  UNL1        0.0360
      2 C          -7.2974  -16.3167   25.0628 C.ar    1  UNL1        0.0043
      3 C          -7.3947  -15.5105   26.2005 C.ar    1  UNL1        0.0148
      4 C          -6.2821  -14.7818   26.6536 C.ar    1  UNL1        0.0516
      5 C          -5.0854  -14.8447   25.9273 C.ar    1  UNL1        0.0148
      6 C          -4.9854  -15.6510   24.7901 C.ar    1  UNL1        0.0043
      7 N          -7.9476  -19.2268   20.8172 N.ar    1  UNL1       -0.2357
      8 N          -7.4000  -19.7912   19.7434 N.ar    1  UNL1       -0.1663
      9 C          -6.0622  -19.5644   19.7758 C.ar    1  UNL1        0.1260
     10 C          -5.7769  -18.8211   20.9043 C.ar    1  UNL1        0.0880
     11 C          -4.6259  -18.2352   21.4214 C.ar    1  UNL1        0.1380
     12 N          -4.7662  -17.4542   22.5350 N.ar    1  UNL1       -0.2117
     13 C          -5.9854  -17.2572   23.1388 C.ar    1  UNL1        0.1653
     14 N          -7.1054  -17.8467   22.6149 N.ar    1  UNL1       -0.2079
     15 C          -6.9713  -18.6218   21.5126 C.ar    1  UNL1        0.1652
     16 C         -13.2025  -18.2346   22.6018 C.2     1  UNL1        0.4050
     17 O         -14.1122  -18.0121   21.7550 O.2     1  UNL1       -0.2262
     18 N         -11.8210  -18.2165   22.1943 N.am    1  UNL1       -0.2459
     19 C         -11.4840  -17.8018   20.8228 C.3     1  UNL1        0.0987
     20 C          -9.9718  -17.8347   20.5745 C.3     1  UNL1        0.0461
     21 C          -9.3876  -19.1613   21.0841 C.3     1  UNL1        0.1102
     22 C          -9.6647  -19.3868   22.5917 C.3     1  UNL1        0.0461
     23 C         -10.7496  -18.4623   23.1718 C.3     1  UNL1        0.0987
     24 C         -14.8452  -18.2730   24.4545 C.3     1  UNL1        0.2573
     25 O         -13.5402  -18.4965   23.9344 O.3     1  UNL1       -0.4304
     26 N          -3.3409  -18.4009   20.8027 N.pl3   1  UNL1       -0.2879
     27 C          -3.0736  -17.7808   19.5022 C.3     1  UNL1        0.1242
     28 C          -1.5649  -17.5838   19.3314 C.3     1  UNL1        0.1636
     29 O          -0.8732  -18.8002   19.5465 O.3     1  UNL1       -0.3501
     30 C          -1.0332  -19.2130   20.8914 C.3     1  UNL1        0.1636
     31 C          -2.5007  -19.5343   21.1938 C.3     1  UNL1        0.1242
     32 N          -6.3632  -13.9267   27.8068 N.am    1  UNL1       -0.2681
     33 C          -7.5942  -13.4936   28.4054 C.2     1  UNL1        0.3082
     34 O          -8.6888  -14.0143   28.0572 O.2     1  UNL1       -0.2522
     35 N          -7.5676  -12.4622   29.4038 N.am    1  UNL1       -0.2681
     36 H          -5.4746  -13.6770   28.2973 H       1  UNL1        0.1564
     37 H          -6.7023  -11.8800   29.4729 H       1  UNL1        0.1564
     38 C          -8.6950  -12.0971   30.2182 C.ar    1  UNL1        0.0516
     39 C          -8.4974  -11.8090   31.5764 C.ar    1  UNL1        0.0144
     40 C          -9.5783  -11.4689   32.3941 C.ar    1  UNL1       -0.0029
     41 C         -10.8797  -11.4346   31.8698 C.ar    1  UNL1       -0.0207
     42 C         -11.0826  -11.7358   30.5147 C.ar    1  UNL1       -0.0029
     43 C         -10.0009  -12.0755   29.6968 C.ar    1  UNL1        0.0144
     44 C         -12.0400  -11.0226   32.7384 C.3     1  UNL1        0.0437
     45 C         -12.1150   -9.4963   32.8832 C.3     1  UNL1        0.0769
     46 N         -11.6609   -8.8179   31.6496 N.3     1  UNL1       -0.2681
     47 C         -12.4896   -7.6274   31.3725 C.3     1  UNL1        0.1046
     48 C         -11.8720   -6.7710   30.2488 C.3     1  UNL1        0.1595
     49 O         -10.8863   -7.4993   29.5452 O.3     1  UNL1       -0.3508
     50 C          -9.7942   -7.7813   30.4035 C.3     1  UNL1        0.1595
     51 C         -10.2401   -8.4303   31.7314 C.3     1  UNL1        0.1046
@<TRIPOS>BOND
     1    24    25    1
     2    25    16    1
     3    16    17    2
     4    16    18   am
     5    18    19    1
     6    19    20    1
     7    20    21    1
     8    21     7    1
     9     7     8   ar
    10     8     9   ar
    11     9    10   ar
    12    10    11   ar
    13    11    26    1
    14    26    27    1
    15    27    28    1
    16    28    29    1
    17    29    30    1
    18    30    31    1
    19    11    12   ar
    20    12    13   ar
    21    13     1    1
    22     1     2   ar
    23     2     3   ar
    24     3     4   ar
    25     4    32    1
    26    32    33   am
    27    33    34    2
    28    33    35   am
    29    35    38    1
    30    38    39   ar
    31    39    40   ar
    32    40    41   ar
    33    41    44    1
    34    44    45    1
    35    45    46    1
    36    46    47    1
    37    47    48    1
    38    48    49    1
    39    49    50    1
    40    50    51    1
    41    41    42   ar
    42    42    43   ar
    43     4     5   ar
    44     5     6   ar
    45    13    14   ar
    46    14    15   ar
    47    21    22    1
    48    22    23    1
    49    23    18    1
    50    15     7   ar
    51    15    10   ar
    52    31    26    1
    53     6     1   ar
    54    43    38   ar
    55    51    46    1
    56    32    36    1
    57    35    37    1
@<TRIPOS>MOLECULE
*****
 51 57 0 0 0
SMALL
GASTEIGER

@<TRIPOS>ATOM
      1 C          -7.8441  -12.8162   29.1436 C.ar    1  UNL1        0.0360
      2 C          -8.9299  -13.6175   28.7453 C.ar    1  UNL1        0.0043
      3 C          -8.7612  -14.6174   27.7833 C.ar    1  UNL1        0.0148
      4 C          -7.5057  -14.8284   27.1890 C.ar    1  UNL1        0.0516
      5 C          -6.4173  -14.0485   27.6018 C.ar    1  UNL1        0.0148
      6 C          -6.5838  -13.0474   28.5628 C.ar    1  UNL1        0.0043
      7 N          -9.9868  -10.8392   33.0665 N.ar    1  UNL1       -0.2357
      8 N          -9.7137   -9.7490   33.7794 N.ar    1  UNL1       -0.1663
      9 C          -8.7017   -9.0812   33.1695 C.ar    1  UNL1        0.1260
     10 C          -8.3284   -9.7935   32.0467 C.ar    1  UNL1        0.0880
     11 C          -7.3273   -9.6538   31.0907 C.ar    1  UNL1        0.1380
     12 N          -7.1972  -10.6550   30.1685 N.ar    1  UNL1       -0.2117
     13 C          -8.0226  -11.7543   30.1640 C.ar    1  UNL1        0.1653
     14 N          -9.0043  -11.8697   31.1124 N.ar    1  UNL1       -0.2079
     15 C          -9.1376  -10.8803   32.0273 C.ar    1  UNL1        0.1652
     16 C         -13.1047  -15.4627   33.8951 C.2     1  UNL1        0.4050
     17 O         -13.3843  -15.8176   35.0741 O.2     1  UNL1       -0.2262
     18 N         -12.0955  -14.4606   33.6663 N.am    1  UNL1       -0.2459
     19 C         -11.3070  -13.9647   34.8060 C.3     1  UNL1        0.0987
     20 C         -10.2786  -12.9144   34.3714 C.3     1  UNL1        0.0461
     21 C         -10.9474  -11.8750   33.4586 C.3     1  UNL1        0.1102
     22 C         -11.5857  -12.5182   32.2020 C.3     1  UNL1        0.0461
     23 C         -11.7505  -14.0453   32.2980 C.3     1  UNL1        0.0987
     24 C         -13.1825  -17.0397   31.9874 C.3     1  UNL1        0.2573
     25 O         -13.7758  -16.0458   32.8143 O.3     1  UNL1       -0.4304
     26 N          -6.4330   -8.5306   31.0805 N.pl3   1  UNL1       -0.2879
     27 C          -6.3814   -7.6518   29.9091 C.3     1  UNL1        0.1242
     28 C          -5.8552   -6.2758   30.3264 C.3     1  UNL1        0.1636
     29 O          -4.6237   -6.3978   31.0140 O.3     1  UNL1       -0.3501
     30 C          -4.8196   -7.0936   32.2314 C.3     1  UNL1        0.1636
     31 C          -5.2709   -8.5347   31.9710 C.3     1  UNL1        0.1242
     32 N          -7.3006  -15.8663   26.2149 N.am    1  UNL1       -0.2681
     33 C          -6.4806  -15.7242   25.0449 C.2     1  UNL1        0.3082
     34 O          -5.7260  -14.7222   24.9145 O.2     1  UNL1       -0.2522
     35 N          -6.5279  -16.7334   24.0248 N.am    1  UNL1       -0.2681
     36 H          -7.6970  -16.8127   26.4138 H       1  UNL1        0.1564
     37 H          -7.3383  -17.3932   24.0362 H       1  UNL1        0.1564
     38 C          -5.6092  -16.8099   22.9213 C.ar    1  UNL1        0.0516
     39 C          -4.2638  -17.1206   23.1671 C.ar    1  UNL1        0.0144
     40 C          -3.3465  -17.1839   22.1148 C.ar    1  UNL1       -0.0029
     41 C          -3.7571  -16.9137   20.8002 C.ar    1  UNL1       -0.0207
     42 C          -5.0993  -16.5888   20.5527 C.ar    1  UNL1       -0.0029
     43 C          -6.0168  -16.5262   21.6056 C.ar    1  UNL1        0.0144
     44 C          -2.7800  -17.0272   19.6587 C.3     1  UNL1        0.0437
     45 C          -2.4454  -18.4940   19.3539 C.3     1  UNL1        0.0769
     46 N          -1.0724  -18.8319   19.7885 N.3     1  UNL1       -0.2681
     47 C          -0.2431  -17.6146   19.8946 C.3     1  UNL1        0.1046
     48 C           1.0992  -17.9168   20.5904 C.3     1  UNL1        0.1595
     49 O           1.3412  -19.3084   20.6342 O.3     1  UNL1       -0.3508
     50 C           0.3758  -19.9374   21.4596 C.3     1  UNL1        0.1595
     51 C          -1.0691  -19.5531   21.0751 C.3     1  UNL1        0.1046
@<TRIPOS>BOND
     1    24    25    1
     2    25    16    1
     3    16    17    2
     4    16    18   am
     5    18    19    1
     6    19    20    1
     7    20    21    1
     8    21     7    1
     9     7     8   ar
    10     8     9   ar
    11     9    10   ar
    12    10    11   ar
    13    11    26    1
    14    26    27    1
    15    27    28    1
    16    28    29    1
    17    29    30    1
    18    30    31    1
    19    11    12   ar
    20    12    13   ar
    21    13     1    1
    22     1     2   ar
    23     2     3   ar
    24     3     4   ar
    25     4    32    1
    26    32    33   am
    27    33    34    2
    28    33    35   am
    29    35    38    1
    30    38    39   ar
    31    39    40   ar
    32    40    41   ar
    33    41    44    1
    34    44    45    1
    35    45    46    1
    36    46    47    1
    37    47    48    1
    38    48    49    1
    39    49    50    1
    40    50    51    1
    41    41    42   ar
    42    42    43   ar
    43     4     5   ar
    44     5     6   ar
    45    13    14   ar
    46    14    15   ar
    47    21    22    1
    48    22    23    1
    49    23    18    1
    50    15     7   ar
    51    15    10   ar
    52    31    26    1
    53     6     1   ar
    54    43    38   ar
    55    51    46    1
    56    32    36    1
    57    35    37    1
@<TRIPOS>MOLECULE
*****
 51 57 0 0 0
SMALL
GASTEIGER

@<TRIPOS>ATOM
      1 C          -8.8763  -12.9479   29.6923 C.ar    1  UNL1        0.0360
      2 C          -9.0763  -14.0464   28.8361 C.ar    1  UNL1        0.0043
      3 C          -8.1005  -14.4081   27.9029 C.ar    1  UNL1        0.0148
      4 C          -6.9095  -13.6705   27.7966 C.ar    1  UNL1        0.0516
      5 C          -6.6971  -12.5914   28.6649 C.ar    1  UNL1        0.0148
      6 C          -7.6718  -12.2272   29.5981 C.ar    1  UNL1        0.0043
      7 N         -11.4386   -9.7051   32.3014 N.ar    1  UNL1       -0.2357
      8 N         -12.4802   -9.8393   33.1190 N.ar    1  UNL1       -0.1663
      9 C         -12.7411  -11.1632   33.2660 C.ar    1  UNL1        0.1260
     10 C         -11.8352  -11.8701   32.4998 C.ar    1  UNL1        0.0880
     11 C         -11.6557  -13.2156   32.1948 C.ar    1  UNL1        0.1380
     12 N         -10.6905  -13.5269   31.2776 N.ar    1  UNL1       -0.2117
     13 C          -9.9118  -12.5630   30.6825 C.ar    1  UNL1        0.1653
     14 N         -10.1031  -11.2443   31.0003 N.ar    1  UNL1       -0.2079
     15 C         -11.0572  -10.9311   31.9088 C.ar    1  UNL1        0.1652
     16 C          -9.0296   -5.3817   29.6016 C.2     1  UNL1        0.4050
     17 O          -9.7018   -4.3351   29.3852 O.2     1  UNL1       -0.2262
     18 N          -9.6924   -6.5849   30.0351 N.am    1  UNL1       -0.2459
     19 C         -11.1631   -6.6140   30.0864 C.3     1  UNL1        0.0987
     20 C         -11.6885   -7.9742   30.5590 C.3     1  UNL1        0.0461
     21 C         -10.9205   -8.4241   31.8115 C.3     1  UNL1        0.1102
     22 C          -9.3944   -8.5220   31.5635 C.3     1  UNL1        0.0461
     23 C          -8.9242   -7.8153   30.2799 C.3     1  UNL1        0.0987
     24 C          -6.7305   -5.0771   30.4697 C.3     1  UNL1        0.2573
     25 O          -7.6424   -5.3692   29.4176 O.3     1  UNL1       -0.4304
     26 N         -12.4667  -14.2458   32.7799 N.pl3   1  UNL1       -0.2879
     27 C         -12.3441  -14.5452   34.2091 C.3     1  UNL1        0.1242
     28 C         -13.6368  -15.1979   34.7063 C.3     1  UNL1        0.1636
     29 O         -13.9729  -16.3167   33.9066 O.3     1  UNL1       -0.3501
     30 C         -14.2663  -15.8941   32.5875 C.3     1  UNL1        0.1636
     31 C         -13.0274  -15.2888   31.9191 C.3     1  UNL1        0.1242
     32 N          -5.8800  -14.0366   26.8616 N.am    1  UNL1       -0.2681
     33 C          -6.0754  -14.9309   25.7556 C.2     1  UNL1        0.3082
     34 O          -7.2380  -15.2941   25.4285 O.2     1  UNL1       -0.2522
     35 N          -4.9350  -15.4082   25.0255 N.am    1  UNL1       -0.2681
     36 H          -4.9559  -13.5538   26.9338 H       1  UNL1        0.1564
     37 H          -3.9972  -15.3070   25.4757 H       1  UNL1        0.1564
     38 C          -5.0147  -16.1289   23.7838 C.ar    1  UNL1        0.0516
     39 C          -4.3852  -17.3771   23.6718 C.ar    1  UNL1        0.0144
     40 C          -4.4322  -18.0903   22.4710 C.ar    1  UNL1       -0.0029
     41 C          -5.0912  -17.5537   21.3541 C.ar    1  UNL1       -0.0207
     42 C          -5.7100  -16.2990   21.4586 C.ar    1  UNL1       -0.0029
     43 C          -5.6633  -15.5861   22.6602 C.ar    1  UNL1        0.0144
     44 C          -5.1830  -18.3416   20.0729 C.3     1  UNL1        0.0437
     45 C          -6.1848  -19.4978   20.1990 C.3     1  UNL1        0.0769
     46 N          -7.5665  -18.9947   20.3604 N.3     1  UNL1       -0.2681
     47 C          -8.4557  -19.5696   19.3311 C.3     1  UNL1        0.1046
     48 C          -9.9345  -19.2633   19.6418 C.3     1  UNL1        0.1595
     49 O         -10.0437  -18.2412   20.6116 O.3     1  UNL1       -0.3508
     50 C          -9.5185  -18.6945   21.8475 C.3     1  UNL1        0.1595
     51 C          -8.1007  -19.2883   21.7035 C.3     1  UNL1        0.1046
@<TRIPOS>BOND
     1    24    25    1
     2    25    16    1
     3    16    17    2
     4    16    18   am
     5    18    19    1
     6    19    20    1
     7    20    21    1
     8    21     7    1
     9     7     8   ar
    10     8     9   ar
    11     9    10   ar
    12    10    11   ar
    13    11    26    1
    14    26    27    1
    15    27    28    1
    16    28    29    1
    17    29    30    1
    18    30    31    1
    19    11    12   ar
    20    12    13   ar
    21    13     1    1
    22     1     2   ar
    23     2     3   ar
    24     3     4   ar
    25     4    32    1
    26    32    33   am
    27    33    34    2
    28    33    35   am
    29    35    38    1
    30    38    39   ar
    31    39    40   ar
    32    40    41   ar
    33    41    44    1
    34    44    45    1
    35    45    46    1
    36    46    47    1
    37    47    48    1
    38    48    49    1
    39    49    50    1
    40    50    51    1
    41    41    42   ar
    42    42    43   ar
    43     4     5   ar
    44     5     6   ar
    45    13    14   ar
    46    14    15   ar
    47    21    22    1
    48    22    23    1
    49    23    18    1
    50    15     7   ar
    51    15    10   ar
    52    31    26    1
    53     6     1   ar
    54    43    38   ar
    55    51    46    1
    56    32    36    1
    57    35    37    1
