@<TRIPOS>MOLECULE
*****
 35 39 0 0 0
SMALL
GASTEIGER

@<TRIPOS>ATOM
      1 N         -24.8936   -8.8680  -13.0945 N.3     1  UNL1       -0.2679
      2 C         -23.8690   -7.7806  -13.1302 C.3     1  UNL1        0.0978
      3 C         -23.1235   -7.5981  -11.7727 C.3     1  UNL1        0.0224
      4 C         -21.7823   -6.8860  -11.9424 C.3     1  UNL1        0.0065
      5 C         -20.8775   -7.6892  -12.8740 C.3     1  UNL1        0.0277
      6 C         -21.5410   -7.9073  -14.2059 C.ar    1  UNL1       -0.0073
      7 C         -20.7569   -8.0939  -15.3531 C.ar    1  UNL1       -0.0015
      8 C         -21.3650   -8.2823  -16.5936 C.ar    1  UNL1        0.0203
      9 C         -22.7562   -8.2833  -16.6782 C.ar    1  UNL1        0.0985
     10 N         -23.5053   -8.1238  -15.5564 N.ar    1  UNL1       -0.2471
     11 C         -22.9474   -7.9684  -14.3234 C.ar    1  UNL1        0.0695
     12 C         -24.5962   -9.9200  -12.0822 C.3     1  UNL1        0.0886
     13 C         -23.2644  -15.2411  -15.7385 C.ar    1  UNL1       -0.0003
     14 C         -24.6399  -15.0127  -15.8097 C.ar    1  UNL1       -0.0003
     15 C         -25.2017  -13.9106  -15.1605 C.ar    1  UNL1       -0.0045
     16 C         -24.3909  -13.0322  -14.4250 C.ar    1  UNL1       -0.0234
     17 C         -22.9948  -13.2470  -14.3768 C.ar    1  UNL1       -0.0103
     18 C         -22.4447  -14.3655  -15.0218 C.ar    1  UNL1       -0.0032
     19 C         -22.0981  -12.3477  -13.5533 C.3     1  UNL1        0.0953
     20 N         -22.7202  -11.0479  -13.2605 N.3     1  UNL1       -0.2934
     21 C         -24.0732  -11.2294  -12.7136 C.3     1  UNL1        0.0748
     22 C         -25.0042  -11.8114  -13.7909 C.3     1  UNL1        0.0432
     23 H         -22.7799  -10.5085  -14.1569 H       1  UNL1        0.1236
     24 C         -26.2770   -8.3435  -12.9551 C.3     1  UNL1        0.0725
     25 C         -26.4229   -6.9107  -13.4974 C.3     1  UNL1        0.0188
     26 C         -27.8434   -6.6121  -14.0039 C.3     1  UNL1        0.0185
     27 C         -27.8873   -5.3279  -14.8369 C.3     1  UNL1        0.0686
     28 N         -29.0939   -4.5516  -14.5147 N.3     1  UNL1       -0.2984
     29 H         -29.3404   -4.7765  -13.5217 H       1  UNL1        0.1232
     30 C         -30.2238   -4.9014  -15.4012 C.3     1  UNL1        0.0590
     31 C         -30.1009   -4.1506  -16.7411 C.3     1  UNL1        0.0478
     32 C         -30.3749   -2.6526  -16.5446 C.3     1  UNL1        0.1435
     33 O         -31.6637   -2.4413  -15.9984 O.3     1  UNL1       -0.3537
     34 C         -31.7380   -3.0008  -14.7002 C.3     1  UNL1        0.1435
     35 C         -31.5715   -4.5262  -14.7517 C.3     1  UNL1        0.0478
@<TRIPOS>BOND
     1    13    14   ar
     2    14    15   ar
     3    15    16   ar
     4    16    17   ar
     5    17    18   ar
     6    17    19    1
     7    19    20    1
     8    20    21    1
     9    21    12    1
    10    12     1    1
    11     1    24    1
    12    24    25    1
    13    25    26    1
    14    26    27    1
    15    27    28    1
    16    28    30    1
    17    30    31    1
    18    31    32    1
    19    32    33    1
    20    33    34    1
    21    34    35    1
    22     1     2    1
    23     2     3    1
    24     3     4    1
    25     4     5    1
    26     5     6    1
    27     6     7   ar
    28     7     8   ar
    29     8     9   ar
    30     9    10   ar
    31    10    11   ar
    32    21    22    1
    33    18    13   ar
    34    35    30    1
    35    11     2    1
    36    22    16    1
    37    11     6   ar
    38    20    23    1
    39    28    29    1
@<TRIPOS>MOLECULE
*****
 35 39 0 0 0
SMALL
GASTEIGER

@<TRIPOS>ATOM
      1 N         -22.0426  -10.9732  -13.0541 N.3     1  UNL1       -0.2679
      2 C         -21.6855  -11.2413  -14.4803 C.3     1  UNL1        0.0978
      3 C         -22.3143  -12.5578  -15.0309 C.3     1  UNL1        0.0224
      4 C         -22.3849  -12.5689  -16.5573 C.3     1  UNL1        0.0065
      5 C         -23.2323  -11.3983  -17.0505 C.3     1  UNL1        0.0277
      6 C         -22.6819  -10.0917  -16.5486 C.ar    1  UNL1       -0.0073
      7 C         -22.9078   -8.9148  -17.2762 C.ar    1  UNL1       -0.0015
      8 C         -22.3884   -7.7020  -16.8247 C.ar    1  UNL1        0.0203
      9 C         -21.6456   -7.6749  -15.6457 C.ar    1  UNL1        0.0985
     10 N         -21.4524   -8.8179  -14.9378 N.ar    1  UNL1       -0.2471
     11 C         -21.9702  -10.0150  -15.3308 C.ar    1  UNL1        0.0695
     12 C         -23.5068  -11.0559  -12.7914 C.3     1  UNL1        0.0886
     13 C         -26.7443   -5.3239  -12.4434 C.ar    1  UNL1       -0.0003
     14 C         -26.3255   -5.4935  -13.7645 C.ar    1  UNL1       -0.0003
     15 C         -25.6482   -6.6559  -14.1412 C.ar    1  UNL1       -0.0045
     16 C         -25.3754   -7.6554  -13.1944 C.ar    1  UNL1       -0.0234
     17 C         -25.8245   -7.4969  -11.8637 C.ar    1  UNL1       -0.0103
     18 C         -26.4917   -6.3184  -11.4950 C.ar    1  UNL1       -0.0032
     19 C         -25.5050   -8.5323  -10.8071 C.3     1  UNL1        0.0953
     20 N         -25.1567   -9.8385  -11.3858 N.3     1  UNL1       -0.2934
     21 C         -24.1290   -9.6895  -12.4271 C.3     1  UNL1        0.0748
     22 C         -24.7068   -8.9314  -13.6343 C.3     1  UNL1        0.0432
     23 H         -26.0234  -10.2449  -11.8121 H       1  UNL1        0.1236
     24 C         -21.2637  -11.8097  -12.1044 C.3     1  UNL1        0.0725
     25 C         -21.0727  -11.1293  -10.7373 C.3     1  UNL1        0.0188
     26 C         -19.7618  -10.3309  -10.6522 C.3     1  UNL1        0.0185
     27 C         -19.9671   -8.9809   -9.9590 C.3     1  UNL1        0.0686
     28 N         -20.2707   -7.9388  -10.9511 N.3     1  UNL1       -0.2984
     29 H         -19.7131   -7.0942  -10.6809 H       1  UNL1        0.1232
     30 C         -21.7098   -7.6020  -10.9695 C.3     1  UNL1        0.0590
     31 C         -21.9790   -6.4728  -11.9828 C.3     1  UNL1        0.0478
     32 C         -21.4044   -5.1439  -11.4714 C.3     1  UNL1        0.1435
     33 O         -21.9640   -4.7998  -10.2174 O.3     1  UNL1       -0.3537
     34 C         -21.5953   -5.7578   -9.2426 C.3     1  UNL1        0.1435
     35 C         -22.1851   -7.1349   -9.5785 C.3     1  UNL1        0.0478
@<TRIPOS>BOND
     1    13    14   ar
     2    14    15   ar
     3    15    16   ar
     4    16    17   ar
     5    17    18   ar
     6    17    19    1
     7    19    20    1
     8    20    21    1
     9    21    12    1
    10    12     1    1
    11     1    24    1
    12    24    25    1
    13    25    26    1
    14    26    27    1
    15    27    28    1
    16    28    30    1
    17    30    31    1
    18    31    32    1
    19    32    33    1
    20    33    34    1
    21    34    35    1
    22     1     2    1
    23     2     3    1
    24     3     4    1
    25     4     5    1
    26     5     6    1
    27     6     7   ar
    28     7     8   ar
    29     8     9   ar
    30     9    10   ar
    31    10    11   ar
    32    21    22    1
    33    18    13   ar
    34    35    30    1
    35    11     2    1
    36    22    16    1
    37    11     6   ar
    38    20    23    1
    39    28    29    1
@<TRIPOS>MOLECULE
*****
 35 39 0 0 0
SMALL
GASTEIGER

@<TRIPOS>ATOM
      1 N         -22.7262   -9.0412  -13.3304 N.3     1  UNL1       -0.2679
      2 C         -23.3568   -7.7093  -13.5792 C.3     1  UNL1        0.0978
      3 C         -24.9152   -7.7644  -13.5970 C.3     1  UNL1        0.0224
      4 C         -25.5437   -6.3959  -13.3382 C.3     1  UNL1        0.0065
      5 C         -25.1051   -5.8681  -11.9741 C.3     1  UNL1        0.0277
      6 C         -23.6054   -5.7946  -11.8867 C.ar    1  UNL1       -0.0073
      7 C         -23.0020   -4.8666  -11.0263 C.ar    1  UNL1       -0.0015
      8 C         -21.6122   -4.7828  -10.9507 C.ar    1  UNL1        0.0203
      9 C         -20.8340   -5.6301  -11.7375 C.ar    1  UNL1        0.0985
     10 N         -21.4301   -6.5404  -12.5506 N.ar    1  UNL1       -0.2471
     11 C         -22.7837   -6.6727  -12.6278 C.ar    1  UNL1        0.0695
     12 C         -23.1142   -9.6376  -12.0213 C.3     1  UNL1        0.0886
     13 C         -17.5647  -11.9848   -9.3472 C.ar    1  UNL1       -0.0003
     14 C         -18.1388  -13.0115  -10.0994 C.ar    1  UNL1       -0.0003
     15 C         -19.3118  -12.7793  -10.8218 C.ar    1  UNL1       -0.0045
     16 C         -19.9262  -11.5178  -10.7890 C.ar    1  UNL1       -0.0234
     17 C         -19.3297  -10.4705  -10.0509 C.ar    1  UNL1       -0.0103
     18 C         -18.1589  -10.7205   -9.3185 C.ar    1  UNL1       -0.0032
     19 C         -19.9914   -9.1127   -9.9547 C.3     1  UNL1        0.0953
     20 N         -20.9611   -8.8809  -11.0355 N.3     1  UNL1       -0.2934
     21 C         -21.8960  -10.0107  -11.1475 C.3     1  UNL1        0.0748
     22 C         -21.1505  -11.2667  -11.6297 C.3     1  UNL1        0.0432
     23 H         -20.4286   -8.7836  -11.9327 H       1  UNL1        0.1236
     24 C         -22.9378   -9.9909  -14.4536 C.3     1  UNL1        0.0725
     25 C         -22.1186   -9.6203  -15.7027 C.3     1  UNL1        0.0188
     26 C         -21.7903  -10.8408  -16.5780 C.3     1  UNL1        0.0185
     27 C         -21.5671  -12.0980  -15.7326 C.3     1  UNL1        0.0686
     28 N         -22.4681  -13.1743  -16.1708 N.3     1  UNL1       -0.2984
     29 H         -23.3274  -12.7114  -16.5511 H       1  UNL1        0.1232
     30 C         -22.8360  -14.0700  -15.0541 C.3     1  UNL1        0.0590
     31 C         -23.4775  -15.3615  -15.5973 C.3     1  UNL1        0.0478
     32 C         -24.8717  -15.0689  -16.1701 C.3     1  UNL1        0.1435
     33 O         -25.7139  -14.4983  -15.1856 O.3     1  UNL1       -0.3537
     34 C         -25.2091  -13.2370  -14.7876 C.3     1  UNL1        0.1435
     35 C         -23.8415  -13.3855  -14.1058 C.3     1  UNL1        0.0478
@<TRIPOS>BOND
     1    13    14   ar
     2    14    15   ar
     3    15    16   ar
     4    16    17   ar
     5    17    18   ar
     6    17    19    1
     7    19    20    1
     8    20    21    1
     9    21    12    1
    10    12     1    1
    11     1    24    1
    12    24    25    1
    13    25    26    1
    14    26    27    1
    15    27    28    1
    16    28    30    1
    17    30    31    1
    18    31    32    1
    19    32    33    1
    20    33    34    1
    21    34    35    1
    22     1     2    1
    23     2     3    1
    24     3     4    1
    25     4     5    1
    26     5     6    1
    27     6     7   ar
    28     7     8   ar
    29     8     9   ar
    30     9    10   ar
    31    10    11   ar
    32    21    22    1
    33    18    13   ar
    34    35    30    1
    35    11     2    1
    36    22    16    1
    37    11     6   ar
    38    20    23    1
    39    28    29    1
@<TRIPOS>MOLECULE
*****
 35 39 0 0 0
SMALL
GASTEIGER

@<TRIPOS>ATOM
      1 N         -22.1716  -11.2566  -15.2593 N.3     1  UNL1       -0.2679
      2 C         -22.7203  -12.4692  -15.9392 C.3     1  UNL1        0.0978
      3 C         -21.6758  -13.6191  -16.0752 C.3     1  UNL1        0.0224
      4 C         -22.3397  -14.9798  -16.2820 C.3     1  UNL1        0.0065
      5 C         -23.2480  -15.3042  -15.0983 C.3     1  UNL1        0.0277
      6 C         -24.2805  -14.2275  -14.9064 C.ar    1  UNL1       -0.0073
      7 C         -25.5082  -14.5382  -14.3049 C.ar    1  UNL1       -0.0015
      8 C         -26.4758  -13.5484  -14.1368 C.ar    1  UNL1        0.0203
      9 C         -26.2078  -12.2517  -14.5719 C.ar    1  UNL1        0.0985
     10 N         -25.0061  -11.9579  -15.1329 N.ar    1  UNL1       -0.2471
     11 C         -24.0252  -12.8908  -15.2853 C.ar    1  UNL1        0.0695
     12 C         -21.3179  -11.5811  -14.0822 C.3     1  UNL1        0.0886
     13 C         -23.4909   -9.0239   -8.4080 C.ar    1  UNL1       -0.0003
     14 C         -22.1392   -8.6957   -8.5295 C.ar    1  UNL1       -0.0003
     15 C         -21.4263   -9.0732   -9.6701 C.ar    1  UNL1       -0.0045
     16 C         -22.0593   -9.7924  -10.6957 C.ar    1  UNL1       -0.0234
     17 C         -23.4345  -10.0996  -10.5859 C.ar    1  UNL1       -0.0103
     18 C         -24.1360   -9.7267   -9.4289 C.ar    1  UNL1       -0.0032
     19 C         -24.1360  -10.9155  -11.6503 C.3     1  UNL1        0.0953
     20 N         -23.4162  -10.9062  -12.9326 N.3     1  UNL1       -0.2934
     21 C         -21.9987  -11.2454  -12.7366 C.3     1  UNL1        0.0748
     22 C         -21.2930  -10.1291  -11.9480 C.3     1  UNL1        0.0432
     23 H         -23.4874   -9.9420  -13.3366 H       1  UNL1        0.1236
     24 C         -21.4846  -10.3362  -16.2021 C.3     1  UNL1        0.0725
     25 C         -21.5730   -8.8644  -15.7609 C.3     1  UNL1        0.0188
     26 C         -23.0220   -8.3572  -15.6811 C.3     1  UNL1        0.0185
     27 C         -23.3556   -7.8186  -14.2869 C.3     1  UNL1        0.0686
     28 N         -24.6992   -8.2553  -13.8792 N.3     1  UNL1       -0.2984
     29 H         -25.3208   -8.1357  -14.7139 H       1  UNL1        0.1232
     30 C         -25.2178   -7.4528  -12.7515 C.3     1  UNL1        0.0590
     31 C         -26.5760   -8.0095  -12.2827 C.3     1  UNL1        0.0478
     32 C         -27.6631   -7.7255  -13.3293 C.3     1  UNL1        0.1435
     33 O         -27.7787   -6.3361  -13.5747 O.3     1  UNL1       -0.3537
     34 C         -26.5813   -5.8435  -14.1471 C.3     1  UNL1        0.1435
     35 C         -25.4092   -5.9792  -13.1647 C.3     1  UNL1        0.0478
@<TRIPOS>BOND
     1    13    14   ar
     2    14    15   ar
     3    15    16   ar
     4    16    17   ar
     5    17    18   ar
     6    17    19    1
     7    19    20    1
     8    20    21    1
     9    21    12    1
    10    12     1    1
    11     1    24    1
    12    24    25    1
    13    25    26    1
    14    26    27    1
    15    27    28    1
    16    28    30    1
    17    30    31    1
    18    31    32    1
    19    32    33    1
    20    33    34    1
    21    34    35    1
    22     1     2    1
    23     2     3    1
    24     3     4    1
    25     4     5    1
    26     5     6    1
    27     6     7   ar
    28     7     8   ar
    29     8     9   ar
    30     9    10   ar
    31    10    11   ar
    32    21    22    1
    33    18    13   ar
    34    35    30    1
    35    11     2    1
    36    22    16    1
    37    11     6   ar
    38    20    23    1
    39    28    29    1
@<TRIPOS>MOLECULE
*****
 35 39 0 0 0
SMALL
GASTEIGER

@<TRIPOS>ATOM
      1 N         -23.2659   -7.6013  -12.8003 N.3     1  UNL1       -0.2679
      2 C         -24.5429   -6.8721  -12.5331 C.3     1  UNL1        0.0978
      3 C         -25.3121   -6.4893  -13.8346 C.3     1  UNL1        0.0224
      4 C         -26.7942   -6.2258  -13.5722 C.3     1  UNL1        0.0065
      5 C         -27.4512   -7.4726  -12.9844 C.3     1  UNL1        0.0277
      6 C         -26.7515   -7.9014  -11.7240 C.ar    1  UNL1       -0.0073
      7 C         -27.4560   -8.6144  -10.7437 C.ar    1  UNL1       -0.0015
      8 C         -26.8178   -9.0027   -9.5664 C.ar    1  UNL1        0.0203
      9 C         -25.4763   -8.6749   -9.3776 C.ar    1  UNL1        0.0985
     10 N         -24.7984   -8.0034  -10.3443 N.ar    1  UNL1       -0.2471
     11 C         -25.3794   -7.6349  -11.5200 C.ar    1  UNL1        0.0695
     12 C         -23.2090   -8.2031  -14.1620 C.3     1  UNL1        0.0886
     13 C         -24.5329  -14.6436  -14.6368 C.ar    1  UNL1       -0.0003
     14 C         -25.7296  -13.9863  -14.3446 C.ar    1  UNL1       -0.0003
     15 C         -25.7552  -12.5939  -14.2329 C.ar    1  UNL1       -0.0045
     16 C         -24.5787  -11.8477  -14.4030 C.ar    1  UNL1       -0.0234
     17 C         -23.3732  -12.5104  -14.7272 C.ar    1  UNL1       -0.0103
     18 C         -23.3581  -13.9105  -14.8230 C.ar    1  UNL1       -0.0032
     19 C         -22.0775  -11.7412  -14.8693 C.3     1  UNL1        0.0953
     20 N         -22.2973  -10.3088  -15.1186 N.3     1  UNL1       -0.2934
     21 C         -23.2376   -9.7476  -14.1369 C.3     1  UNL1        0.0748
     22 C         -24.6397  -10.3437  -14.3484 C.3     1  UNL1        0.0432
     23 H         -22.7005  -10.2059  -16.0803 H       1  UNL1        0.1236
     24 C         -22.0658   -6.7736  -12.5122 C.3     1  UNL1        0.0725
     25 C         -22.3819   -5.5693  -11.6077 C.3     1  UNL1        0.0188
     26 C         -21.3782   -5.4174  -10.4532 C.3     1  UNL1        0.0185
     27 C         -21.6001   -6.4763   -9.3694 C.3     1  UNL1        0.0686
     28 N         -22.0353   -7.7434   -9.9755 N.3     1  UNL1       -0.2984
     29 H         -23.0821   -7.7190  -10.0054 H       1  UNL1        0.1232
     30 C         -21.5855   -8.9107   -9.1882 C.3     1  UNL1        0.0590
     31 C         -20.0541   -8.8804   -9.0196 C.3     1  UNL1        0.0478
     32 C         -19.3605   -9.1815  -10.3560 C.3     1  UNL1        0.1435
     33 O         -19.7578  -10.4435  -10.8594 O.3     1  UNL1       -0.3537
     34 C         -21.1414  -10.4324  -11.1589 C.3     1  UNL1        0.1435
     35 C         -21.9750  -10.2301   -9.8856 C.3     1  UNL1        0.0478
@<TRIPOS>BOND
     1    13    14   ar
     2    14    15   ar
     3    15    16   ar
     4    16    17   ar
     5    17    18   ar
     6    17    19    1
     7    19    20    1
     8    20    21    1
     9    21    12    1
    10    12     1    1
    11     1    24    1
    12    24    25    1
    13    25    26    1
    14    26    27    1
    15    27    28    1
    16    28    30    1
    17    30    31    1
    18    31    32    1
    19    32    33    1
    20    33    34    1
    21    34    35    1
    22     1     2    1
    23     2     3    1
    24     3     4    1
    25     4     5    1
    26     5     6    1
    27     6     7   ar
    28     7     8   ar
    29     8     9   ar
    30     9    10   ar
    31    10    11   ar
    32    21    22    1
    33    18    13   ar
    34    35    30    1
    35    11     2    1
    36    22    16    1
    37    11     6   ar
    38    20    23    1
    39    28    29    1
@<TRIPOS>MOLECULE
*****
 35 39 0 0 0
SMALL
GASTEIGER

@<TRIPOS>ATOM
      1 N         -24.4491   -9.7551  -12.7589 N.3     1  UNL1       -0.2679
      2 C         -24.7502   -8.3860  -13.2771 C.3     1  UNL1        0.0978
      3 C         -26.2439   -7.9773  -13.0928 C.3     1  UNL1        0.0224
      4 C         -26.4368   -6.4621  -13.1357 C.3     1  UNL1        0.0065
      5 C         -25.6251   -5.7996  -12.0249 C.3     1  UNL1        0.0277
      6 C         -24.1691   -6.1583  -12.1405 C.ar    1  UNL1       -0.0073
      7 C         -23.1941   -5.2850  -11.6381 C.ar    1  UNL1       -0.0015
      8 C         -21.8417   -5.6041  -11.7546 C.ar    1  UNL1        0.0203
      9 C         -21.4733   -6.7972  -12.3738 C.ar    1  UNL1        0.0985
     10 N         -22.4277   -7.6456  -12.8366 N.ar    1  UNL1       -0.2471
     11 C         -23.7586   -7.3827  -12.7130 C.ar    1  UNL1        0.0695
     12 C         -24.7955   -9.9259  -11.3199 C.3     1  UNL1        0.0886
     13 C         -18.8745   -9.3701   -8.4755 C.ar    1  UNL1       -0.0003
     14 C         -18.7554  -10.2834   -9.5249 C.ar    1  UNL1       -0.0003
     15 C         -19.8558  -10.5625  -10.3392 C.ar    1  UNL1       -0.0045
     16 C         -21.0893   -9.9361  -10.1028 C.ar    1  UNL1       -0.0234
     17 C         -21.2024   -8.9902   -9.0587 C.ar    1  UNL1       -0.0103
     18 C         -20.0932   -8.7289   -8.2394 C.ar    1  UNL1       -0.0032
     19 C         -22.5294   -8.3330   -8.7458 C.3     1  UNL1        0.0953
     20 N         -23.4701   -8.3985   -9.8740 N.3     1  UNL1       -0.2934
     21 C         -23.5738   -9.7730  -10.3867 C.3     1  UNL1        0.0748
     22 C         -22.2442  -10.1965  -11.0338 C.3     1  UNL1        0.0432
     23 H         -23.1087   -7.7735  -10.6334 H       1  UNL1        0.1236
     24 C         -25.0429  -10.8265  -13.6002 C.3     1  UNL1        0.0725
     25 C         -24.3244  -12.1769  -13.4310 C.3     1  UNL1        0.0188
     26 C         -23.2204  -12.3946  -14.4786 C.3     1  UNL1        0.0185
     27 C         -21.9603  -11.5904  -14.1460 C.3     1  UNL1        0.0686
     28 N         -22.0840  -10.2154  -14.6524 N.3     1  UNL1       -0.2984
     29 H         -23.0397   -9.8806  -14.3842 H       1  UNL1        0.1232
     30 C         -21.9281  -10.1560  -16.1211 C.3     1  UNL1        0.0590
     31 C         -20.5812   -9.5028  -16.4870 C.3     1  UNL1        0.0478
     32 C         -20.6069   -8.0019  -16.1643 C.3     1  UNL1        0.1435
     33 O         -21.6543   -7.3523  -16.8608 O.3     1  UNL1       -0.3537
     34 C         -22.9070   -7.8433  -16.4205 C.3     1  UNL1        0.1435
     35 C         -23.0623   -9.3317  -16.7636 C.3     1  UNL1        0.0478
@<TRIPOS>BOND
     1    13    14   ar
     2    14    15   ar
     3    15    16   ar
     4    16    17   ar
     5    17    18   ar
     6    17    19    1
     7    19    20    1
     8    20    21    1
     9    21    12    1
    10    12     1    1
    11     1    24    1
    12    24    25    1
    13    25    26    1
    14    26    27    1
    15    27    28    1
    16    28    30    1
    17    30    31    1
    18    31    32    1
    19    32    33    1
    20    33    34    1
    21    34    35    1
    22     1     2    1
    23     2     3    1
    24     3     4    1
    25     4     5    1
    26     5     6    1
    27     6     7   ar
    28     7     8   ar
    29     8     9   ar
    30     9    10   ar
    31    10    11   ar
    32    21    22    1
    33    18    13   ar
    34    35    30    1
    35    11     2    1
    36    22    16    1
    37    11     6   ar
    38    20    23    1
    39    28    29    1
@<TRIPOS>MOLECULE
*****
 35 39 0 0 0
SMALL
GASTEIGER

@<TRIPOS>ATOM
      1 N         -22.2169   -9.2552  -10.6604 N.3     1  UNL1       -0.2679
      2 C         -22.6234   -7.8768  -10.2498 C.3     1  UNL1        0.0978
      3 C         -21.4323   -6.8706  -10.2234 C.3     1  UNL1        0.0224
      4 C         -21.9015   -5.4191  -10.3125 C.3     1  UNL1        0.0065
      5 C         -22.6775   -5.1987  -11.6090 C.3     1  UNL1        0.0277
      6 C         -23.8424   -6.1453  -11.7018 C.ar    1  UNL1       -0.0073
      7 C         -24.9718   -5.7894  -12.4525 C.ar    1  UNL1       -0.0015
      8 C         -26.0615   -6.6558  -12.5313 C.ar    1  UNL1        0.0203
      9 C         -26.0136   -7.8750  -11.8578 C.ar    1  UNL1        0.0985
     10 N         -24.9049   -8.2185  -11.1521 N.ar    1  UNL1       -0.2471
     11 C         -23.8095   -7.4122  -11.0777 C.ar    1  UNL1        0.0695
     12 C         -21.7819   -9.3382  -12.0830 C.3     1  UNL1        0.0886
     13 C         -24.1231  -14.6950  -15.1295 C.ar    1  UNL1       -0.0003
     14 C         -22.7307  -14.7274  -15.2276 C.ar    1  UNL1       -0.0003
     15 C         -21.9623  -13.7289  -14.6240 C.ar    1  UNL1       -0.0045
     16 C         -22.5832  -12.6825  -13.9245 C.ar    1  UNL1       -0.0234
     17 C         -23.9910  -12.6652  -13.8006 C.ar    1  UNL1       -0.0103
     18 C         -24.7522  -13.6665  -14.4233 C.ar    1  UNL1       -0.0032
     19 C         -24.6952  -11.5261  -13.0954 C.3     1  UNL1        0.0953
     20 N         -23.8016  -10.7835  -12.1941 N.3     1  UNL1       -0.2934
     21 C         -22.5625  -10.4010  -12.8879 C.3     1  UNL1        0.0748
     22 C         -21.7359  -11.6546  -13.2214 C.3     1  UNL1        0.0432
     23 H         -23.5658  -11.4073  -11.3859 H       1  UNL1        0.1236
     24 C         -21.2132   -9.8512   -9.7409 C.3     1  UNL1        0.0725
     25 C         -19.8496  -10.0738  -10.4189 C.3     1  UNL1        0.0188
     26 C         -18.6766   -9.9926   -9.4285 C.3     1  UNL1        0.0185
     27 C         -19.0738   -9.2635   -8.1417 C.3     1  UNL1        0.0686
     28 N         -18.0336   -9.4344   -7.1165 N.3     1  UNL1       -0.2984
     29 H         -17.7088  -10.4283   -7.1799 H       1  UNL1        0.1232
     30 C         -18.5522   -9.1642   -5.7590 C.3     1  UNL1        0.0590
     31 C         -18.5016   -7.6532   -5.4613 C.3     1  UNL1        0.0478
     32 C         -17.0487   -7.1887   -5.2851 C.3     1  UNL1        0.1435
     33 O         -16.4132   -7.9002   -4.2391 O.3     1  UNL1       -0.3537
     34 C         -16.3213   -9.2730   -4.5725 C.3     1  UNL1        0.1435
     35 C         -17.7169   -9.9014   -4.6923 C.3     1  UNL1        0.0478
@<TRIPOS>BOND
     1    13    14   ar
     2    14    15   ar
     3    15    16   ar
     4    16    17   ar
     5    17    18   ar
     6    17    19    1
     7    19    20    1
     8    20    21    1
     9    21    12    1
    10    12     1    1
    11     1    24    1
    12    24    25    1
    13    25    26    1
    14    26    27    1
    15    27    28    1
    16    28    30    1
    17    30    31    1
    18    31    32    1
    19    32    33    1
    20    33    34    1
    21    34    35    1
    22     1     2    1
    23     2     3    1
    24     3     4    1
    25     4     5    1
    26     5     6    1
    27     6     7   ar
    28     7     8   ar
    29     8     9   ar
    30     9    10   ar
    31    10    11   ar
    32    21    22    1
    33    18    13   ar
    34    35    30    1
    35    11     2    1
    36    22    16    1
    37    11     6   ar
    38    20    23    1
    39    28    29    1
@<TRIPOS>MOLECULE
*****
 35 39 0 0 0
SMALL
GASTEIGER

@<TRIPOS>ATOM
      1 N         -21.7622   -9.8414  -11.3779 N.3     1  UNL1       -0.2679
      2 C         -22.5049   -8.6180  -10.9473 C.3     1  UNL1        0.0978
      3 C         -22.6131   -7.5416  -12.0706 C.3     1  UNL1        0.0224
      4 C         -23.7615   -6.5642  -11.8240 C.3     1  UNL1        0.0065
      5 C         -25.0874   -7.3192  -11.7637 C.3     1  UNL1        0.0277
      6 C         -25.0495   -8.3814  -10.6996 C.ar    1  UNL1       -0.0073
      7 C         -26.2398   -8.7957  -10.0855 C.ar    1  UNL1       -0.0015
      8 C         -26.2107   -9.7696   -9.0880 C.ar    1  UNL1        0.0203
      9 C         -24.9887  -10.3238   -8.7113 C.ar    1  UNL1        0.0985
     10 N         -23.8447   -9.9305   -9.3292 N.ar    1  UNL1       -0.2471
     11 C         -23.8374   -9.0049  -10.3287 C.ar    1  UNL1        0.0695
     12 C         -21.6096   -9.9439  -12.8564 C.3     1  UNL1        0.0886
     13 C         -25.0893  -14.9006  -15.4603 C.ar    1  UNL1       -0.0003
     14 C         -25.9544  -14.1507  -14.6612 C.ar    1  UNL1       -0.0003
     15 C         -25.4926  -13.0007  -14.0161 C.ar    1  UNL1       -0.0045
     16 C         -24.1559  -12.5971  -14.1579 C.ar    1  UNL1       -0.0234
     17 C         -23.2876  -13.3397  -14.9898 C.ar    1  UNL1       -0.0103
     18 C         -23.7602  -14.5007  -15.6213 C.ar    1  UNL1       -0.0032
     19 C         -21.8288  -12.9604  -15.1261 C.3     1  UNL1        0.0953
     20 N         -21.5715  -11.5648  -14.7409 N.3     1  UNL1       -0.2934
     21 C         -22.1599  -11.2705  -13.4257 C.3     1  UNL1        0.0748
     22 C         -23.6950  -11.3168  -13.5120 C.3     1  UNL1        0.0432
     23 H         -22.0105  -10.9439  -15.4619 H       1  UNL1        0.1236
     24 C         -20.4608   -9.9945  -10.6769 C.3     1  UNL1        0.0725
     25 C         -20.0629   -8.7345   -9.8881 C.3     1  UNL1        0.0188
     26 C         -19.3630   -9.0649   -8.5598 C.3     1  UNL1        0.0185
     27 C         -19.7060   -8.0435   -7.4717 C.3     1  UNL1        0.0686
     28 N         -18.4926   -7.6502   -6.7402 N.3     1  UNL1       -0.2984
     29 H         -17.7270   -8.2890   -7.0614 H       1  UNL1        0.1232
     30 C         -18.6684   -7.7773   -5.2781 C.3     1  UNL1        0.0590
     31 C         -17.5124   -7.0747   -4.5402 C.3     1  UNL1        0.0478
     32 C         -16.2054   -7.8610   -4.7173 C.3     1  UNL1        0.1435
     33 O         -16.3418   -9.1847   -4.2344 O.3     1  UNL1       -0.3537
     34 C         -17.2990   -9.8862   -5.0064 C.3     1  UNL1        0.1435
     35 C         -18.6920   -9.2594   -4.8518 C.3     1  UNL1        0.0478
@<TRIPOS>BOND
     1    13    14   ar
     2    14    15   ar
     3    15    16   ar
     4    16    17   ar
     5    17    18   ar
     6    17    19    1
     7    19    20    1
     8    20    21    1
     9    21    12    1
    10    12     1    1
    11     1    24    1
    12    24    25    1
    13    25    26    1
    14    26    27    1
    15    27    28    1
    16    28    30    1
    17    30    31    1
    18    31    32    1
    19    32    33    1
    20    33    34    1
    21    34    35    1
    22     1     2    1
    23     2     3    1
    24     3     4    1
    25     4     5    1
    26     5     6    1
    27     6     7   ar
    28     7     8   ar
    29     8     9   ar
    30     9    10   ar
    31    10    11   ar
    32    21    22    1
    33    18    13   ar
    34    35    30    1
    35    11     2    1
    36    22    16    1
    37    11     6   ar
    38    20    23    1
    39    28    29    1
@<TRIPOS>MOLECULE
*****
 35 39 0 0 0
SMALL
GASTEIGER

@<TRIPOS>ATOM
      1 N         -23.2810   -9.4934  -13.3848 N.3     1  UNL1       -0.2679
      2 C         -21.8701   -9.4146  -12.8982 C.3     1  UNL1        0.0978
      3 C         -21.6835   -8.4040  -11.7253 C.3     1  UNL1        0.0224
      4 C         -20.4201   -8.6886  -10.9143 C.3     1  UNL1        0.0065
      5 C         -20.4846  -10.0941  -10.3211 C.3     1  UNL1        0.0277
      6 C         -20.6703  -11.1224  -11.4028 C.ar    1  UNL1       -0.0073
      7 C         -20.2104  -12.4321  -11.2059 C.ar    1  UNL1       -0.0015
      8 C         -20.3662  -13.3871  -12.2099 C.ar    1  UNL1        0.0203
      9 C         -20.9828  -13.0248  -13.4062 C.ar    1  UNL1        0.0985
     10 N         -21.4443  -11.7587  -13.5766 N.ar    1  UNL1       -0.2471
     11 C         -21.3380  -10.8075  -12.6072 C.ar    1  UNL1        0.0695
     12 C         -24.2564   -8.8508  -12.4598 C.3     1  UNL1        0.0886
     13 C         -29.1126   -5.0599  -14.8056 C.ar    1  UNL1       -0.0003
     14 C         -29.6087   -6.3600  -14.6916 C.ar    1  UNL1       -0.0003
     15 C         -28.8018   -7.3747  -14.1710 C.ar    1  UNL1       -0.0045
     16 C         -27.4859   -7.0976  -13.7690 C.ar    1  UNL1       -0.0234
     17 C         -26.9932   -5.7759  -13.8574 C.ar    1  UNL1       -0.0103
     18 C         -27.8093   -4.7684  -14.3950 C.ar    1  UNL1       -0.0032
     19 C         -25.5641   -5.4522  -13.4785 C.3     1  UNL1        0.0953
     20 N         -24.9683   -6.4733  -12.6042 N.3     1  UNL1       -0.2934
     21 C         -25.1626   -7.8182  -13.1665 C.3     1  UNL1        0.0748
     22 C         -26.6554   -8.1885  -13.1453 C.3     1  UNL1        0.0432
     23 H         -25.4427   -6.4175  -11.6716 H       1  UNL1        0.1236
     24 C         -23.4323   -8.9975  -14.7775 C.3     1  UNL1        0.0725
     25 C         -22.0884   -8.9084  -15.5221 C.3     1  UNL1        0.0188
     26 C         -21.8313  -10.1253  -16.4256 C.3     1  UNL1        0.0185
     27 C         -23.1327  -10.8505  -16.7795 C.3     1  UNL1        0.0686
     28 N         -23.2409  -12.1047  -16.0196 N.3     1  UNL1       -0.2984
     29 H         -22.5638  -12.7775  -16.4510 H       1  UNL1        0.1232
     30 C         -24.6075  -12.6650  -16.0781 C.3     1  UNL1        0.0590
     31 C         -25.4309  -12.1867  -14.8666 C.3     1  UNL1        0.0478
     32 C         -24.9280  -12.8538  -13.5783 C.3     1  UNL1        0.1435
     33 O         -25.0029  -14.2641  -13.6762 O.3     1  UNL1       -0.3537
     34 C         -24.1322  -14.7265  -14.6921 C.3     1  UNL1        0.1435
     35 C         -24.5726  -14.2070  -16.0681 C.3     1  UNL1        0.0478
@<TRIPOS>BOND
     1    13    14   ar
     2    14    15   ar
     3    15    16   ar
     4    16    17   ar
     5    17    18   ar
     6    17    19    1
     7    19    20    1
     8    20    21    1
     9    21    12    1
    10    12     1    1
    11     1    24    1
    12    24    25    1
    13    25    26    1
    14    26    27    1
    15    27    28    1
    16    28    30    1
    17    30    31    1
    18    31    32    1
    19    32    33    1
    20    33    34    1
    21    34    35    1
    22     1     2    1
    23     2     3    1
    24     3     4    1
    25     4     5    1
    26     5     6    1
    27     6     7   ar
    28     7     8   ar
    29     8     9   ar
    30     9    10   ar
    31    10    11   ar
    32    21    22    1
    33    18    13   ar
    34    35    30    1
    35    11     2    1
    36    22    16    1
    37    11     6   ar
    38    20    23    1
    39    28    29    1
