@<TRIPOS>MOLECULE
*****
 40 44 0 0 0
SMALL
GASTEIGER

@<TRIPOS>ATOM
      1 C         -25.9046   51.3327  -12.2009 C.3     1  UNL1        0.1332
      2 N         -25.2790   51.2333  -10.8821 N.ar    1  UNL1       -0.2977
      3 C         -24.0368   51.6475  -10.4986 C.ar    1  UNL1        0.2018
      4 N         -23.7397   51.3637   -9.2044 N.ar    1  UNL1       -0.2135
      5 C         -24.8638   50.7779   -8.7578 C.ar    1  UNL1        0.0999
      6 C         -25.1199   50.3181   -7.4594 C.ar    1  UNL1        0.0282
      7 C         -26.4015   49.7840   -7.1732 C.ar    1  UNL1        0.0888
      8 C         -27.3453   49.7180   -8.2273 C.ar    1  UNL1        0.1401
      9 C         -27.0608   50.1639   -9.4978 C.ar    1  UNL1        0.0327
     10 C         -25.7979   50.7053   -9.7569 C.ar    1  UNL1        0.0789
     11 C         -28.2371   49.9538  -10.3864 C.3     1  UNL1        0.0709
     12 C         -29.2995   49.3486   -9.4112 C.3     1  UNL1        0.1375
     13 C         -30.4944   50.2954   -9.2348 C.3     1  UNL1        0.0439
     14 C         -29.7758   47.9681   -9.8823 C.3     1  UNL1        0.0439
     15 O         -28.6262   49.2109   -8.1589 O.3     1  UNL1       -0.4824
     16 C         -26.7148   49.3017   -5.8117 C.2     1  UNL1        0.2525
     17 O         -26.4199   50.0303   -4.8257 O.2     1  UNL1       -0.2697
     18 N         -27.3452   48.0239   -5.6071 N.am    1  UNL1       -0.2803
     19 H         -27.5507   47.4245   -6.4366 H       1  UNL1        0.1552
     20 C         -27.6444   47.4735   -4.3137 C.ar    1  UNL1        0.0510
     21 C         -26.8873   46.4208   -3.7728 C.ar    1  UNL1        0.0214
     22 C         -27.1735   45.9310   -2.4957 C.ar    1  UNL1        0.0357
     23 BR        -26.1262   44.5114   -1.7629 Br      1  UNL1       -0.0490
     24 C         -28.2120   46.4901   -1.7460 C.ar    1  UNL1        0.0106
     25 C         -28.9816   47.5421   -2.2711 C.ar    1  UNL1        0.0731
     26 C         -28.6681   48.0475   -3.5452 C.ar    1  UNL1        0.0186
     27 C         -30.0614   48.1874   -1.4392 C.3     1  UNL1        0.4186
     28 F         -30.6104   49.2694   -2.1056 F       1  UNL1       -0.1659
     29 F         -29.5171   48.6225   -0.2455 F       1  UNL1       -0.1659
     30 F         -31.0766   47.2858   -1.1700 F       1  UNL1       -0.1659
     31 N         -23.1120   52.3468  -11.3442 N.pl3   1  UNL1       -0.2814
     32 H         -23.3731   52.4678  -12.3485 H       1  UNL1        0.1551
     33 C         -21.8317   52.8394  -10.9162 C.ar    1  UNL1        0.0889
     34 C         -20.7469   51.9480  -10.8617 C.ar    1  UNL1        0.1543
     35 F         -20.9105   50.6503  -11.2223 F       1  UNL1       -0.2028
     36 C         -19.4841   52.3940  -10.4631 C.ar    1  UNL1        0.0310
     37 C         -19.2948   53.7278  -10.0996 C.ar    1  UNL1        0.0033
     38 C         -20.3705   54.6174  -10.1205 C.ar    1  UNL1        0.0128
     39 C         -21.6415   54.1834  -10.5175 C.ar    1  UNL1        0.0733
     40 CL        -22.9712   55.3331  -10.4259 Cl      1  UNL1       -0.0809
@<TRIPOS>BOND
     1     1     2    1
     2     2     3   ar
     3     3    31    1
     4    31    33    1
     5    33    34   ar
     6    34    35    1
     7    34    36   ar
     8    36    37   ar
     9    37    38   ar
    10    38    39   ar
    11    39    40    1
    12     3     4   ar
    13     4     5   ar
    14     5     6   ar
    15     6     7   ar
    16     7    16    1
    17    16    17    2
    18    16    18   am
    19    18    20    1
    20    20    21   ar
    21    21    22   ar
    22    22    23    1
    23    22    24   ar
    24    24    25   ar
    25    25    27    1
    26    27    28    1
    27    27    29    1
    28    27    30    1
    29    25    26   ar
    30     7     8   ar
    31     8     9   ar
    32     9    10   ar
    33     9    11    1
    34    11    12    1
    35    12    13    1
    36    12    14    1
    37    12    15    1
    38    10     2   ar
    39    39    33   ar
    40    10     5   ar
    41    26    20   ar
    42    15     8    1
    43    31    32    1
    44    18    19    1
@<TRIPOS>MOLECULE
*****
 40 44 0 0 0
SMALL
GASTEIGER

@<TRIPOS>ATOM
      1 C         -25.6553   51.2406  -12.3473 C.3     1  UNL1        0.1332
      2 N         -25.1524   51.2144  -10.9736 N.ar    1  UNL1       -0.2977
      3 C         -23.9189   51.5744  -10.5144 C.ar    1  UNL1        0.2018
      4 N         -23.7543   51.3853   -9.1799 N.ar    1  UNL1       -0.2135
      5 C         -24.9534   50.9194   -8.7905 C.ar    1  UNL1        0.0999
      6 C         -25.3520   50.5939   -7.4876 C.ar    1  UNL1        0.0282
      7 C         -26.6901   50.1762   -7.2758 C.ar    1  UNL1        0.0888
      8 C         -27.5440   50.0830   -8.4020 C.ar    1  UNL1        0.1401
      9 C         -27.1205   50.3952   -9.6737 C.ar    1  UNL1        0.0327
     10 C         -25.8028   50.8239   -9.8607 C.ar    1  UNL1        0.0789
     11 C         -28.2304   50.1893  -10.6448 C.3     1  UNL1        0.0709
     12 C         -29.4141   49.7462   -9.7237 C.3     1  UNL1        0.1375
     13 C         -30.5442   50.7846   -9.7334 C.3     1  UNL1        0.0439
     14 C         -29.9526   48.3657  -10.1220 C.3     1  UNL1        0.0439
     15 O         -28.8610   49.6730   -8.4086 O.3     1  UNL1       -0.4824
     16 C         -27.1527   49.8376   -5.9136 C.2     1  UNL1        0.2525
     17 O         -26.5723   50.3646   -4.9259 O.2     1  UNL1       -0.2697
     18 N         -28.2457   48.9233   -5.7100 N.am    1  UNL1       -0.2803
     19 H         -28.6895   48.4751   -6.5415 H       1  UNL1        0.1552
     20 C         -28.7241   48.5182   -4.4167 C.ar    1  UNL1        0.0510
     21 C         -29.7262   49.2403   -3.7474 C.ar    1  UNL1        0.0214
     22 C         -30.2024   48.8019   -2.5089 C.ar    1  UNL1        0.0357
     23 BR        -31.5779   49.7817   -1.6159 Br      1  UNL1       -0.0490
     24 C         -29.6880   47.6378   -1.9312 C.ar    1  UNL1        0.0106
     25 C         -28.6839   46.9036   -2.5847 C.ar    1  UNL1        0.0731
     26 C         -28.2311   47.3365   -3.8435 C.ar    1  UNL1        0.0186
     27 C         -28.1724   45.6144   -1.9922 C.3     1  UNL1        0.4186
     28 F         -28.6065   44.5296   -2.7345 F       1  UNL1       -0.1659
     29 F         -28.6412   45.4911   -0.6978 F       1  UNL1       -0.1659
     30 F         -26.7884   45.5992   -1.9741 F       1  UNL1       -0.1659
     31 N         -22.8757   52.1317  -11.3271 N.pl3   1  UNL1       -0.2814
     32 H         -22.9971   52.0896  -12.3638 H       1  UNL1        0.1551
     33 C         -21.6555   52.6901  -10.8131 C.ar    1  UNL1        0.0889
     34 C         -20.5338   51.8549  -10.6755 C.ar    1  UNL1        0.1543
     35 F         -20.6060   50.5492  -11.0374 F       1  UNL1       -0.2028
     36 C         -19.3266   52.3657  -10.1918 C.ar    1  UNL1        0.0310
     37 C         -19.2308   53.7087   -9.8255 C.ar    1  UNL1        0.0033
     38 C         -20.3457   54.5427   -9.9290 C.ar    1  UNL1        0.0128
     39 C         -21.5618   54.0435  -10.4117 C.ar    1  UNL1        0.0733
     40 CL        -22.9507   55.1247  -10.4229 Cl      1  UNL1       -0.0809
@<TRIPOS>BOND
     1     1     2    1
     2     2     3   ar
     3     3    31    1
     4    31    33    1
     5    33    34   ar
     6    34    35    1
     7    34    36   ar
     8    36    37   ar
     9    37    38   ar
    10    38    39   ar
    11    39    40    1
    12     3     4   ar
    13     4     5   ar
    14     5     6   ar
    15     6     7   ar
    16     7    16    1
    17    16    17    2
    18    16    18   am
    19    18    20    1
    20    20    21   ar
    21    21    22   ar
    22    22    23    1
    23    22    24   ar
    24    24    25   ar
    25    25    27    1
    26    27    28    1
    27    27    29    1
    28    27    30    1
    29    25    26   ar
    30     7     8   ar
    31     8     9   ar
    32     9    10   ar
    33     9    11    1
    34    11    12    1
    35    12    13    1
    36    12    14    1
    37    12    15    1
    38    10     2   ar
    39    39    33   ar
    40    10     5   ar
    41    26    20   ar
    42    15     8    1
    43    31    32    1
    44    18    19    1
@<TRIPOS>MOLECULE
*****
 40 44 0 0 0
SMALL
GASTEIGER

@<TRIPOS>ATOM
      1 C         -31.5282   49.1414   -7.8674 C.3     1  UNL1        0.1332
      2 N         -30.1743   49.3822   -7.3679 N.ar    1  UNL1       -0.2977
      3 C         -29.6160   48.9655   -6.1947 C.ar    1  UNL1        0.2018
      4 N         -28.3432   49.4006   -6.0085 N.ar    1  UNL1       -0.2135
      5 C         -28.0914   50.0892   -7.1349 C.ar    1  UNL1        0.0999
      6 C         -26.8937   50.7239   -7.4885 C.ar    1  UNL1        0.0282
      7 C         -26.8100   51.3477   -8.7588 C.ar    1  UNL1        0.0888
      8 C         -27.9562   51.3194   -9.5906 C.ar    1  UNL1        0.1401
      9 C         -29.1252   50.7007   -9.2106 C.ar    1  UNL1        0.0327
     10 C         -29.1831   50.0740   -7.9620 C.ar    1  UNL1        0.0789
     11 C         -30.1499   50.8469  -10.2811 C.3     1  UNL1        0.0709
     12 C         -29.3726   51.6203  -11.3962 C.3     1  UNL1        0.1375
     13 C         -29.2046   50.7590  -12.6554 C.3     1  UNL1        0.0439
     14 C         -30.0579   52.9484  -11.7441 C.3     1  UNL1        0.0439
     15 O         -28.0840   51.8882  -10.8406 O.3     1  UNL1       -0.4824
     16 C         -25.5587   52.0156   -9.1741 C.2     1  UNL1        0.2525
     17 O         -25.6276   53.1490   -9.7224 O.2     1  UNL1       -0.2697
     18 N         -24.2804   51.3896   -8.9598 N.am    1  UNL1       -0.2803
     19 H         -24.2506   50.4374   -8.5332 H       1  UNL1        0.1552
     20 C         -23.0272   51.9604   -9.3709 C.ar    1  UNL1        0.0510
     21 C         -22.8696   52.5452  -10.6386 C.ar    1  UNL1        0.0214
     22 C         -21.6523   53.1295  -10.9984 C.ar    1  UNL1        0.0357
     23 BR        -21.4547   53.9376  -12.7180 Br      1  UNL1       -0.0490
     24 C         -20.5851   53.1407  -10.0959 C.ar    1  UNL1        0.0106
     25 C         -20.7232   52.5587   -8.8244 C.ar    1  UNL1        0.0731
     26 C         -21.9605   51.9986   -8.4605 C.ar    1  UNL1        0.0186
     27 C         -19.5935   52.6251   -7.8274 C.3     1  UNL1        0.4186
     28 F         -19.9985   53.2721   -6.6726 F       1  UNL1       -0.1659
     29 F         -18.5352   53.3181   -8.3846 F       1  UNL1       -0.1659
     30 F         -19.1688   51.3533   -7.4835 F       1  UNL1       -0.1659
     31 N         -30.2680   48.1219   -5.2342 N.pl3   1  UNL1       -0.2814
     32 H         -31.3113   48.1566   -5.1911 H       1  UNL1        0.1551
     33 C         -29.5820   47.2790   -4.2942 C.ar    1  UNL1        0.0889
     34 C         -29.3806   47.7484   -2.9851 C.ar    1  UNL1        0.1543
     35 F         -29.8417   48.9710   -2.6195 F       1  UNL1       -0.2028
     36 C         -28.7293   46.9514   -2.0401 C.ar    1  UNL1        0.0310
     37 C         -28.2586   45.6869   -2.3953 C.ar    1  UNL1        0.0033
     38 C         -28.4255   45.2201   -3.7004 C.ar    1  UNL1        0.0128
     39 C         -29.0758   46.0088   -4.6575 C.ar    1  UNL1        0.0733
     40 CL        -29.1639   45.3993   -6.3064 Cl      1  UNL1       -0.0809
@<TRIPOS>BOND
     1     1     2    1
     2     2     3   ar
     3     3    31    1
     4    31    33    1
     5    33    34   ar
     6    34    35    1
     7    34    36   ar
     8    36    37   ar
     9    37    38   ar
    10    38    39   ar
    11    39    40    1
    12     3     4   ar
    13     4     5   ar
    14     5     6   ar
    15     6     7   ar
    16     7    16    1
    17    16    17    2
    18    16    18   am
    19    18    20    1
    20    20    21   ar
    21    21    22   ar
    22    22    23    1
    23    22    24   ar
    24    24    25   ar
    25    25    27    1
    26    27    28    1
    27    27    29    1
    28    27    30    1
    29    25    26   ar
    30     7     8   ar
    31     8     9   ar
    32     9    10   ar
    33     9    11    1
    34    11    12    1
    35    12    13    1
    36    12    14    1
    37    12    15    1
    38    10     2   ar
    39    39    33   ar
    40    10     5   ar
    41    26    20   ar
    42    15     8    1
    43    31    32    1
    44    18    19    1
@<TRIPOS>MOLECULE
*****
 40 44 0 0 0
SMALL
GASTEIGER

@<TRIPOS>ATOM
      1 C         -29.8464   47.2852   -8.1944 C.3     1  UNL1        0.1332
      2 N         -28.4728   47.6239   -7.8213 N.ar    1  UNL1       -0.2977
      3 C         -27.6577   46.9964   -6.9248 C.ar    1  UNL1        0.2018
      4 N         -26.4476   47.5935   -6.7731 N.ar    1  UNL1       -0.2135
      5 C         -26.5047   48.6173   -7.6420 C.ar    1  UNL1        0.0999
      6 C         -25.4938   49.5454   -7.9235 C.ar    1  UNL1        0.0282
      7 C         -25.7314   50.5185   -8.9268 C.ar    1  UNL1        0.0888
      8 C         -26.9932   50.5161   -9.5702 C.ar    1  UNL1        0.1401
      9 C         -27.9737   49.6008   -9.2625 C.ar    1  UNL1        0.0327
     10 C         -27.7146   48.6364   -8.2839 C.ar    1  UNL1        0.0789
     11 C         -29.1854   49.8553  -10.0897 C.3     1  UNL1        0.0709
     12 C         -28.7412   51.0561  -10.9879 C.3     1  UNL1        0.1375
     13 C         -28.6829   50.6513  -12.4672 C.3     1  UNL1        0.0439
     14 C         -29.6606   52.2704  -10.8015 C.3     1  UNL1        0.0439
     15 O         -27.4251   51.3912  -10.5451 O.3     1  UNL1       -0.4824
     16 C         -24.6842   51.5060   -9.2624 C.2     1  UNL1        0.2525
     17 O         -25.0312   52.6760   -9.5798 O.2     1  UNL1       -0.2697
     18 N         -23.2910   51.1459   -9.2296 N.am    1  UNL1       -0.2803
     19 H         -23.0296   50.1630   -8.9951 H       1  UNL1        0.1552
     20 C         -22.2216   52.0399   -9.5798 C.ar    1  UNL1        0.0510
     21 C         -22.0977   52.5601  -10.8790 C.ar    1  UNL1        0.0214
     22 C         -21.0723   53.4595  -11.1829 C.ar    1  UNL1        0.0357
     23 BR        -20.9240   54.1744  -12.9481 Br      1  UNL1       -0.0490
     24 C         -20.1665   53.8517  -10.1934 C.ar    1  UNL1        0.0106
     25 C         -20.2732   53.3404   -8.8889 C.ar    1  UNL1        0.0731
     26 C         -21.3251   52.4582   -8.5852 C.ar    1  UNL1        0.0186
     27 C         -19.3350   53.8102   -7.8055 C.3     1  UNL1        0.4186
     28 F         -18.1821   53.0442   -7.7917 F       1  UNL1       -0.1659
     29 F         -19.9640   53.6996   -6.5796 F       1  UNL1       -0.1659
     30 F         -18.9736   55.1307   -8.0096 F       1  UNL1       -0.1659
     31 N         -27.9980   45.7994   -6.2103 N.pl3   1  UNL1       -0.2814
     32 H         -28.3399   44.9851   -6.7683 H       1  UNL1        0.1551
     33 C         -27.9536   45.6659   -4.7802 C.ar    1  UNL1        0.0889
     34 C         -26.7219   45.3868   -4.1641 C.ar    1  UNL1        0.1543
     35 F         -25.5969   45.2614   -4.9122 F       1  UNL1       -0.2028
     36 C         -26.6378   45.2632   -2.7748 C.ar    1  UNL1        0.0310
     37 C         -27.7825   45.4003   -1.9887 C.ar    1  UNL1        0.0033
     38 C         -29.0178   45.6482   -2.5901 C.ar    1  UNL1        0.0128
     39 C         -29.1163   45.7737   -3.9814 C.ar    1  UNL1        0.0733
     40 CL        -30.7183   45.9876   -4.6786 Cl      1  UNL1       -0.0809
@<TRIPOS>BOND
     1     1     2    1
     2     2     3   ar
     3     3    31    1
     4    31    33    1
     5    33    34   ar
     6    34    35    1
     7    34    36   ar
     8    36    37   ar
     9    37    38   ar
    10    38    39   ar
    11    39    40    1
    12     3     4   ar
    13     4     5   ar
    14     5     6   ar
    15     6     7   ar
    16     7    16    1
    17    16    17    2
    18    16    18   am
    19    18    20    1
    20    20    21   ar
    21    21    22   ar
    22    22    23    1
    23    22    24   ar
    24    24    25   ar
    25    25    27    1
    26    27    28    1
    27    27    29    1
    28    27    30    1
    29    25    26   ar
    30     7     8   ar
    31     8     9   ar
    32     9    10   ar
    33     9    11    1
    34    11    12    1
    35    12    13    1
    36    12    14    1
    37    12    15    1
    38    10     2   ar
    39    39    33   ar
    40    10     5   ar
    41    26    20   ar
    42    15     8    1
    43    31    32    1
    44    18    19    1
@<TRIPOS>MOLECULE
*****
 40 44 0 0 0
SMALL
GASTEIGER

@<TRIPOS>ATOM
      1 C         -23.9633   52.7683  -11.3849 C.3     1  UNL1        0.1332
      2 N         -23.7048   52.1162  -10.1009 N.ar    1  UNL1       -0.2977
      3 C         -22.5633   52.1359   -9.3536 C.ar    1  UNL1        0.2018
      4 N         -22.6339   51.3837   -8.2254 N.ar    1  UNL1       -0.2135
      5 C         -23.8893   50.9048   -8.2595 C.ar    1  UNL1        0.0999
      6 C         -24.5113   50.0930   -7.3021 C.ar    1  UNL1        0.0282
      7 C         -25.8723   49.7453   -7.4938 C.ar    1  UNL1        0.0888
      8 C         -26.5209   50.2158   -8.6617 C.ar    1  UNL1        0.1401
      9 C         -25.8800   51.0001   -9.5934 C.ar    1  UNL1        0.0327
     10 C         -24.5432   51.3489   -9.3780 C.ar    1  UNL1        0.0789
     11 C         -26.8091   51.3258  -10.7104 C.3     1  UNL1        0.0709
     12 C         -28.1405   50.6401  -10.2599 C.3     1  UNL1        0.1375
     13 C         -29.2356   51.6797   -9.9856 C.3     1  UNL1        0.0439
     14 C         -28.6240   49.6136  -11.2929 C.3     1  UNL1        0.0439
     15 O         -27.8234   49.9660   -9.0410 O.3     1  UNL1       -0.4824
     16 C         -26.5677   48.9022   -6.4988 C.2     1  UNL1        0.2525
     17 O         -27.2743   47.9399   -6.9049 O.2     1  UNL1       -0.2697
     18 N         -26.4454   49.1686   -5.0896 N.am    1  UNL1       -0.2803
     19 H         -25.8810   49.9898   -4.7789 H       1  UNL1        0.1552
     20 C         -27.1215   48.4170   -4.0681 C.ar    1  UNL1        0.0510
     21 C         -28.3563   48.8371   -3.5460 C.ar    1  UNL1        0.0214
     22 C         -29.0124   48.0666   -2.5824 C.ar    1  UNL1        0.0357
     23 BR        -30.6995   48.6382   -1.8924 Br      1  UNL1       -0.0490
     24 C         -28.4461   46.8692   -2.1363 C.ar    1  UNL1        0.0106
     25 C         -27.2108   46.4340   -2.6453 C.ar    1  UNL1        0.0731
     26 C         -26.5717   47.2011   -3.6353 C.ar    1  UNL1        0.0186
     27 C         -26.6289   45.1121   -2.2109 C.3     1  UNL1        0.4186
     28 F         -25.2456   45.1546   -2.2386 F       1  UNL1       -0.1659
     29 F         -27.0664   44.1191   -3.0673 F       1  UNL1       -0.1659
     30 F         -27.0257   44.8026   -0.9214 F       1  UNL1       -0.1659
     31 N         -21.3872   52.8909   -9.6791 N.pl3   1  UNL1       -0.2814
     32 H         -21.5104   53.7477  -10.2639 H       1  UNL1        0.1551
     33 C         -20.0516   52.5173   -9.3032 C.ar    1  UNL1        0.0889
     34 C         -19.6210   52.7729   -7.9902 C.ar    1  UNL1        0.1543
     35 F         -20.4625   53.3495   -7.0956 F       1  UNL1       -0.2028
     36 C         -18.3335   52.4115   -7.5849 C.ar    1  UNL1        0.0310
     37 C         -17.4584   51.8074   -8.4883 C.ar    1  UNL1        0.0033
     38 C         -17.8630   51.5746   -9.8041 C.ar    1  UNL1        0.0128
     39 C         -19.1503   51.9324  -10.2236 C.ar    1  UNL1        0.0733
     40 CL        -19.5590   51.7003  -11.9199 Cl      1  UNL1       -0.0809
@<TRIPOS>BOND
     1     1     2    1
     2     2     3   ar
     3     3    31    1
     4    31    33    1
     5    33    34   ar
     6    34    35    1
     7    34    36   ar
     8    36    37   ar
     9    37    38   ar
    10    38    39   ar
    11    39    40    1
    12     3     4   ar
    13     4     5   ar
    14     5     6   ar
    15     6     7   ar
    16     7    16    1
    17    16    17    2
    18    16    18   am
    19    18    20    1
    20    20    21   ar
    21    21    22   ar
    22    22    23    1
    23    22    24   ar
    24    24    25   ar
    25    25    27    1
    26    27    28    1
    27    27    29    1
    28    27    30    1
    29    25    26   ar
    30     7     8   ar
    31     8     9   ar
    32     9    10   ar
    33     9    11    1
    34    11    12    1
    35    12    13    1
    36    12    14    1
    37    12    15    1
    38    10     2   ar
    39    39    33   ar
    40    10     5   ar
    41    26    20   ar
    42    15     8    1
    43    31    32    1
    44    18    19    1
@<TRIPOS>MOLECULE
*****
 40 44 0 0 0
SMALL
GASTEIGER

@<TRIPOS>ATOM
      1 C         -23.8451   52.8667  -11.4140 C.3     1  UNL1        0.1332
      2 N         -23.5854   52.2056  -10.1349 N.ar    1  UNL1       -0.2977
      3 C         -22.4461   52.2274   -9.3842 C.ar    1  UNL1        0.2018
      4 N         -22.5143   51.4652   -8.2626 N.ar    1  UNL1       -0.2135
      5 C         -23.7659   50.9773   -8.3043 C.ar    1  UNL1        0.0999
      6 C         -24.3846   50.1529   -7.3555 C.ar    1  UNL1        0.0282
      7 C         -25.7424   49.7968   -7.5540 C.ar    1  UNL1        0.0888
      8 C         -26.3913   50.2724   -8.7198 C.ar    1  UNL1        0.1401
      9 C         -25.7536   51.0693   -9.6430 C.ar    1  UNL1        0.0327
     10 C         -24.4200   51.4261   -9.4209 C.ar    1  UNL1        0.0789
     11 C         -26.6821   51.3976  -10.7598 C.3     1  UNL1        0.0709
     12 C         -28.0096   50.6983  -10.3188 C.3     1  UNL1        0.1375
     13 C         -29.1131   51.7275  -10.0389 C.3     1  UNL1        0.0439
     14 C         -28.4826   49.6770  -11.3618 C.3     1  UNL1        0.0439
     15 O         -27.6908   50.0162   -9.1048 O.3     1  UNL1       -0.4824
     16 C         -26.4343   48.9402   -6.5682 C.2     1  UNL1        0.2525
     17 O         -27.1162   47.9641   -6.9834 O.2     1  UNL1       -0.2697
     18 N         -26.3363   49.2092   -5.1575 N.am    1  UNL1       -0.2803
     19 H         -25.7925   50.0415   -4.8396 H       1  UNL1        0.1552
     20 C         -27.0110   48.4444   -4.1449 C.ar    1  UNL1        0.0510
     21 C         -28.2546   48.8472   -3.6301 C.ar    1  UNL1        0.0214
     22 C         -28.9088   48.0640   -2.6753 C.ar    1  UNL1        0.0357
     23 BR        -30.6077   48.6121   -1.9952 Br      1  UNL1       -0.0490
     24 C         -28.3316   46.8712   -2.2310 C.ar    1  UNL1        0.0106
     25 C         -27.0875   46.4532   -2.7328 C.ar    1  UNL1        0.0731
     26 C         -26.4501   47.2329   -3.7141 C.ar    1  UNL1        0.0186
     27 C         -26.4932   45.1361   -2.3007 C.3     1  UNL1        0.4186
     28 F         -26.9108   44.8077   -1.0224 F       1  UNL1       -0.1659
     29 F         -25.1145   45.2332   -2.3131 F       1  UNL1       -0.1659
     30 F         -26.8816   44.1196   -3.1562 F       1  UNL1       -0.1659
     31 N         -21.2747   52.9938   -9.6999 N.pl3   1  UNL1       -0.2814
     32 H         -21.4133   53.9115  -10.1796 H       1  UNL1        0.1551
     33 C         -19.9277   52.5591   -9.4522 C.ar    1  UNL1        0.0889
     34 C         -19.2509   51.8459  -10.4561 C.ar    1  UNL1        0.1543
     35 F         -19.8606   51.5891  -11.6407 F       1  UNL1       -0.2028
     36 C         -17.9356   51.4186  -10.2561 C.ar    1  UNL1        0.0310
     37 C         -17.2890   51.6836   -9.0484 C.ar    1  UNL1        0.0033
     38 C         -17.9598   52.3652   -8.0312 C.ar    1  UNL1        0.0128
     39 C         -19.2783   52.7985   -8.2183 C.ar    1  UNL1        0.0733
     40 CL        -20.0953   53.5639   -6.8600 Cl      1  UNL1       -0.0809
@<TRIPOS>BOND
     1     1     2    1
     2     2     3   ar
     3     3    31    1
     4    31    33    1
     5    33    34   ar
     6    34    35    1
     7    34    36   ar
     8    36    37   ar
     9    37    38   ar
    10    38    39   ar
    11    39    40    1
    12     3     4   ar
    13     4     5   ar
    14     5     6   ar
    15     6     7   ar
    16     7    16    1
    17    16    17    2
    18    16    18   am
    19    18    20    1
    20    20    21   ar
    21    21    22   ar
    22    22    23    1
    23    22    24   ar
    24    24    25   ar
    25    25    27    1
    26    27    28    1
    27    27    29    1
    28    27    30    1
    29    25    26   ar
    30     7     8   ar
    31     8     9   ar
    32     9    10   ar
    33     9    11    1
    34    11    12    1
    35    12    13    1
    36    12    14    1
    37    12    15    1
    38    10     2   ar
    39    39    33   ar
    40    10     5   ar
    41    26    20   ar
    42    15     8    1
    43    31    32    1
    44    18    19    1
@<TRIPOS>MOLECULE
*****
 40 44 0 0 0
SMALL
GASTEIGER

@<TRIPOS>ATOM
      1 C         -24.0405   52.7286  -11.2360 C.3     1  UNL1        0.1332
      2 N         -23.7668   52.0507   -9.9687 N.ar    1  UNL1       -0.2977
      3 C         -22.6210   52.0664   -9.2279 C.ar    1  UNL1        0.2018
      4 N         -22.6763   51.2882   -8.1166 N.ar    1  UNL1       -0.2135
      5 C         -23.9264   50.7961   -8.1540 C.ar    1  UNL1        0.0999
      6 C         -24.5335   49.9560   -7.2116 C.ar    1  UNL1        0.0282
      7 C         -25.8917   49.5974   -7.4030 C.ar    1  UNL1        0.0888
      8 C         -26.5527   50.0868   -8.5561 C.ar    1  UNL1        0.1401
      9 C         -25.9263   50.8991   -9.4736 C.ar    1  UNL1        0.0327
     10 C         -24.5921   51.2580   -9.2584 C.ar    1  UNL1        0.0789
     11 C         -26.8659   51.2395  -10.5775 C.3     1  UNL1        0.0709
     12 C         -28.1868   50.5288  -10.1346 C.3     1  UNL1        0.1375
     13 C         -29.2917   51.5497   -9.8304 C.3     1  UNL1        0.0439
     14 C         -28.6653   49.5205  -11.1877 C.3     1  UNL1        0.0439
     15 O         -27.8546   49.8310   -8.9332 O.3     1  UNL1       -0.4824
     16 C         -26.5715   48.7244   -6.4233 C.2     1  UNL1        0.2525
     17 O         -27.4333   49.2297   -5.6538 O.2     1  UNL1       -0.2697
     18 N         -26.2607   47.3212   -6.3430 N.am    1  UNL1       -0.2803
     19 H         -25.5211   46.9321   -6.9683 H       1  UNL1        0.1552
     20 C         -26.8519   46.4204   -5.3919 C.ar    1  UNL1        0.0510
     21 C         -26.1058   45.8850   -4.3286 C.ar    1  UNL1        0.0214
     22 C         -26.7151   45.0434   -3.3941 C.ar    1  UNL1        0.0357
     23 BR        -25.6954   44.3354   -1.9422 Br      1  UNL1       -0.0490
     24 C         -28.0732   44.7338   -3.5088 C.ar    1  UNL1        0.0106
     25 C         -28.8350   45.2581   -4.5667 C.ar    1  UNL1        0.0731
     26 C         -28.2204   46.1267   -5.4858 C.ar    1  UNL1        0.0186
     27 C         -30.3137   44.9751   -4.6563 C.3     1  UNL1        0.4186
     28 F         -30.7094   44.1183   -3.6436 F       1  UNL1       -0.1659
     29 F         -30.5916   44.3888   -5.8767 F       1  UNL1       -0.1659
     30 F         -31.0439   46.1455   -4.5415 F       1  UNL1       -0.1659
     31 N         -21.4554   52.8417   -9.5432 N.pl3   1  UNL1       -0.2814
     32 H         -21.5942   53.7214  -10.0893 H       1  UNL1        0.1551
     33 C         -20.1109   52.4611   -9.2080 C.ar    1  UNL1        0.0889
     34 C         -19.6390   52.7152   -7.9091 C.ar    1  UNL1        0.1543
     35 F         -20.4497   53.2968   -6.9895 F       1  UNL1       -0.2028
     36 C         -18.3417   52.3472   -7.5430 C.ar    1  UNL1        0.0310
     37 C         -17.4979   51.7378   -8.4723 C.ar    1  UNL1        0.0033
     38 C         -17.9437   51.5064   -9.7750 C.ar    1  UNL1        0.0128
     39 C         -19.2413   51.8709  -10.1552 C.ar    1  UNL1        0.0733
     40 CL        -19.7030   51.6400  -11.8380 Cl      1  UNL1       -0.0809
@<TRIPOS>BOND
     1     1     2    1
     2     2     3   ar
     3     3    31    1
     4    31    33    1
     5    33    34   ar
     6    34    35    1
     7    34    36   ar
     8    36    37   ar
     9    37    38   ar
    10    38    39   ar
    11    39    40    1
    12     3     4   ar
    13     4     5   ar
    14     5     6   ar
    15     6     7   ar
    16     7    16    1
    17    16    17    2
    18    16    18   am
    19    18    20    1
    20    20    21   ar
    21    21    22   ar
    22    22    23    1
    23    22    24   ar
    24    24    25   ar
    25    25    27    1
    26    27    28    1
    27    27    29    1
    28    27    30    1
    29    25    26   ar
    30     7     8   ar
    31     8     9   ar
    32     9    10   ar
    33     9    11    1
    34    11    12    1
    35    12    13    1
    36    12    14    1
    37    12    15    1
    38    10     2   ar
    39    39    33   ar
    40    10     5   ar
    41    26    20   ar
    42    15     8    1
    43    31    32    1
    44    18    19    1
@<TRIPOS>MOLECULE
*****
 40 44 0 0 0
SMALL
GASTEIGER

@<TRIPOS>ATOM
      1 C         -24.0109   52.7417  -11.3134 C.3     1  UNL1        0.1332
      2 N         -23.7605   52.0746  -10.0356 N.ar    1  UNL1       -0.2977
      3 C         -22.6252   52.0890   -9.2788 C.ar    1  UNL1        0.2018
      4 N         -22.7022   51.3225   -8.1606 N.ar    1  UNL1       -0.2135
      5 C         -23.9555   50.8397   -8.2108 C.ar    1  UNL1        0.0999
      6 C         -24.5823   50.0139   -7.2687 C.ar    1  UNL1        0.0282
      7 C         -25.9405   49.6639   -7.4758 C.ar    1  UNL1        0.0888
      8 C         -26.5813   50.1466   -8.6430 C.ar    1  UNL1        0.1401
      9 C         -25.9356   50.9447   -9.5596 C.ar    1  UNL1        0.0327
     10 C         -24.6019   51.2955   -9.3291 C.ar    1  UNL1        0.0789
     11 C         -26.8569   51.2811  -10.6800 C.3     1  UNL1        0.0709
     12 C         -28.1894   50.5851  -10.2489 C.3     1  UNL1        0.1375
     13 C         -29.2905   51.6175   -9.9706 C.3     1  UNL1        0.0439
     14 C         -28.6609   49.5699  -11.2984 C.3     1  UNL1        0.0439
     15 O         -27.8797   49.8970   -9.0359 O.3     1  UNL1       -0.4824
     16 C         -26.6409   48.8061   -6.4971 C.2     1  UNL1        0.2525
     17 O         -27.2985   47.8157   -6.9176 O.2     1  UNL1       -0.2697
     18 N         -26.5780   49.0897   -5.0873 N.am    1  UNL1       -0.2803
     19 H         -26.0540   49.9332   -4.7656 H       1  UNL1        0.1552
     20 C         -27.2632   48.3242   -4.0823 C.ar    1  UNL1        0.0510
     21 C         -26.7232   47.1300   -3.5764 C.ar    1  UNL1        0.0214
     22 C         -27.3900   46.4259   -2.5702 C.ar    1  UNL1        0.0357
     23 BR        -26.6376   44.8126   -1.8771 Br      1  UNL1       -0.0490
     24 C         -28.5967   46.9095   -2.0567 C.ar    1  UNL1        0.0106
     25 C         -29.1533   48.1009   -2.5518 C.ar    1  UNL1        0.0731
     26 C         -28.4611   48.8175   -3.5439 C.ar    1  UNL1        0.0186
     27 C         -30.4226   48.6561   -1.9557 C.3     1  UNL1        0.4186
     28 F         -31.4280   47.7048   -1.9745 F       1  UNL1       -0.1659
     29 F         -30.8279   49.7544   -2.6906 F       1  UNL1       -0.1659
     30 F         -30.2185   49.0426   -0.6423 F       1  UNL1       -0.1659
     31 N         -21.4491   52.8520   -9.5853 N.pl3   1  UNL1       -0.2814
     32 H         -21.5745   53.7325  -10.1335 H       1  UNL1        0.1551
     33 C         -20.1114   52.4583   -9.2385 C.ar    1  UNL1        0.0889
     34 C         -19.6540   52.6926   -7.9307 C.ar    1  UNL1        0.1543
     35 F         -20.4722   53.2678   -7.0138 F       1  UNL1       -0.2028
     36 C         -18.3637   52.3113   -7.5535 C.ar    1  UNL1        0.0310
     37 C         -17.5124   51.7082   -8.4801 C.ar    1  UNL1        0.0033
     38 C         -17.9436   51.4965   -9.7910 C.ar    1  UNL1        0.0128
     39 C         -19.2340   51.8744  -10.1824 C.ar    1  UNL1        0.0733
     40 CL        -19.6763   51.6681  -11.8736 Cl      1  UNL1       -0.0809
@<TRIPOS>BOND
     1     1     2    1
     2     2     3   ar
     3     3    31    1
     4    31    33    1
     5    33    34   ar
     6    34    35    1
     7    34    36   ar
     8    36    37   ar
     9    37    38   ar
    10    38    39   ar
    11    39    40    1
    12     3     4   ar
    13     4     5   ar
    14     5     6   ar
    15     6     7   ar
    16     7    16    1
    17    16    17    2
    18    16    18   am
    19    18    20    1
    20    20    21   ar
    21    21    22   ar
    22    22    23    1
    23    22    24   ar
    24    24    25   ar
    25    25    27    1
    26    27    28    1
    27    27    29    1
    28    27    30    1
    29    25    26   ar
    30     7     8   ar
    31     8     9   ar
    32     9    10   ar
    33     9    11    1
    34    11    12    1
    35    12    13    1
    36    12    14    1
    37    12    15    1
    38    10     2   ar
    39    39    33   ar
    40    10     5   ar
    41    26    20   ar
    42    15     8    1
    43    31    32    1
    44    18    19    1
@<TRIPOS>MOLECULE
*****
 40 44 0 0 0
SMALL
GASTEIGER

@<TRIPOS>ATOM
      1 C         -30.3183   46.6637   -7.7698 C.3     1  UNL1        0.1332
      2 N         -28.9032   47.0213   -7.6693 N.ar    1  UNL1       -0.2977
      3 C         -27.9467   46.4812   -6.8598 C.ar    1  UNL1        0.2018
      4 N         -26.7309   47.0745   -6.9766 N.ar    1  UNL1       -0.2135
      5 C         -26.9372   48.0015   -7.9277 C.ar    1  UNL1        0.0999
      6 C         -25.9917   48.8808   -8.4712 C.ar    1  UNL1        0.0282
      7 C         -26.3982   49.7455   -9.5186 C.ar    1  UNL1        0.0888
      8 C         -27.7498   49.6922   -9.9385 C.ar    1  UNL1        0.1401
      9 C         -28.6610   48.8279   -9.3758 C.ar    1  UNL1        0.0327
     10 C         -28.2375   47.9689   -8.3570 C.ar    1  UNL1        0.0789
     11 C         -29.9952   49.0099  -10.0115 C.3     1  UNL1        0.0709
     12 C         -29.7129   50.1028  -11.0939 C.3     1  UNL1        0.1375
     13 C         -29.9011   49.5433  -12.5105 C.3     1  UNL1        0.0439
     14 C         -30.5934   51.3424  -10.8870 C.3     1  UNL1        0.0439
     15 O         -28.3426   50.4651  -10.9151 O.3     1  UNL1       -0.4824
     16 C         -25.4263   50.6778  -10.1274 C.2     1  UNL1        0.2525
     17 O         -25.6276   51.0827  -11.3045 O.2     1  UNL1       -0.2697
     18 N         -24.2682   51.1201   -9.3959 N.am    1  UNL1       -0.2803
     19 H         -24.1059   50.7464   -8.4349 H       1  UNL1        0.1552
     20 C         -23.2624   51.9934   -9.9353 C.ar    1  UNL1        0.0510
     21 C         -23.4647   53.3813  -10.0167 C.ar    1  UNL1        0.0214
     22 C         -22.4547   54.2129  -10.5076 C.ar    1  UNL1        0.0357
     23 BR        -22.7341   56.1005  -10.5972 Br      1  UNL1       -0.0490
     24 C         -21.2337   53.6686  -10.9155 C.ar    1  UNL1        0.0106
     25 C         -21.0137   52.2826  -10.8435 C.ar    1  UNL1        0.0731
     26 C         -22.0251   51.4569  -10.3215 C.ar    1  UNL1        0.0186
     27 C         -19.6754   51.7011  -11.2246 C.3     1  UNL1        0.4186
     28 F         -19.7952   50.8886  -12.3389 F       1  UNL1       -0.1659
     29 F         -19.1885   50.9512  -10.1705 F       1  UNL1       -0.1659
     30 F         -18.7706   52.7065  -11.5187 F       1  UNL1       -0.1659
     31 N         -28.1574   45.3711   -5.9751 N.pl3   1  UNL1       -0.2814
     32 H         -28.5003   44.4779   -6.3948 H       1  UNL1        0.1551
     33 C         -27.9829   45.4230   -4.5498 C.ar    1  UNL1        0.0889
     34 C         -26.7557   45.0119   -4.0023 C.ar    1  UNL1        0.1543
     35 F         -25.7537   44.5886   -4.8133 F       1  UNL1       -0.2028
     36 C         -26.5450   45.0610   -2.6219 C.ar    1  UNL1        0.0310
     37 C         -27.5603   45.5044   -1.7736 C.ar    1  UNL1        0.0033
     38 C         -28.7946   45.8876   -2.3015 C.ar    1  UNL1        0.0128
     39 C         -29.0193   45.8427   -3.6830 C.ar    1  UNL1        0.0733
     40 CL        -30.6290   46.2459   -4.2702 Cl      1  UNL1       -0.0809
@<TRIPOS>BOND
     1     1     2    1
     2     2     3   ar
     3     3    31    1
     4    31    33    1
     5    33    34   ar
     6    34    35    1
     7    34    36   ar
     8    36    37   ar
     9    37    38   ar
    10    38    39   ar
    11    39    40    1
    12     3     4   ar
    13     4     5   ar
    14     5     6   ar
    15     6     7   ar
    16     7    16    1
    17    16    17    2
    18    16    18   am
    19    18    20    1
    20    20    21   ar
    21    21    22   ar
    22    22    23    1
    23    22    24   ar
    24    24    25   ar
    25    25    27    1
    26    27    28    1
    27    27    29    1
    28    27    30    1
    29    25    26   ar
    30     7     8   ar
    31     8     9   ar
    32     9    10   ar
    33     9    11    1
    34    11    12    1
    35    12    13    1
    36    12    14    1
    37    12    15    1
    38    10     2   ar
    39    39    33   ar
    40    10     5   ar
    41    26    20   ar
    42    15     8    1
    43    31    32    1
    44    18    19    1
