@<TRIPOS>MOLECULE
*****
 62 67 0 0 0
SMALL
GASTEIGER

@<TRIPOS>ATOM
      1 C          62.2167   83.3906   10.2734 C.ar    1  UNL1        0.0503
      2 C          63.0290   83.1270   11.3835 C.ar    1  UNL1        0.0147
      3 C          63.2194   84.0956   12.3680 C.ar    1  UNL1        0.0013
      4 C          62.6278   85.3657   12.2447 C.ar    1  UNL1        0.0001
      5 C          61.8821   85.6570   11.0892 C.ar    1  UNL1        0.0013
      6 C          61.6811   84.6798   10.1098 C.ar    1  UNL1        0.0147
      7 C          62.6983   86.3278   13.3726 C.ar    1  UNL1        0.0001
      8 C          63.6673   86.1681   14.3817 C.ar    1  UNL1        0.0013
      9 C          63.9231   87.2029   15.2852 C.ar    1  UNL1        0.0147
     10 C          63.2261   88.4123   15.1805 C.ar    1  UNL1        0.0503
     11 C          62.1742   88.5286   14.2655 C.ar    1  UNL1        0.0147
     12 C          61.9106   87.4938   13.3663 C.ar    1  UNL1        0.0013
     13 N          63.6131   89.5477   15.9573 N.am    1  UNL1       -0.2826
     14 C          64.6178   90.4726   15.5058 C.2     1  UNL1        0.2442
     15 O          64.5129   91.6846   15.8389 O.2     1  UNL1       -0.2730
     16 H          62.9068   89.9105   16.6368 H       1  UNL1        0.1549
     17 C          65.7861   90.0477   14.6324 C.3     1  UNL1        0.1521
     18 C          67.1157   90.5577   15.1945 C.3     1  UNL1        0.0310
     19 C          67.4142   91.8447   14.4317 C.3     1  UNL1        0.0237
     20 C          66.6517   91.7283   13.1178 C.3     1  UNL1        0.0939
     21 N          65.6816   90.6602   13.3116 N.am    1  UNL1       -0.2714
     22 C          64.9549   90.0631   12.2202 C.2     1  UNL1        0.2482
     23 O          64.6008   88.8575   12.2937 O.2     1  UNL1       -0.2727
     24 C          64.6535   90.8320   10.9574 C.3     1  UNL1        0.1743
     25 C          65.9379   91.3364   10.3288 C.ar    1  UNL1        0.0044
     26 C          67.0766   90.5101   10.2404 C.ar    1  UNL1       -0.0022
     27 C          68.2536   90.9889    9.6574 C.ar    1  UNL1       -0.0003
     28 C          68.3095   92.2916    9.1586 C.ar    1  UNL1       -0.0000
     29 C          67.1881   93.1198    9.2415 C.ar    1  UNL1       -0.0003
     30 C          66.0075   92.6469    9.8220 C.ar    1  UNL1       -0.0022
     31 N          63.9122   89.9871   10.0131 N.am    1  UNL1       -0.2606
     32 C          62.5774   89.5404   10.2765 C.2     1  UNL1        0.4023
     33 O          61.9662   89.9335   11.3086 O.2     1  UNL1       -0.2264
     34 H          64.3728   89.6435    9.1399 H       1  UNL1        0.1535
     35 O          61.9623   88.6612    9.3814 O.3     1  UNL1       -0.4306
     36 C          60.5822   88.3271    9.4621 C.3     1  UNL1        0.2573
     37 C          60.7702   82.3167    8.5070 C.2     1  UNL1        0.2442
     38 O          60.3929   83.3679    7.9225 O.2     1  UNL1       -0.2730
     39 N          61.9281   82.3237    9.3553 N.am    1  UNL1       -0.2826
     40 H          62.3656   81.3951    9.5539 H       1  UNL1        0.1549
     41 C          58.2497   81.4794   10.0870 C.2     1  UNL1        0.2482
     42 O          57.1568   82.0994   10.1924 O.2     1  UNL1       -0.2727
     43 N          58.6748   81.0497    8.7743 N.am    1  UNL1       -0.2714
     44 C          57.7031   80.6794    7.7584 C.3     1  UNL1        0.0939
     45 C          58.5128   80.1715    6.5750 C.3     1  UNL1        0.0237
     46 C          59.9090   80.7522    6.7584 C.3     1  UNL1        0.0310
     47 C          60.0430   81.0228    8.2583 C.3     1  UNL1        0.1521
     48 C          59.0163   81.1958   11.3646 C.3     1  UNL1        0.1743
     49 C          59.4223   84.6839   13.9142 C.ar    1  UNL1       -0.0222
     50 C          58.4503   84.6394   12.9041 C.ar    1  UNL1       -0.0045
     51 C          58.3344   83.5133   12.0852 C.ar    1  UNL1       -0.0025
     52 C          59.1736   82.4013   12.2737 C.ar    1  UNL1        0.0044
     53 C          60.1460   82.4517   13.2925 C.ar    1  UNL1       -0.0025
     54 C          60.2641   83.5798   14.1068 C.ar    1  UNL1       -0.0045
     55 C          58.5797   86.9860   14.3591 C.3     1  UNL1        0.0050
     56 C          59.5211   85.8793   14.8225 C.3     1  UNL1        0.0264
     57 N          58.4309   80.0429   12.0597 N.am    1  UNL1       -0.2606
     58 C          58.8647   78.6979   11.8181 C.2     1  UNL1        0.4023
     59 O          59.6722   78.4473   10.8810 O.2     1  UNL1       -0.2264
     60 H          57.7731   80.2048   12.8541 H       1  UNL1        0.1535
     61 O          58.3857   77.6655   12.6292 O.3     1  UNL1       -0.4306
     62 C          58.6683   77.5984   14.0224 C.3     1  UNL1        0.2573
@<TRIPOS>BOND
     1    55    56    1
     2    56    49    1
     3    49    50   ar
     4    50    51   ar
     5    51    52   ar
     6    52    48    1
     7    48    57    1
     8    57    58   am
     9    58    59    2
    10    58    61    1
    11    61    62    1
    12    48    41    1
    13    41    42    2
    14    41    43   am
    15    43    44    1
    16    44    45    1
    17    45    46    1
    18    46    47    1
    19    47    37    1
    20    37    38    2
    21    37    39   am
    22    39     1    1
    23     1     2   ar
    24     2     3   ar
    25     3     4   ar
    26     4     7    1
    27     7     8   ar
    28     8     9   ar
    29     9    10   ar
    30    10    13    1
    31    13    14   am
    32    14    15    2
    33    14    17    1
    34    17    18    1
    35    18    19    1
    36    19    20    1
    37    20    21    1
    38    21    22   am
    39    22    23    2
    40    22    24    1
    41    24    31    1
    42    31    32   am
    43    32    33    2
    44    32    35    1
    45    35    36    1
    46    24    25    1
    47    25    26   ar
    48    26    27   ar
    49    27    28   ar
    50    28    29   ar
    51    29    30   ar
    52    10    11   ar
    53    11    12   ar
    54     4     5   ar
    55     5     6   ar
    56    52    53   ar
    57    53    54   ar
    58    54    49   ar
    59    47    43    1
    60     6     1   ar
    61    12     7   ar
    62    21    17    1
    63    30    25   ar
    64    57    60    1
    65    39    40    1
    66    13    16    1
    67    31    34    1
@<TRIPOS>MOLECULE
*****
 62 67 0 0 0
SMALL
GASTEIGER

@<TRIPOS>ATOM
      1 C          62.4779   87.8544   10.4243 C.ar    1  UNL1        0.0503
      2 C          62.1437   86.9905   11.4749 C.ar    1  UNL1        0.0147
      3 C          62.0501   85.6163   11.2594 C.ar    1  UNL1        0.0013
      4 C          62.2547   85.0787    9.9758 C.ar    1  UNL1        0.0001
      5 C          62.5068   85.9550    8.9060 C.ar    1  UNL1        0.0013
      6 C          62.6137   87.3314    9.1268 C.ar    1  UNL1        0.0147
      7 C          62.3179   83.6073    9.7910 C.ar    1  UNL1        0.0001
      8 C          63.2625   82.8430   10.5025 C.ar    1  UNL1        0.0013
      9 C          63.1529   81.4507   10.5498 C.ar    1  UNL1        0.0147
     10 C          62.0911   80.8094    9.9011 C.ar    1  UNL1        0.0503
     11 C          61.2277   81.5504    9.0870 C.ar    1  UNL1        0.0147
     12 C          61.3388   82.9409    9.0312 C.ar    1  UNL1        0.0013
     13 N          61.8450   79.4166   10.1055 N.am    1  UNL1       -0.2826
     14 C          60.9530   78.9433   11.1298 C.2     1  UNL1        0.2442
     15 O          60.3041   77.8825   10.9192 O.2     1  UNL1       -0.2730
     16 H          61.9946   78.7908    9.2820 H       1  UNL1        0.1549
     17 C          60.7528   79.6804   12.4432 C.3     1  UNL1        0.1521
     18 C          60.6007   78.7035   13.6122 C.3     1  UNL1        0.0310
     19 C          59.0975   78.5521   13.8243 C.3     1  UNL1        0.0237
     20 C          58.4735   79.8185   13.2516 C.3     1  UNL1        0.0939
     21 N          59.5000   80.4291   12.4192 N.am    1  UNL1       -0.2714
     22 C          59.3956   81.7765   11.9196 C.2     1  UNL1        0.2482
     23 O          60.4401   82.4515   11.7263 O.2     1  UNL1       -0.2727
     24 C          58.0561   82.4261   11.6738 C.3     1  UNL1        0.1743
     25 C          58.0242   83.8142   12.2830 C.ar    1  UNL1        0.0044
     26 C          58.6536   84.9021   11.6447 C.ar    1  UNL1       -0.0022
     27 C          58.6151   86.1766   12.2183 C.ar    1  UNL1       -0.0003
     28 C          57.9524   86.3805   13.4300 C.ar    1  UNL1       -0.0000
     29 C          57.3261   85.3100   14.0721 C.ar    1  UNL1       -0.0003
     30 C          57.3596   84.0334   13.5034 C.ar    1  UNL1       -0.0022
     31 N          57.7778   82.4865   10.2336 N.am    1  UNL1       -0.2606
     32 C          57.7321   81.3113    9.4166 C.2     1  UNL1        0.4023
     33 O          57.8541   80.1681    9.9378 O.2     1  UNL1       -0.2264
     34 H          57.6603   83.4099    9.7579 H       1  UNL1        0.1535
     35 O          57.5563   81.4451    8.0369 O.3     1  UNL1       -0.4306
     36 C          58.1357   80.5454    7.1000 C.3     1  UNL1        0.2573
     37 C          64.0118   89.8392   10.6965 C.2     1  UNL1        0.2442
     38 O          64.8415   89.5482    9.7931 O.2     1  UNL1       -0.2730
     39 N          62.7060   89.2433   10.7135 N.am    1  UNL1       -0.2826
     40 H          61.9759   89.7373   11.2756 H       1  UNL1        0.1549
     41 C          64.4745   89.1511   13.6735 C.2     1  UNL1        0.2482
     42 O          65.3106   88.3448   14.1641 O.2     1  UNL1       -0.2727
     43 N          64.9672   90.2835   12.9229 N.am    1  UNL1       -0.2714
     44 C          66.2383   90.9051   13.2566 C.3     1  UNL1        0.0939
     45 C          66.3581   92.1190   12.3478 C.3     1  UNL1        0.0237
     46 C          65.4111   91.8516   11.1851 C.3     1  UNL1        0.0310
     47 C          64.3656   90.8756   11.7286 C.3     1  UNL1        0.1521
     48 C          63.0067   88.8871   13.9494 C.3     1  UNL1        0.1743
     49 C          62.0238   84.7668   14.8924 C.ar    1  UNL1       -0.0222
     50 C          61.0388   85.7650   14.9131 C.ar    1  UNL1       -0.0045
     51 C          61.3695   87.0892   14.6144 C.ar    1  UNL1       -0.0025
     52 C          62.6868   87.4379   14.2686 C.ar    1  UNL1        0.0044
     53 C          63.6708   86.4293   14.2468 C.ar    1  UNL1       -0.0025
     54 C          63.3400   85.1072   14.5505 C.ar    1  UNL1       -0.0045
     55 C          62.5898   82.3865   14.4224 C.3     1  UNL1        0.0050
     56 C          61.6610   83.3341   15.1741 C.3     1  UNL1        0.0264
     57 N          62.5122   89.8094   14.9789 N.am    1  UNL1       -0.2606
     58 C          63.3874   90.4766   15.8979 C.2     1  UNL1        0.4023
     59 O          64.6119   90.1746   15.9454 O.2     1  UNL1       -0.2264
     60 H          61.5100   90.1014   14.9651 H       1  UNL1        0.1535
     61 O          62.8731   91.4650   16.7417 O.3     1  UNL1       -0.4306
     62 C          61.4793   91.7373   16.8341 C.3     1  UNL1        0.2573
@<TRIPOS>BOND
     1    55    56    1
     2    56    49    1
     3    49    50   ar
     4    50    51   ar
     5    51    52   ar
     6    52    48    1
     7    48    57    1
     8    57    58   am
     9    58    59    2
    10    58    61    1
    11    61    62    1
    12    48    41    1
    13    41    42    2
    14    41    43   am
    15    43    44    1
    16    44    45    1
    17    45    46    1
    18    46    47    1
    19    47    37    1
    20    37    38    2
    21    37    39   am
    22    39     1    1
    23     1     2   ar
    24     2     3   ar
    25     3     4   ar
    26     4     7    1
    27     7     8   ar
    28     8     9   ar
    29     9    10   ar
    30    10    13    1
    31    13    14   am
    32    14    15    2
    33    14    17    1
    34    17    18    1
    35    18    19    1
    36    19    20    1
    37    20    21    1
    38    21    22   am
    39    22    23    2
    40    22    24    1
    41    24    31    1
    42    31    32   am
    43    32    33    2
    44    32    35    1
    45    35    36    1
    46    24    25    1
    47    25    26   ar
    48    26    27   ar
    49    27    28   ar
    50    28    29   ar
    51    29    30   ar
    52    10    11   ar
    53    11    12   ar
    54     4     5   ar
    55     5     6   ar
    56    52    53   ar
    57    53    54   ar
    58    54    49   ar
    59    47    43    1
    60     6     1   ar
    61    12     7   ar
    62    21    17    1
    63    30    25   ar
    64    57    60    1
    65    39    40    1
    66    13    16    1
    67    31    34    1
@<TRIPOS>MOLECULE
*****
 62 67 0 0 0
SMALL
GASTEIGER

@<TRIPOS>ATOM
      1 C          63.4396   87.5766   14.6454 C.ar    1  UNL1        0.0503
      2 C          63.4828   87.1850   13.3013 C.ar    1  UNL1        0.0147
      3 C          62.4113   86.5021   12.7277 C.ar    1  UNL1        0.0013
      4 C          61.2846   86.1637   13.4986 C.ar    1  UNL1        0.0001
      5 C          61.2789   86.4829   14.8675 C.ar    1  UNL1        0.0013
      6 C          62.3485   87.1798   15.4376 C.ar    1  UNL1        0.0147
      7 C          60.0842   85.5882   12.8421 C.ar    1  UNL1        0.0001
      8 C          59.7531   85.9536   11.5232 C.ar    1  UNL1        0.0013
      9 C          58.8023   85.2231   10.8056 C.ar    1  UNL1        0.0147
     10 C          58.1848   84.1119   11.3914 C.ar    1  UNL1        0.0503
     11 C          58.4128   83.8242   12.7414 C.ar    1  UNL1        0.0147
     12 C          59.3565   84.5567   13.4638 C.ar    1  UNL1        0.0013
     13 N          57.3685   83.2350   10.6121 N.am    1  UNL1       -0.2826
     14 C          57.9332   82.1951    9.7945 C.2     1  UNL1        0.2442
     15 O          57.2751   81.1309    9.6354 O.2     1  UNL1       -0.2730
     16 H          56.3858   83.0982   10.9403 H       1  UNL1        0.1549
     17 C          59.2945   82.3248    9.1323 C.3     1  UNL1        0.1521
     18 C          59.2766   81.7627    7.7084 C.3     1  UNL1        0.0310
     19 C          59.8128   80.3392    7.8250 C.3     1  UNL1        0.0237
     20 C          60.6565   80.3220    9.0935 C.3     1  UNL1        0.0939
     21 N          60.2820   81.5150    9.8392 N.am    1  UNL1       -0.2714
     22 C          61.0442   82.0015   10.9609 C.2     1  UNL1        0.2482
     23 O          61.0715   83.2356   11.2068 O.2     1  UNL1       -0.2727
     24 C          61.8633   81.0718   11.8220 C.3     1  UNL1        0.1743
     25 C          62.8333   81.8637   12.6770 C.ar    1  UNL1        0.0044
     26 C          64.1904   81.9830   12.3148 C.ar    1  UNL1       -0.0022
     27 C          65.0730   82.7172   13.1128 C.ar    1  UNL1       -0.0003
     28 C          64.6153   83.3375   14.2767 C.ar    1  UNL1       -0.0000
     29 C          63.2732   83.2254   14.6463 C.ar    1  UNL1       -0.0003
     30 C          62.3851   82.4940   13.8522 C.ar    1  UNL1       -0.0022
     31 N          60.9831   80.2512   12.6629 N.am    1  UNL1       -0.2606
     32 C          60.7356   78.8685   12.3842 C.2     1  UNL1        0.4023
     33 O          61.3401   78.2912   11.4385 O.2     1  UNL1       -0.2264
     34 H          60.4672   80.6822   13.4635 H       1  UNL1        0.1535
     35 O          59.8142   78.1683   13.1674 O.3     1  UNL1       -0.4306
     36 C          58.7653   78.8147   13.8781 C.3     1  UNL1        0.2573
     37 C          64.8307   89.6812   14.6037 C.2     1  UNL1        0.2442
     38 O          63.9275   90.4845   14.2458 O.2     1  UNL1       -0.2730
     39 N          64.4961   88.4019   15.1624 N.am    1  UNL1       -0.2826
     40 H          65.2449   87.9244   15.7141 H       1  UNL1        0.1549
     41 C          65.9190   91.4838   12.3418 C.2     1  UNL1        0.2482
     42 O          65.5441   92.6453   12.0251 O.2     1  UNL1       -0.2727
     43 N          66.4609   91.2710   13.6645 N.am    1  UNL1       -0.2714
     44 C          67.2007   92.3202   14.3465 C.3     1  UNL1        0.0939
     45 C          67.7119   91.6966   15.6364 C.3     1  UNL1        0.0237
     46 C          66.8178   90.4890   15.8864 C.3     1  UNL1        0.0310
     47 C          66.2751   90.0934   14.5117 C.3     1  UNL1        0.1521
     48 C          65.8083   90.4027   11.2838 C.3     1  UNL1        0.1743
     49 C          61.7613   89.1197   10.3850 C.ar    1  UNL1       -0.0222
     50 C          62.8403   88.7105    9.5879 C.ar    1  UNL1       -0.0045
     51 C          64.1378   89.1363    9.8837 C.ar    1  UNL1       -0.0025
     52 C          64.3848   89.9621   10.9943 C.ar    1  UNL1        0.0044
     53 C          63.2963   90.3669   11.7926 C.ar    1  UNL1       -0.0025
     54 C          61.9996   89.9448   11.4929 C.ar    1  UNL1       -0.0045
     55 C          60.3037   87.9976    8.7048 C.3     1  UNL1        0.0050
     56 C          60.3696   88.6292   10.0913 C.3     1  UNL1        0.0264
     57 N          66.5266   90.8087   10.0695 N.am    1  UNL1       -0.2606
     58 C          67.9581   90.8144    9.9887 C.2     1  UNL1        0.4023
     59 O          68.6556   90.6081   11.0201 O.2     1  UNL1       -0.2264
     60 H          65.9907   90.9705    9.1884 H       1  UNL1        0.1535
     61 O          68.5755   91.0506    8.7573 O.3     1  UNL1       -0.4306
     62 C          68.5048   92.3106    8.0995 C.3     1  UNL1        0.2573
@<TRIPOS>BOND
     1    55    56    1
     2    56    49    1
     3    49    50   ar
     4    50    51   ar
     5    51    52   ar
     6    52    48    1
     7    48    57    1
     8    57    58   am
     9    58    59    2
    10    58    61    1
    11    61    62    1
    12    48    41    1
    13    41    42    2
    14    41    43   am
    15    43    44    1
    16    44    45    1
    17    45    46    1
    18    46    47    1
    19    47    37    1
    20    37    38    2
    21    37    39   am
    22    39     1    1
    23     1     2   ar
    24     2     3   ar
    25     3     4   ar
    26     4     7    1
    27     7     8   ar
    28     8     9   ar
    29     9    10   ar
    30    10    13    1
    31    13    14   am
    32    14    15    2
    33    14    17    1
    34    17    18    1
    35    18    19    1
    36    19    20    1
    37    20    21    1
    38    21    22   am
    39    22    23    2
    40    22    24    1
    41    24    31    1
    42    31    32   am
    43    32    33    2
    44    32    35    1
    45    35    36    1
    46    24    25    1
    47    25    26   ar
    48    26    27   ar
    49    27    28   ar
    50    28    29   ar
    51    29    30   ar
    52    10    11   ar
    53    11    12   ar
    54     4     5   ar
    55     5     6   ar
    56    52    53   ar
    57    53    54   ar
    58    54    49   ar
    59    47    43    1
    60     6     1   ar
    61    12     7   ar
    62    21    17    1
    63    30    25   ar
    64    57    60    1
    65    39    40    1
    66    13    16    1
    67    31    34    1
@<TRIPOS>MOLECULE
*****
 62 67 0 0 0
SMALL
GASTEIGER

@<TRIPOS>ATOM
      1 C          63.2508   89.0151   10.8401 C.ar    1  UNL1        0.0503
      2 C          63.1080   88.8446    9.4572 C.ar    1  UNL1        0.0147
      3 C          62.3528   87.7892    8.9479 C.ar    1  UNL1        0.0013
      4 C          61.7515   86.8578    9.8135 C.ar    1  UNL1        0.0001
      5 C          61.9656   86.9817   11.1973 C.ar    1  UNL1        0.0013
      6 C          62.7119   88.0486   11.7067 C.ar    1  UNL1        0.0147
      7 C          60.8160   85.8406    9.2720 C.ar    1  UNL1        0.0001
      8 C          61.2316   84.9688    8.2474 C.ar    1  UNL1        0.0013
      9 C          60.4689   83.8430    7.9257 C.ar    1  UNL1        0.0147
     10 C          59.2932   83.5678    8.6338 C.ar    1  UNL1        0.0503
     11 C          58.8090   84.4974    9.5604 C.ar    1  UNL1        0.0147
     12 C          59.5645   85.6274    9.8789 C.ar    1  UNL1        0.0013
     13 N          58.6120   82.3233    8.4625 N.am    1  UNL1       -0.2826
     14 C          59.0094   81.1344    9.1677 C.2     1  UNL1        0.2442
     15 O          58.1208   80.2964    9.4825 O.2     1  UNL1       -0.2730
     16 H          57.6174   82.3758    8.1459 H       1  UNL1        0.1549
     17 C          60.4515   80.8606    9.5600 C.3     1  UNL1        0.1521
     18 C          60.8336   79.4023    9.2933 C.3     1  UNL1        0.0310
     19 C          60.6588   78.6842   10.6280 C.3     1  UNL1        0.0237
     20 C          60.7863   79.7650   11.6943 C.3     1  UNL1        0.0939
     21 N          60.6278   81.0339   10.9985 N.am    1  UNL1       -0.2714
     22 C          60.9507   82.2994   11.6071 C.2     1  UNL1        0.2482
     23 O          61.3509   83.2518   10.8882 O.2     1  UNL1       -0.2727
     24 C          60.8765   82.4993   13.1008 C.3     1  UNL1        0.1743
     25 C          62.2625   82.7296   13.6708 C.ar    1  UNL1        0.0044
     26 C          62.8476   84.0121   13.6620 C.ar    1  UNL1       -0.0022
     27 C          64.1262   84.2092   14.1920 C.ar    1  UNL1       -0.0003
     28 C          64.8340   83.1347   14.7338 C.ar    1  UNL1       -0.0000
     29 C          64.2650   81.8593   14.7471 C.ar    1  UNL1       -0.0003
     30 C          62.9863   81.6556   14.2201 C.ar    1  UNL1       -0.0022
     31 N          59.9922   83.6272   13.4187 N.am    1  UNL1       -0.2606
     32 C          58.5940   83.6096   13.1097 C.2     1  UNL1        0.4023
     33 O          58.0631   82.5747   12.6194 O.2     1  UNL1       -0.2264
     34 H          60.3838   84.5029   13.8341 H       1  UNL1        0.1535
     35 O          57.8265   84.7518   13.3523 O.3     1  UNL1       -0.4306
     36 C          58.3847   86.0599   13.3716 C.3     1  UNL1        0.2573
     37 C          64.3829   91.2388   10.4666 C.2     1  UNL1        0.2442
     38 O          63.6863   91.6318    9.4922 O.2     1  UNL1       -0.2730
     39 N          63.9136   90.1922   11.3297 N.am    1  UNL1       -0.2826
     40 H          64.3660   90.1260   12.2699 H       1  UNL1        0.1549
     41 C          66.2185   90.3755   12.7980 C.2     1  UNL1        0.2482
     42 O          66.7360   89.2439   13.0019 O.2     1  UNL1       -0.2727
     43 N          66.5697   91.0866   11.5899 N.am    1  UNL1       -0.2714
     44 C          67.8874   90.9408   10.9934 C.3     1  UNL1        0.0939
     45 C          67.9271   91.9197    9.8297 C.3     1  UNL1        0.0237
     46 C          66.4702   92.2053    9.4889 C.3     1  UNL1        0.0310
     47 C          65.6889   91.9209   10.7733 C.3     1  UNL1        0.1521
     48 C          65.2929   90.9218   13.8680 C.3     1  UNL1        0.1743
     49 C          63.0730   87.8241   15.9439 C.ar    1  UNL1       -0.0222
     50 C          63.9384   87.5049   14.8874 C.ar    1  UNL1       -0.0045
     51 C          64.6421   88.5122   14.2224 C.ar    1  UNL1       -0.0025
     52 C          64.5108   89.8559   14.6143 C.ar    1  UNL1        0.0044
     53 C          63.6418   90.1692   15.6786 C.ar    1  UNL1       -0.0025
     54 C          62.9353   89.1620   16.3389 C.ar    1  UNL1       -0.0045
     55 C          61.1954   86.1893   15.8486 C.3     1  UNL1        0.0050
     56 C          62.3460   86.7364   16.6869 C.3     1  UNL1        0.0264
     57 N          66.0343   91.8086   14.7729 N.am    1  UNL1       -0.2606
     58 C          67.2798   91.4282   15.3726 C.2     1  UNL1        0.4023
     59 O          67.7093   90.2472   15.2551 O.2     1  UNL1       -0.2264
     60 H          65.7252   92.7995   14.8846 H       1  UNL1        0.1535
     61 O          68.0151   92.3764   16.0892 O.3     1  UNL1       -0.4306
     62 C          69.3427   92.7412   15.7289 C.3     1  UNL1        0.2573
@<TRIPOS>BOND
     1    55    56    1
     2    56    49    1
     3    49    50   ar
     4    50    51   ar
     5    51    52   ar
     6    52    48    1
     7    48    57    1
     8    57    58   am
     9    58    59    2
    10    58    61    1
    11    61    62    1
    12    48    41    1
    13    41    42    2
    14    41    43   am
    15    43    44    1
    16    44    45    1
    17    45    46    1
    18    46    47    1
    19    47    37    1
    20    37    38    2
    21    37    39   am
    22    39     1    1
    23     1     2   ar
    24     2     3   ar
    25     3     4   ar
    26     4     7    1
    27     7     8   ar
    28     8     9   ar
    29     9    10   ar
    30    10    13    1
    31    13    14   am
    32    14    15    2
    33    14    17    1
    34    17    18    1
    35    18    19    1
    36    19    20    1
    37    20    21    1
    38    21    22   am
    39    22    23    2
    40    22    24    1
    41    24    31    1
    42    31    32   am
    43    32    33    2
    44    32    35    1
    45    35    36    1
    46    24    25    1
    47    25    26   ar
    48    26    27   ar
    49    27    28   ar
    50    28    29   ar
    51    29    30   ar
    52    10    11   ar
    53    11    12   ar
    54     4     5   ar
    55     5     6   ar
    56    52    53   ar
    57    53    54   ar
    58    54    49   ar
    59    47    43    1
    60     6     1   ar
    61    12     7   ar
    62    21    17    1
    63    30    25   ar
    64    57    60    1
    65    39    40    1
    66    13    16    1
    67    31    34    1
@<TRIPOS>MOLECULE
*****
 62 67 0 0 0
SMALL
GASTEIGER

@<TRIPOS>ATOM
      1 C          61.9585   83.2839   10.8954 C.ar    1  UNL1        0.0503
      2 C          62.7595   82.9843   12.0047 C.ar    1  UNL1        0.0147
      3 C          63.0562   83.9653   12.9497 C.ar    1  UNL1        0.0013
      4 C          62.5858   85.2807   12.7861 C.ar    1  UNL1        0.0001
      5 C          61.8530   85.5998   11.6298 C.ar    1  UNL1        0.0013
      6 C          61.5451   84.6114   10.6902 C.ar    1  UNL1        0.0147
      7 C          62.7649   86.2718   13.8764 C.ar    1  UNL1        0.0001
      8 C          63.9861   86.3469   14.5733 C.ar    1  UNL1        0.0013
      9 C          64.2621   87.4401   15.3986 C.ar    1  UNL1        0.0147
     10 C          63.3293   88.4763   15.5237 C.ar    1  UNL1        0.0503
     11 C          62.0652   88.3447   14.9390 C.ar    1  UNL1        0.0147
     12 C          61.7830   87.2499   14.1199 C.ar    1  UNL1        0.0013
     13 N          63.6728   89.6909   16.1939 N.am    1  UNL1       -0.2826
     14 C          64.6185   90.6237   15.6422 C.2     1  UNL1        0.2442
     15 O          64.4577   91.8526   15.8762 O.2     1  UNL1       -0.2730
     16 H          62.9628   90.0737   16.8583 H       1  UNL1        0.1549
     17 C          65.7890   90.1858   14.7782 C.3     1  UNL1        0.1521
     18 C          67.1139   90.7311   15.3180 C.3     1  UNL1        0.0310
     19 C          67.3926   91.9964   14.5125 C.3     1  UNL1        0.0237
     20 C          66.6268   91.8274   13.2063 C.3     1  UNL1        0.0939
     21 N          65.6716   90.7536   13.4387 N.am    1  UNL1       -0.2714
     22 C          64.9486   90.1119   12.3703 C.2     1  UNL1        0.2482
     23 O          64.6107   88.9049   12.4844 O.2     1  UNL1       -0.2727
     24 C          64.6325   90.8354   11.0845 C.3     1  UNL1        0.1743
     25 C          65.9091   91.3203   10.4254 C.ar    1  UNL1        0.0044
     26 C          65.9960   92.6154    9.8757 C.ar    1  UNL1       -0.0022
     27 C          67.1801   93.0488    9.2717 C.ar    1  UNL1       -0.0003
     28 C          68.2864   92.1996    9.2082 C.ar    1  UNL1       -0.0000
     29 C          68.2118   90.9139    9.7485 C.ar    1  UNL1       -0.0003
     30 C          67.0313   90.4748   10.3550 C.ar    1  UNL1       -0.0022
     31 N          63.8838   89.9563   10.1781 N.am    1  UNL1       -0.2606
     32 C          62.5912   89.4393   10.5136 C.2     1  UNL1        0.4023
     33 O          62.0199   89.7961   11.5811 O.2     1  UNL1       -0.2264
     34 H          64.3113   89.6404    9.2779 H       1  UNL1        0.1535
     35 O          61.9729   88.5323    9.6489 O.3     1  UNL1       -0.4306
     36 C          60.5749   88.2726    9.6831 C.3     1  UNL1        0.2573
     37 C          60.5683   82.3819    8.9928 C.2     1  UNL1        0.2442
     38 O          60.5490   83.4204    8.2785 O.2     1  UNL1       -0.2730
     39 N          61.5557   82.2168   10.0215 N.am    1  UNL1       -0.2826
     40 H          61.7192   81.2404   10.3578 H       1  UNL1        0.1549
     41 C          57.5066   82.7546    9.1858 C.2     1  UNL1        0.2482
     42 O          56.7823   83.5750    8.5594 O.2     1  UNL1       -0.2727
     43 N          58.2492   81.7727    8.4290 N.am    1  UNL1       -0.2714
     44 C          57.7290   81.2432    7.1790 C.3     1  UNL1        0.0939
     45 C          58.7086   80.1629    6.7461 C.3     1  UNL1        0.0237
     46 C          60.0062   80.4723    7.4815 C.3     1  UNL1        0.0310
     47 C          59.5915   81.2701    8.7195 C.3     1  UNL1        0.1521
     48 C          57.5066   82.8393   10.7002 C.3     1  UNL1        0.1743
     49 C          59.6626   79.6367   12.6818 C.ar    1  UNL1       -0.0222
     50 C          59.9425   80.9802   12.9714 C.ar    1  UNL1       -0.0045
     51 C          59.2461   82.0022   12.3213 C.ar    1  UNL1       -0.0025
     52 C          58.2418   81.7012   11.3847 C.ar    1  UNL1        0.0044
     53 C          57.9638   80.3492   11.1008 C.ar    1  UNL1       -0.0025
     54 C          58.6640   79.3288   11.7475 C.ar    1  UNL1       -0.0045
     55 C          61.7005   79.0442   13.9868 C.3     1  UNL1        0.0050
     56 C          60.3833   78.5354   13.4107 C.3     1  UNL1        0.0264
     57 N          57.9878   84.1571   11.1325 N.am    1  UNL1       -0.2606
     58 C          57.7747   84.6560   12.4597 C.2     1  UNL1        0.4023
     59 O          57.0295   84.0306   13.2637 O.2     1  UNL1       -0.2264
     60 H          58.6227   84.7002   10.5066 H       1  UNL1        0.1535
     61 O          58.3993   85.8417   12.8562 O.3     1  UNL1       -0.4306
     62 C          57.7154   86.8561   13.5833 C.3     1  UNL1        0.2573
@<TRIPOS>BOND
     1    55    56    1
     2    56    49    1
     3    49    50   ar
     4    50    51   ar
     5    51    52   ar
     6    52    48    1
     7    48    57    1
     8    57    58   am
     9    58    59    2
    10    58    61    1
    11    61    62    1
    12    48    41    1
    13    41    42    2
    14    41    43   am
    15    43    44    1
    16    44    45    1
    17    45    46    1
    18    46    47    1
    19    47    37    1
    20    37    38    2
    21    37    39   am
    22    39     1    1
    23     1     2   ar
    24     2     3   ar
    25     3     4   ar
    26     4     7    1
    27     7     8   ar
    28     8     9   ar
    29     9    10   ar
    30    10    13    1
    31    13    14   am
    32    14    15    2
    33    14    17    1
    34    17    18    1
    35    18    19    1
    36    19    20    1
    37    20    21    1
    38    21    22   am
    39    22    23    2
    40    22    24    1
    41    24    31    1
    42    31    32   am
    43    32    33    2
    44    32    35    1
    45    35    36    1
    46    24    25    1
    47    25    26   ar
    48    26    27   ar
    49    27    28   ar
    50    28    29   ar
    51    29    30   ar
    52    10    11   ar
    53    11    12   ar
    54     4     5   ar
    55     5     6   ar
    56    52    53   ar
    57    53    54   ar
    58    54    49   ar
    59    47    43    1
    60     6     1   ar
    61    12     7   ar
    62    21    17    1
    63    30    25   ar
    64    57    60    1
    65    39    40    1
    66    13    16    1
    67    31    34    1
@<TRIPOS>MOLECULE
*****
 62 67 0 0 0
SMALL
GASTEIGER

@<TRIPOS>ATOM
      1 C          64.5145   87.1285   14.8869 C.ar    1  UNL1        0.0503
      2 C          65.0608   85.8802   15.2112 C.ar    1  UNL1        0.0147
      3 C          64.4543   84.7052   14.7692 C.ar    1  UNL1        0.0013
      4 C          63.2645   84.7530   14.0208 C.ar    1  UNL1        0.0001
      5 C          62.6721   86.0024   13.7681 C.ar    1  UNL1        0.0013
      6 C          63.2891   87.1802   14.2005 C.ar    1  UNL1        0.0147
      7 C          62.7205   83.5118   13.4154 C.ar    1  UNL1        0.0001
      8 C          62.4688   83.4487   12.0314 C.ar    1  UNL1        0.0013
      9 C          62.2243   82.2196   11.4134 C.ar    1  UNL1        0.0147
     10 C          62.2444   81.0404   12.1674 C.ar    1  UNL1        0.0503
     11 C          62.3636   81.1103   13.5595 C.ar    1  UNL1        0.0147
     12 C          62.6004   82.3375   14.1814 C.ar    1  UNL1        0.0013
     13 N          62.2013   79.7635   11.5270 N.am    1  UNL1       -0.2826
     14 C          60.9597   79.1396   11.1554 C.2     1  UNL1        0.2442
     15 O          60.9386   78.4063   10.1294 O.2     1  UNL1       -0.2730
     16 H          63.0519   79.4829   10.9886 H       1  UNL1        0.1549
     17 C          59.6753   79.3443   11.9406 C.3     1  UNL1        0.1521
     18 C          58.7467   78.1336   11.8142 C.3     1  UNL1        0.0310
     19 C          57.7611   78.4896   10.7054 C.3     1  UNL1        0.0237
     20 C          57.7342   80.0121   10.6546 C.3     1  UNL1        0.0939
     21 N          58.9124   80.4576   11.3847 N.am    1  UNL1       -0.2714
     22 C          59.1018   81.8261   11.7935 C.2     1  UNL1        0.2482
     23 O          59.7547   82.0786   12.8395 O.2     1  UNL1       -0.2727
     24 C          58.4863   82.9715   11.0282 C.3     1  UNL1        0.1743
     25 C          58.3433   84.1867   11.9237 C.ar    1  UNL1        0.0044
     26 C          57.2565   84.3098   12.8130 C.ar    1  UNL1       -0.0022
     27 C          57.1385   85.4359   13.6331 C.ar    1  UNL1       -0.0003
     28 C          58.0977   86.4486   13.5761 C.ar    1  UNL1       -0.0000
     29 C          59.1783   86.3382   12.6982 C.ar    1  UNL1       -0.0003
     30 C          59.3031   85.2142   11.8763 C.ar    1  UNL1       -0.0022
     31 N          59.3008   83.2904    9.8492 N.am    1  UNL1       -0.2606
     32 C          58.7189   83.7380    8.6198 C.2     1  UNL1        0.4023
     33 O          57.4767   83.9485    8.5425 O.2     1  UNL1       -0.2264
     34 H          60.3353   83.1411    9.8675 H       1  UNL1        0.1535
     35 O          59.5406   83.9338    7.5067 O.3     1  UNL1       -0.4306
     36 C          60.7975   83.2848    7.3588 C.3     1  UNL1        0.2573
     37 C          65.3101   89.4691   14.3825 C.2     1  UNL1        0.2442
     38 O          64.2880   89.8758   13.7667 O.2     1  UNL1       -0.2730
     39 N          65.2429   88.3168   15.2358 N.am    1  UNL1       -0.2826
     40 H          66.0072   88.2151   15.9420 H       1  UNL1        0.1549
     41 C          65.7698   91.6965   12.2901 C.2     1  UNL1        0.2482
     42 O          65.0996   92.7504   12.1168 O.2     1  UNL1       -0.2727
     43 N          66.4322   91.5017   13.5597 N.am    1  UNL1       -0.2714
     44 C          66.9323   92.6334   14.3228 C.3     1  UNL1        0.0939
     45 C          67.6645   92.0385   15.5161 C.3     1  UNL1        0.0237
     46 C          67.1148   90.6260   15.6675 C.3     1  UNL1        0.0310
     47 C          66.5987   90.2398   14.2799 C.3     1  UNL1        0.1521
     48 C          65.8613   90.7291   11.1256 C.3     1  UNL1        0.1743
     49 C          62.1096   88.7835   10.1400 C.ar    1  UNL1       -0.0222
     50 C          62.6074   89.8300    9.3500 C.ar    1  UNL1       -0.0045
     51 C          63.8131   90.4530    9.6821 C.ar    1  UNL1       -0.0025
     52 C          64.5553   90.0281   10.7979 C.ar    1  UNL1        0.0044
     53 C          64.0506   88.9740   11.5854 C.ar    1  UNL1       -0.0025
     54 C          62.8430   88.3557   11.2553 C.ar    1  UNL1       -0.0045
     55 C          61.1288   86.8044    8.9874 C.3     1  UNL1        0.0050
     56 C          60.8321   88.0852    9.7603 C.3     1  UNL1        0.0264
     57 N          66.4459   91.3986    9.9572 N.am    1  UNL1       -0.2606
     58 C          67.8417   91.3136    9.6408 C.2     1  UNL1        0.4023
     59 O          68.6468   90.7743   10.4494 O.2     1  UNL1       -0.2264
     60 H          65.8151   91.8408    9.2527 H       1  UNL1        0.1535
     61 O          68.3040   91.8334    8.4287 O.3     1  UNL1       -0.4306
     62 C          67.9113   93.1151    7.9508 C.3     1  UNL1        0.2573
@<TRIPOS>BOND
     1    55    56    1
     2    56    49    1
     3    49    50   ar
     4    50    51   ar
     5    51    52   ar
     6    52    48    1
     7    48    57    1
     8    57    58   am
     9    58    59    2
    10    58    61    1
    11    61    62    1
    12    48    41    1
    13    41    42    2
    14    41    43   am
    15    43    44    1
    16    44    45    1
    17    45    46    1
    18    46    47    1
    19    47    37    1
    20    37    38    2
    21    37    39   am
    22    39     1    1
    23     1     2   ar
    24     2     3   ar
    25     3     4   ar
    26     4     7    1
    27     7     8   ar
    28     8     9   ar
    29     9    10   ar
    30    10    13    1
    31    13    14   am
    32    14    15    2
    33    14    17    1
    34    17    18    1
    35    18    19    1
    36    19    20    1
    37    20    21    1
    38    21    22   am
    39    22    23    2
    40    22    24    1
    41    24    31    1
    42    31    32   am
    43    32    33    2
    44    32    35    1
    45    35    36    1
    46    24    25    1
    47    25    26   ar
    48    26    27   ar
    49    27    28   ar
    50    28    29   ar
    51    29    30   ar
    52    10    11   ar
    53    11    12   ar
    54     4     5   ar
    55     5     6   ar
    56    52    53   ar
    57    53    54   ar
    58    54    49   ar
    59    47    43    1
    60     6     1   ar
    61    12     7   ar
    62    21    17    1
    63    30    25   ar
    64    57    60    1
    65    39    40    1
    66    13    16    1
    67    31    34    1
@<TRIPOS>MOLECULE
*****
 62 67 0 0 0
SMALL
GASTEIGER

@<TRIPOS>ATOM
      1 C          60.1699   82.8901   13.1190 C.ar    1  UNL1        0.0503
      2 C          59.5874   84.1632   13.0755 C.ar    1  UNL1        0.0147
      3 C          60.2609   85.2683   13.5939 C.ar    1  UNL1        0.0013
      4 C          61.5205   85.1173   14.2012 C.ar    1  UNL1        0.0001
      5 C          62.0660   83.8272   14.3194 C.ar    1  UNL1        0.0013
      6 C          61.3952   82.7222   13.7867 C.ar    1  UNL1        0.0147
      7 C          62.2998   86.3168   14.5975 C.ar    1  UNL1        0.0001
      8 C          62.1014   87.5428   13.9339 C.ar    1  UNL1        0.0013
      9 C          62.6153   88.7268   14.4693 C.ar    1  UNL1        0.0147
     10 C          63.3179   88.7010   15.6797 C.ar    1  UNL1        0.0503
     11 C          63.6294   87.4733   16.2738 C.ar    1  UNL1        0.0147
     12 C          63.1242   86.2875   15.7375 C.ar    1  UNL1        0.0013
     13 N          63.6716   89.9155   16.3447 N.am    1  UNL1       -0.2826
     14 C          64.6559   90.8177   15.8097 C.2     1  UNL1        0.2442
     15 O          64.5188   92.0531   16.0237 O.2     1  UNL1       -0.2730
     16 H          62.9522   90.3242   16.9831 H       1  UNL1        0.1549
     17 C          65.8399   90.3401   14.9861 C.3     1  UNL1        0.1521
     18 C          67.1622   90.8521   15.5634 C.3     1  UNL1        0.0310
     19 C          67.5018   92.1026   14.7583 C.3     1  UNL1        0.0237
     20 C          66.7728   91.9449   13.4297 C.3     1  UNL1        0.0939
     21 N          65.7806   90.9004   13.6396 N.am    1  UNL1       -0.2714
     22 C          65.0734   90.2709   12.5535 C.2     1  UNL1        0.2482
     23 O          64.6979   89.0748   12.6654 O.2     1  UNL1       -0.2727
     24 C          64.8184   90.9927   11.2533 C.3     1  UNL1        0.1743
     25 C          66.1293   91.3046   10.5581 C.ar    1  UNL1        0.0044
     26 C          67.2179   90.4115   10.6262 C.ar    1  UNL1       -0.0022
     27 C          68.4203   90.7123    9.9794 C.ar    1  UNL1       -0.0003
     28 C          68.5514   91.9020    9.2608 C.ar    1  UNL1       -0.0000
     29 C          67.4801   92.7950    9.1871 C.ar    1  UNL1       -0.0003
     30 C          66.2746   92.4998    9.8305 C.ar    1  UNL1       -0.0022
     31 N          63.9517   90.1855   10.3859 N.am    1  UNL1       -0.2606
     32 C          62.6144   89.8348   10.7592 C.2     1  UNL1        0.4023
     33 O          62.1122   90.2848   11.8262 O.2     1  UNL1       -0.2264
     34 H          64.3197   89.7976    9.4876 H       1  UNL1        0.1535
     35 O          61.8750   88.9855    9.9319 O.3     1  UNL1       -0.4306
     36 C          61.0734   87.9268   10.4413 C.3     1  UNL1        0.2573
     37 C          59.9652   80.4434   12.5379 C.2     1  UNL1        0.2442
     38 O          60.3588   79.9660   13.6362 O.2     1  UNL1       -0.2730
     39 N          59.5125   81.8026   12.4484 N.am    1  UNL1       -0.2826
     40 H          58.9220   82.0433   11.6198 H       1  UNL1        0.1549
     41 C          60.6890   81.4395    9.7035 C.2     1  UNL1        0.2482
     42 O          61.7771   81.9405    9.3099 O.2     1  UNL1       -0.2727
     43 N          60.6971   80.0872   10.2131 N.am    1  UNL1       -0.2714
     44 C          61.6318   79.1002    9.6978 C.3     1  UNL1        0.0939
     45 C          61.2629   77.7874   10.3719 C.3     1  UNL1        0.0237
     46 C          60.4812   78.1767   11.6200 C.3     1  UNL1        0.0310
     47 C          59.9008   79.5604   11.3209 C.3     1  UNL1        0.1521
     48 C          59.4408   82.2906    9.5695 C.3     1  UNL1        0.1743
     49 C          60.0438   86.1611    7.7019 C.ar    1  UNL1       -0.0222
     50 C          58.7677   85.7522    8.1159 C.ar    1  UNL1       -0.0045
     51 C          58.5856   84.5006    8.7095 C.ar    1  UNL1       -0.0025
     52 C          59.6787   83.6420    8.9203 C.ar    1  UNL1        0.0044
     53 C          60.9585   84.0605    8.5046 C.ar    1  UNL1       -0.0025
     54 C          61.1383   85.3095    7.9069 C.ar    1  UNL1       -0.0045
     55 C          58.9242   88.0951    6.6006 C.3     1  UNL1        0.0050
     56 C          60.2476   87.5247    7.0997 C.3     1  UNL1        0.0264
     57 N          58.3785   81.5281    8.9022 N.am    1  UNL1       -0.2606
     58 C          58.4816   81.0976    7.5385 C.2     1  UNL1        0.4023
     59 O          59.4383   81.4924    6.8161 O.2     1  UNL1       -0.2264
     60 H          57.5781   81.1654    9.4659 H       1  UNL1        0.1535
     61 O          57.5133   80.2364    7.0151 O.3     1  UNL1       -0.4306
     62 C          57.7408   79.4547    5.8478 C.3     1  UNL1        0.2573
@<TRIPOS>BOND
     1    55    56    1
     2    56    49    1
     3    49    50   ar
     4    50    51   ar
     5    51    52   ar
     6    52    48    1
     7    48    57    1
     8    57    58   am
     9    58    59    2
    10    58    61    1
    11    61    62    1
    12    48    41    1
    13    41    42    2
    14    41    43   am
    15    43    44    1
    16    44    45    1
    17    45    46    1
    18    46    47    1
    19    47    37    1
    20    37    38    2
    21    37    39   am
    22    39     1    1
    23     1     2   ar
    24     2     3   ar
    25     3     4   ar
    26     4     7    1
    27     7     8   ar
    28     8     9   ar
    29     9    10   ar
    30    10    13    1
    31    13    14   am
    32    14    15    2
    33    14    17    1
    34    17    18    1
    35    18    19    1
    36    19    20    1
    37    20    21    1
    38    21    22   am
    39    22    23    2
    40    22    24    1
    41    24    31    1
    42    31    32   am
    43    32    33    2
    44    32    35    1
    45    35    36    1
    46    24    25    1
    47    25    26   ar
    48    26    27   ar
    49    27    28   ar
    50    28    29   ar
    51    29    30   ar
    52    10    11   ar
    53    11    12   ar
    54     4     5   ar
    55     5     6   ar
    56    52    53   ar
    57    53    54   ar
    58    54    49   ar
    59    47    43    1
    60     6     1   ar
    61    12     7   ar
    62    21    17    1
    63    30    25   ar
    64    57    60    1
    65    39    40    1
    66    13    16    1
    67    31    34    1
@<TRIPOS>MOLECULE
*****
 62 67 0 0 0
SMALL
GASTEIGER

@<TRIPOS>ATOM
      1 C          59.4654   83.5465   12.7987 C.ar    1  UNL1        0.0503
      2 C          59.1901   84.8958   12.5425 C.ar    1  UNL1        0.0147
      3 C          59.9776   85.8987   13.1062 C.ar    1  UNL1        0.0013
      4 C          61.0391   85.5734   13.9696 C.ar    1  UNL1        0.0001
      5 C          61.2612   84.2234   14.2923 C.ar    1  UNL1        0.0013
      6 C          60.4790   83.2184   13.7153 C.ar    1  UNL1        0.0147
      7 C          61.9711   86.6333   14.4290 C.ar    1  UNL1        0.0001
      8 C          62.1302   87.8129   13.6768 C.ar    1  UNL1        0.0013
      9 C          62.7806   88.9198   14.2284 C.ar    1  UNL1        0.0147
     10 C          63.2641   88.8657   15.5409 C.ar    1  UNL1        0.0503
     11 C          63.2250   87.6570   16.2442 C.ar    1  UNL1        0.0147
     12 C          62.5828   86.5466   15.6933 C.ar    1  UNL1        0.0013
     13 N          63.7454   90.0440   16.1908 N.am    1  UNL1       -0.2826
     14 C          64.7997   90.8460   15.6304 C.2     1  UNL1        0.2442
     15 O          64.7852   92.0897   15.8392 O.2     1  UNL1       -0.2730
     16 H          63.0816   90.5221   16.8410 H       1  UNL1        0.1549
     17 C          65.9157   90.2542   14.7860 C.3     1  UNL1        0.1521
     18 C          67.2910   90.6997   15.2899 C.3     1  UNL1        0.0310
     19 C          67.6799   91.8886   14.4165 C.3     1  UNL1        0.0237
     20 C          66.8894   91.7236   13.1245 C.3     1  UNL1        0.0939
     21 N          65.8395   90.7588   13.4185 N.am    1  UNL1       -0.2714
     22 C          65.0494   90.1325   12.3892 C.2     1  UNL1        0.2482
     23 O          64.6004   88.9705   12.5694 O.2     1  UNL1       -0.2727
     24 C          64.7907   90.8134   11.0678 C.3     1  UNL1        0.1743
     25 C          66.0963   91.2679   10.4450 C.ar    1  UNL1        0.0044
     26 C          67.2157   90.4123   10.3990 C.ar    1  UNL1       -0.0022
     27 C          68.4128   90.8451    9.8209 C.ar    1  UNL1       -0.0003
     28 C          68.5080   92.1307    9.2849 C.ar    1  UNL1       -0.0000
     29 C          67.4060   92.9876    9.3256 C.ar    1  UNL1       -0.0003
     30 C          66.2056   92.5607    9.9011 C.ar    1  UNL1       -0.0022
     31 N          64.0728   89.9081   10.1621 N.am    1  UNL1       -0.2606
     32 C          62.6960   89.5671   10.3595 C.2     1  UNL1        0.4023
     33 O          62.0328   90.1074   11.2877 O.2     1  UNL1       -0.2264
     34 H          64.5770   89.4431    9.3733 H       1  UNL1        0.1535
     35 O          62.0978   88.6266    9.5169 O.3     1  UNL1       -0.4306
     36 C          61.8784   87.2771    9.9086 C.3     1  UNL1        0.2573
     37 C          58.9276   81.1338   12.2931 C.2     1  UNL1        0.2442
     38 O          59.0915   80.6680   13.4529 O.2     1  UNL1       -0.2730
     39 N          58.7254   82.5402   12.0886 N.am    1  UNL1       -0.2826
     40 H          58.2947   82.8213   11.1783 H       1  UNL1        0.1549
     41 C          61.2576   79.2510   11.5340 C.2     1  UNL1        0.2482
     42 O          61.7999   78.3604   12.2431 O.2     1  UNL1       -0.2727
     43 N          59.8535   79.1204   11.2179 N.am    1  UNL1       -0.2714
     44 C          59.2408   77.8110   11.0649 C.3     1  UNL1        0.0939
     45 C          57.8102   78.0716   10.6184 C.3     1  UNL1        0.0237
     46 C          57.5099   79.5063   11.0329 C.3     1  UNL1        0.0310
     47 C          58.8715   80.1993   11.1148 C.3     1  UNL1        0.1521
     48 C          62.1418   80.3759   11.0310 C.3     1  UNL1        0.1743
     49 C          60.1902   83.1163    8.2899 C.ar    1  UNL1       -0.0222
     50 C          60.9274   83.5944    9.3830 C.ar    1  UNL1       -0.0045
     51 C          61.5452   82.7015   10.2624 C.ar    1  UNL1       -0.0025
     52 C          61.4559   81.3140   10.0542 C.ar    1  UNL1        0.0044
     53 C          60.7160   80.8408    8.9521 C.ar    1  UNL1       -0.0025
     54 C          60.0949   81.7341    8.0770 C.ar    1  UNL1       -0.0045
     55 C          58.9589   85.2697    8.0574 C.3     1  UNL1        0.0050
     56 C          59.5587   84.0773    7.3196 C.3     1  UNL1        0.0264
     57 N          62.7447   81.0897   12.1633 N.am    1  UNL1       -0.2606
     58 C          64.0146   81.7487   12.0685 C.2     1  UNL1        0.4023
     59 O          64.7299   81.6089   11.0381 O.2     1  UNL1       -0.2264
     60 H          62.1813   81.2450   13.0283 H       1  UNL1        0.1535
     61 O          64.4543   82.5477   13.1274 O.3     1  UNL1       -0.4306
     62 C          64.2615   82.1810   14.4889 C.3     1  UNL1        0.2573
@<TRIPOS>BOND
     1    55    56    1
     2    56    49    1
     3    49    50   ar
     4    50    51   ar
     5    51    52   ar
     6    52    48    1
     7    48    57    1
     8    57    58   am
     9    58    59    2
    10    58    61    1
    11    61    62    1
    12    48    41    1
    13    41    42    2
    14    41    43   am
    15    43    44    1
    16    44    45    1
    17    45    46    1
    18    46    47    1
    19    47    37    1
    20    37    38    2
    21    37    39   am
    22    39     1    1
    23     1     2   ar
    24     2     3   ar
    25     3     4   ar
    26     4     7    1
    27     7     8   ar
    28     8     9   ar
    29     9    10   ar
    30    10    13    1
    31    13    14   am
    32    14    15    2
    33    14    17    1
    34    17    18    1
    35    18    19    1
    36    19    20    1
    37    20    21    1
    38    21    22   am
    39    22    23    2
    40    22    24    1
    41    24    31    1
    42    31    32   am
    43    32    33    2
    44    32    35    1
    45    35    36    1
    46    24    25    1
    47    25    26   ar
    48    26    27   ar
    49    27    28   ar
    50    28    29   ar
    51    29    30   ar
    52    10    11   ar
    53    11    12   ar
    54     4     5   ar
    55     5     6   ar
    56    52    53   ar
    57    53    54   ar
    58    54    49   ar
    59    47    43    1
    60     6     1   ar
    61    12     7   ar
    62    21    17    1
    63    30    25   ar
    64    57    60    1
    65    39    40    1
    66    13    16    1
    67    31    34    1
@<TRIPOS>MOLECULE
*****
 62 67 0 0 0
SMALL
GASTEIGER

@<TRIPOS>ATOM
      1 C          62.3344   89.1926   10.4767 C.ar    1  UNL1        0.0503
      2 C          60.9456   89.2121   10.6571 C.ar    1  UNL1        0.0147
      3 C          60.1597   88.1459   10.2221 C.ar    1  UNL1        0.0013
      4 C          60.7444   87.0495    9.5630 C.ar    1  UNL1        0.0001
      5 C          62.1266   87.0702    9.3078 C.ar    1  UNL1        0.0013
      6 C          62.9148   88.1340    9.7570 C.ar    1  UNL1        0.0147
      7 C          59.9273   85.8494    9.2548 C.ar    1  UNL1        0.0001
      8 C          60.3318   84.9560    8.2443 C.ar    1  UNL1        0.0013
      9 C          59.7336   83.6982    8.1329 C.ar    1  UNL1        0.0147
     10 C          58.7376   83.3137    9.0382 C.ar    1  UNL1        0.0503
     11 C          58.2421   84.2432    9.9589 C.ar    1  UNL1        0.0147
     12 C          58.8322   85.5037   10.0680 C.ar    1  UNL1        0.0013
     13 N          58.2609   81.9668    9.0706 N.am    1  UNL1       -0.2826
     14 C          59.0915   80.8753    9.5037 C.2     1  UNL1        0.2442
     15 O          58.5459   79.8988   10.0864 O.2     1  UNL1       -0.2730
     16 H          57.2275   81.8400    9.1607 H       1  UNL1        0.1549
     17 C          60.5971   80.8638    9.3005 C.3     1  UNL1        0.1521
     18 C          61.0154   79.7834    8.2996 C.3     1  UNL1        0.0310
     19 C          61.4312   78.5833    9.1448 C.3     1  UNL1        0.0237
     20 C          61.8222   79.1542   10.5022 C.3     1  UNL1        0.0939
     21 N          61.2741   80.5023   10.5421 N.am    1  UNL1       -0.2714
     22 C          61.6543   81.4664   11.5430 C.2     1  UNL1        0.2482
     23 O          61.6484   82.6928   11.2602 O.2     1  UNL1       -0.2727
     24 C          62.1178   81.0404   12.9143 C.3     1  UNL1        0.1743
     25 C          63.0354   82.0903   13.5098 C.ar    1  UNL1        0.0044
     26 C          62.6051   82.9141   14.5697 C.ar    1  UNL1       -0.0022
     27 C          63.4628   83.8774   15.1092 C.ar    1  UNL1       -0.0003
     28 C          64.7536   84.0309   14.6001 C.ar    1  UNL1       -0.0000
     29 C          65.1907   83.2212   13.5494 C.ar    1  UNL1       -0.0003
     30 C          64.3387   82.2551   13.0063 C.ar    1  UNL1       -0.0022
     31 N          60.9633   80.8052   13.7901 N.am    1  UNL1       -0.2606
     32 C          60.2355   79.5720   13.7763 C.2     1  UNL1        0.4023
     33 O          60.6232   78.6116   13.0549 O.2     1  UNL1       -0.2264
     34 H          60.6101   81.5673   14.4123 H       1  UNL1        0.1535
     35 O          59.0895   79.4465   14.5660 O.3     1  UNL1       -0.4306
     36 C          58.3585   78.2307   14.6674 C.3     1  UNL1        0.2573
     37 C          64.5008   90.0609   11.4354 C.2     1  UNL1        0.2442
     38 O          65.2932   89.4257   10.6887 O.2     1  UNL1       -0.2730
     39 N          63.1255   90.2383   11.0643 N.am    1  UNL1       -0.2826
     40 H          62.6100   91.0116   11.5431 H       1  UNL1        0.1549
     41 C          64.3047   88.7076   14.2067 C.2     1  UNL1        0.2482
     42 O          64.7677   87.5892   14.5602 O.2     1  UNL1       -0.2727
     43 N          65.2282   89.7276   13.7650 N.am    1  UNL1       -0.2714
     44 C          66.5709   89.8091   14.3162 C.3     1  UNL1        0.0939
     45 C          67.1919   91.0601   13.7134 C.3     1  UNL1        0.0237
     46 C          66.3802   91.3526   12.4581 C.3     1  UNL1        0.0310
     47 C          65.0157   90.7023   12.6956 C.3     1  UNL1        0.1521
     48 C          62.8050   88.9069   14.3149 C.3     1  UNL1        0.1743
     49 C          60.4490   85.3371   13.5817 C.ar    1  UNL1       -0.0222
     50 C          60.1611   86.1800   14.6650 C.ar    1  UNL1       -0.0045
     51 C          60.9317   87.3227   14.8944 C.ar    1  UNL1       -0.0025
     52 C          61.9916   87.6565   14.0333 C.ar    1  UNL1        0.0044
     53 C          62.2733   86.8067   12.9450 C.ar    1  UNL1       -0.0025
     54 C          61.5056   85.6623   12.7199 C.ar    1  UNL1       -0.0045
     55 C          58.1299   84.4270   13.6121 C.3     1  UNL1        0.0050
     56 C          59.5947   84.1287   13.3102 C.3     1  UNL1        0.0264
     57 N          62.4680   89.5146   15.6080 N.am    1  UNL1       -0.2606
     58 C          63.1184   90.6958   16.0953 C.2     1  UNL1        0.4023
     59 O          64.1160   91.1716   15.4858 O.2     1  UNL1       -0.2264
     60 H          61.6385   89.1649   16.1366 H       1  UNL1        0.1535
     61 O          62.6385   91.3167   17.2517 O.3     1  UNL1       -0.4306
     62 C          61.6013   92.2907   17.2184 C.3     1  UNL1        0.2573
@<TRIPOS>BOND
     1    55    56    1
     2    56    49    1
     3    49    50   ar
     4    50    51   ar
     5    51    52   ar
     6    52    48    1
     7    48    57    1
     8    57    58   am
     9    58    59    2
    10    58    61    1
    11    61    62    1
    12    48    41    1
    13    41    42    2
    14    41    43   am
    15    43    44    1
    16    44    45    1
    17    45    46    1
    18    46    47    1
    19    47    37    1
    20    37    38    2
    21    37    39   am
    22    39     1    1
    23     1     2   ar
    24     2     3   ar
    25     3     4   ar
    26     4     7    1
    27     7     8   ar
    28     8     9   ar
    29     9    10   ar
    30    10    13    1
    31    13    14   am
    32    14    15    2
    33    14    17    1
    34    17    18    1
    35    18    19    1
    36    19    20    1
    37    20    21    1
    38    21    22   am
    39    22    23    2
    40    22    24    1
    41    24    31    1
    42    31    32   am
    43    32    33    2
    44    32    35    1
    45    35    36    1
    46    24    25    1
    47    25    26   ar
    48    26    27   ar
    49    27    28   ar
    50    28    29   ar
    51    29    30   ar
    52    10    11   ar
    53    11    12   ar
    54     4     5   ar
    55     5     6   ar
    56    52    53   ar
    57    53    54   ar
    58    54    49   ar
    59    47    43    1
    60     6     1   ar
    61    12     7   ar
    62    21    17    1
    63    30    25   ar
    64    57    60    1
    65    39    40    1
    66    13    16    1
    67    31    34    1
