@<TRIPOS>MOLECULE
*****
 52 58 0 0 0
SMALL
GASTEIGER

@<TRIPOS>ATOM
      1 C          59.2753   83.9012   13.5001 C.ar    1  UNL1        0.0481
      2 C          58.2441   84.2563   12.6129 C.ar    1  UNL1        0.0176
      3 C          57.7728   83.3418   11.6673 C.ar    1  UNL1        0.0382
      4 C          58.3264   82.0498   11.5898 C.ar    1  UNL1        0.1388
      5 C          59.3704   81.7063   12.4556 C.ar    1  UNL1        0.0382
      6 C          59.8360   82.6170   13.4080 C.ar    1  UNL1        0.0176
      7 N          61.5922   86.7232   14.8810 N.pl3   1  UNL1       -0.3041
      8 C          62.0028   85.3468   15.2193 C.3     1  UNL1        0.1122
      9 C          60.7830   84.4485   15.4702 C.3     1  UNL1        0.1122
     10 N          59.7086   84.8113   14.5333 N.pl3   1  UNL1       -0.3041
     11 C          59.2270   86.2046   14.5176 C.3     1  UNL1        0.1122
     12 C          60.2224   87.1372   15.2219 C.3     1  UNL1        0.1122
     13 C          63.8406   89.2358   12.2656 C.ar    1  UNL1        0.0699
     14 C          63.9975   89.3434   13.6550 C.ar    1  UNL1        0.0190
     15 C          63.2931   88.4982   14.5150 C.ar    1  UNL1        0.0160
     16 C          62.4262   87.5136   14.0022 C.ar    1  UNL1        0.0480
     17 C          62.3079   87.3805   12.6074 C.ar    1  UNL1        0.0160
     18 C          63.0056   88.2334   11.7485 C.ar    1  UNL1        0.0190
     19 N          65.9809   91.5232   10.4467 N.ar    1  UNL1       -0.2024
     20 N          64.9700   91.4187    9.5964 N.ar    1  UNL1       -0.1442
     21 C          64.0646   90.6005   10.1762 C.ar    1  UNL1        0.2073
     22 N          64.4820   90.1799   11.3907 N.ar    1  UNL1       -0.2398
     23 C          65.6875   90.7653   11.5215 C.ar    1  UNL1        0.3522
     24 O          66.4640   90.5848   12.4983 O.2     1  UNL1       -0.2444
     25 C          67.2127   92.2677   10.1611 C.3     1  UNL1        0.1099
     26 C          68.1249   91.4530    9.2335 C.3     1  UNL1        0.0265
     27 C          67.3855   93.8478    8.1569 C.3     1  UNL1        0.0021
     28 C          66.8667   93.6548    9.5814 C.3     1  UNL1        0.0245
     29 O          57.8801   81.0812   10.6744 O.3     1  UNL1       -0.4727
     30 C          58.4321   80.8374    9.3790 C.3     1  UNL1        0.2374
     31 C          59.0554   82.1173    8.8036 C.3     1  UNL1        0.1909
     32 C          59.6141   81.9168    7.4280 C.3     1  UNL1        0.1783
     33 O          60.7313   82.7428    7.3491 O.3     1  UNL1       -0.3267
     34 C          61.0742   83.0954    8.6764 C.3     1  UNL1        0.2296
     35 O          60.1316   82.5372    9.5754 O.3     1  UNL1       -0.3255
     36 C          61.0513   84.6286    8.8343 C.ar    1  UNL1        0.0409
     37 C          59.8650   85.2420    9.2944 C.ar    1  UNL1        0.0022
     38 C          59.8031   86.6139    9.5365 C.ar    1  UNL1        0.0113
     39 C          60.9189   87.4146    9.3113 C.ar    1  UNL1        0.0585
     40 CL         60.8397   89.1390    9.6226 Cl      1  UNL1       -0.0822
     41 C          62.0942   86.8454    8.8239 C.ar    1  UNL1        0.0226
     42 C          62.1750   85.4688    8.5747 C.ar    1  UNL1        0.0591
     43 CL         63.7073   84.8937    7.9178 Cl      1  UNL1       -0.0824
     44 C          62.4666   82.4585    9.0087 C.3     1  UNL1        0.1679
     45 N          62.4496   81.4743   10.1020 N.ar    1  UNL1       -0.3084
     46 C          61.7978   80.2983   10.0510 C.ar    1  UNL1        0.0979
     47 C          61.9462   79.6584   11.2552 C.ar    1  UNL1        0.1188
     48 N          62.6535   80.4392   12.0904 N.ar    1  UNL1       -0.2293
     49 C          62.9449   81.5452   11.3698 C.ar    1  UNL1        0.1201
     50 C          63.5838   82.7447   12.0416 C.3     1  UNL1        0.0569
     51 C          64.1318   82.4088   13.4332 C.3     1  UNL1        0.0079
     52 C          62.6929   83.9859   12.0482 C.3     1  UNL1        0.0079
@<TRIPOS>BOND
     1    27    28    1
     2    28    25    1
     3    25    26    1
     4    25    19    1
     5    19    20   ar
     6    20    21   ar
     7    21    22   ar
     8    22    13    1
     9    13    14   ar
    10    14    15   ar
    11    15    16   ar
    12    16     7    1
    13     7     8    1
    14     8     9    1
    15     9    10    1
    16    10     1    1
    17     1     2   ar
    18     2     3   ar
    19     3     4   ar
    20     4    29    1
    21    29    30    1
    22    30    31    1
    23    31    32    1
    24    32    33    1
    25    33    34    1
    26    34    44    1
    27    44    45    1
    28    45    46   ar
    29    46    47   ar
    30    47    48   ar
    31    48    49   ar
    32    49    50    1
    33    50    51    1
    34    50    52    1
    35    34    36    1
    36    36    37   ar
    37    37    38   ar
    38    38    39   ar
    39    39    40    1
    40    39    41   ar
    41    41    42   ar
    42    42    43    1
    43    34    35    1
    44     4     5   ar
    45     5     6   ar
    46    10    11    1
    47    11    12    1
    48    16    17   ar
    49    17    18   ar
    50    22    23   ar
    51    23    24    2
    52    23    19   ar
    53    18    13   ar
    54    12     7    1
    55     6     1   ar
    56    35    31    1
    57    49    45   ar
    58    42    36   ar
@<TRIPOS>MOLECULE
*****
 52 58 0 0 0
SMALL
GASTEIGER

@<TRIPOS>ATOM
      1 C          59.2101   84.6267   13.7084 C.ar    1  UNL1        0.0481
      2 C          58.2440   85.2106   12.8703 C.ar    1  UNL1        0.0176
      3 C          57.6536   84.4710   11.8421 C.ar    1  UNL1        0.0382
      4 C          58.0200   83.1283   11.6309 C.ar    1  UNL1        0.1388
      5 C          59.0005   82.5561   12.4488 C.ar    1  UNL1        0.0382
      6 C          59.5846   83.2921   13.4834 C.ar    1  UNL1        0.0176
      7 N          61.7777   87.1009   15.2972 N.pl3   1  UNL1       -0.3041
      8 C          62.1227   85.6709   15.4146 C.3     1  UNL1        0.1122
      9 C          60.8675   84.8116   15.6248 C.3     1  UNL1        0.1122
     10 N          59.7618   85.3585   14.8236 N.pl3   1  UNL1       -0.3041
     11 C          59.3671   86.7635   15.0322 C.3     1  UNL1        0.1122
     12 C          60.4598   87.5342   15.7863 C.3     1  UNL1        0.1122
     13 C          64.4365   89.5109   12.9882 C.ar    1  UNL1        0.0699
     14 C          63.8402   88.3757   12.4205 C.ar    1  UNL1        0.0190
     15 C          62.9398   87.6045   13.1586 C.ar    1  UNL1        0.0160
     16 C          62.6031   87.9620   14.4787 C.ar    1  UNL1        0.0480
     17 C          63.1692   89.1266   15.0265 C.ar    1  UNL1        0.0160
     18 C          64.0775   89.8916   14.2905 C.ar    1  UNL1        0.0190
     19 N          66.4917   91.4713   10.7401 N.ar    1  UNL1       -0.2024
     20 N          67.3071   91.3723   11.7799 N.ar    1  UNL1       -0.1442
     21 C          66.6638   90.6220   12.7011 C.ar    1  UNL1        0.2073
     22 N          65.4448   90.2363   12.2636 N.ar    1  UNL1       -0.2398
     23 C          65.3658   90.7950   11.0410 C.ar    1  UNL1        0.3522
     24 O          64.3495   90.7379   10.2970 O.2     1  UNL1       -0.2444
     25 C          66.7856   92.2737    9.5472 C.3     1  UNL1        0.1099
     26 C          66.3390   93.7270    9.7592 C.3     1  UNL1        0.0265
     27 C          68.6729   90.7653    8.7069 C.3     1  UNL1        0.0021
     28 C          68.2827   92.1607    9.1928 C.3     1  UNL1        0.0245
     29 O          57.4465   82.3289   10.6273 O.3     1  UNL1       -0.4727
     30 C          58.0236   82.0474    9.3505 C.3     1  UNL1        0.2374
     31 C          58.9033   83.2153    8.8817 C.3     1  UNL1        0.1909
     32 C          59.4727   82.9935    7.5138 C.3     1  UNL1        0.1783
     33 O          60.7290   83.5920    7.5251 O.3     1  UNL1       -0.3267
     34 C          61.0749   83.7921    8.8831 C.3     1  UNL1        0.2296
     35 O          60.0053   83.3731    9.7130 O.3     1  UNL1       -0.3255
     36 C          61.3373   85.2887    9.1425 C.ar    1  UNL1        0.0409
     37 C          60.3346   86.0481    9.7853 C.ar    1  UNL1        0.0022
     38 C          60.5401   87.3855   10.1224 C.ar    1  UNL1        0.0113
     39 C          61.7464   88.0071    9.8133 C.ar    1  UNL1        0.0585
     40 CL         62.0041   89.6878   10.2440 Cl      1  UNL1       -0.0822
     41 C          62.7429   87.2952    9.1476 C.ar    1  UNL1        0.0226
     42 C          62.5543   85.9507    8.8008 C.ar    1  UNL1        0.0591
     43 CL         63.8802   85.1886    7.9226 Cl      1  UNL1       -0.0824
     44 C          62.3050   82.8801    9.2151 C.3     1  UNL1        0.1679
     45 N          62.3269   82.3492   10.5869 N.ar    1  UNL1       -0.3084
     46 C          62.9888   82.9216   11.6089 C.ar    1  UNL1        0.0979
     47 C          62.8420   82.1373   12.7248 C.ar    1  UNL1        0.1188
     48 N          62.1255   81.0441   12.4098 N.ar    1  UNL1       -0.2293
     49 C          61.8270   81.1894   11.0994 C.ar    1  UNL1        0.1201
     50 C          61.1760   80.0524   10.3366 C.3     1  UNL1        0.0569
     51 C          60.1108   79.3287   11.1682 C.3     1  UNL1        0.0079
     52 C          62.1794   79.0885    9.7054 C.3     1  UNL1        0.0079
@<TRIPOS>BOND
     1    27    28    1
     2    28    25    1
     3    25    26    1
     4    25    19    1
     5    19    20   ar
     6    20    21   ar
     7    21    22   ar
     8    22    13    1
     9    13    14   ar
    10    14    15   ar
    11    15    16   ar
    12    16     7    1
    13     7     8    1
    14     8     9    1
    15     9    10    1
    16    10     1    1
    17     1     2   ar
    18     2     3   ar
    19     3     4   ar
    20     4    29    1
    21    29    30    1
    22    30    31    1
    23    31    32    1
    24    32    33    1
    25    33    34    1
    26    34    44    1
    27    44    45    1
    28    45    46   ar
    29    46    47   ar
    30    47    48   ar
    31    48    49   ar
    32    49    50    1
    33    50    51    1
    34    50    52    1
    35    34    36    1
    36    36    37   ar
    37    37    38   ar
    38    38    39   ar
    39    39    40    1
    40    39    41   ar
    41    41    42   ar
    42    42    43    1
    43    34    35    1
    44     4     5   ar
    45     5     6   ar
    46    10    11    1
    47    11    12    1
    48    16    17   ar
    49    17    18   ar
    50    22    23   ar
    51    23    24    2
    52    23    19   ar
    53    18    13   ar
    54    12     7    1
    55     6     1   ar
    56    35    31    1
    57    49    45   ar
    58    42    36   ar
@<TRIPOS>MOLECULE
*****
 52 58 0 0 0
SMALL
GASTEIGER

@<TRIPOS>ATOM
      1 C          59.0816   85.3269   13.7179 C.ar    1  UNL1        0.0481
      2 C          59.6653   85.3528   12.4391 C.ar    1  UNL1        0.0176
      3 C          58.9612   84.8854   11.3262 C.ar    1  UNL1        0.0382
      4 C          57.6551   84.3805   11.4714 C.ar    1  UNL1        0.1388
      5 C          57.0852   84.3309   12.7483 C.ar    1  UNL1        0.0382
      6 C          57.7851   84.8069   13.8606 C.ar    1  UNL1        0.0176
      7 N          61.9640   87.3908   15.3522 N.pl3   1  UNL1       -0.3041
      8 C          62.1842   85.9327   15.2966 C.3     1  UNL1        0.1122
      9 C          60.8726   85.1638   15.5123 C.3     1  UNL1        0.1122
     10 N          59.7706   85.8849   14.8570 N.pl3   1  UNL1       -0.3041
     11 C          59.5204   87.2871   15.2373 C.3     1  UNL1        0.1122
     12 C          60.7265   87.8774   15.9813 C.3     1  UNL1        0.1122
     13 C          64.6576   89.7739   13.0557 C.ar    1  UNL1        0.0699
     14 C          63.7258   88.9454   12.4139 C.ar    1  UNL1        0.0190
     15 C          62.8163   88.1920   13.1592 C.ar    1  UNL1        0.0160
     16 C          62.8083   88.2634   14.5659 C.ar    1  UNL1        0.0480
     17 C          63.7145   89.1305   15.2015 C.ar    1  UNL1        0.0160
     18 C          64.6306   89.8759   14.4551 C.ar    1  UNL1        0.0190
     19 N          66.6996   91.6225   10.7031 N.ar    1  UNL1       -0.2024
     20 N          67.5266   91.5612   11.7366 N.ar    1  UNL1       -0.1442
     21 C          66.8891   90.8552   12.6961 C.ar    1  UNL1        0.2073
     22 N          65.6623   90.4606   12.2894 N.ar    1  UNL1       -0.2398
     23 C          65.5726   90.9679   11.0454 C.ar    1  UNL1        0.3522
     24 O          64.5471   90.8873   10.3163 O.2     1  UNL1       -0.2444
     25 C          66.9847   92.3719    9.4742 C.3     1  UNL1        0.1099
     26 C          66.5839   93.8440    9.6424 C.3     1  UNL1        0.0265
     27 C          68.7880   90.8058    8.5580 C.3     1  UNL1        0.0021
     28 C          68.4687   92.2034    9.0876 C.3     1  UNL1        0.0245
     29 O          56.8908   83.9162   10.3873 O.3     1  UNL1       -0.4727
     30 C          57.4069   83.3361    9.1875 C.3     1  UNL1        0.2374
     31 C          58.9314   83.1739    9.2738 C.3     1  UNL1        0.1909
     32 C          59.5803   83.1100    7.9249 C.3     1  UNL1        0.1783
     33 O          60.6602   82.2435    8.0650 O.3     1  UNL1       -0.3267
     34 C          60.4506   81.5185    9.2625 C.3     1  UNL1        0.2296
     35 O          59.2703   81.9794    9.8972 O.3     1  UNL1       -0.3255
     36 C          61.6376   81.7354   10.2216 C.ar    1  UNL1        0.0409
     37 C          62.9451   81.7399    9.6870 C.ar    1  UNL1        0.0022
     38 C          64.0556   82.0113   10.4855 C.ar    1  UNL1        0.0113
     39 C          63.8939   82.2706   11.8432 C.ar    1  UNL1        0.0585
     40 CL         65.2922   82.6177   12.8437 Cl      1  UNL1       -0.0822
     41 C          62.6202   82.2390   12.4086 C.ar    1  UNL1        0.0226
     42 C          61.4927   81.9679   11.6220 C.ar    1  UNL1        0.0591
     43 CL         59.9514   81.9157   12.4775 Cl      1  UNL1       -0.0824
     44 C          60.2207   80.0139    8.8907 C.3     1  UNL1        0.1679
     45 N          60.7343   79.0496    9.8758 N.ar    1  UNL1       -0.3084
     46 C          61.8496   78.3163    9.7061 C.ar    1  UNL1        0.0979
     47 C          62.0017   77.4865   10.7877 C.ar    1  UNL1        0.1188
     48 N          60.9654   77.6549   11.6275 N.ar    1  UNL1       -0.2293
     49 C          60.2003   78.6077   11.0494 C.ar    1  UNL1        0.1201
     50 C          58.8350   78.9373   11.6200 C.3     1  UNL1        0.0569
     51 C          58.7918   78.7931   13.1455 C.3     1  UNL1        0.0079
     52 C          57.6909   78.1961   10.9302 C.3     1  UNL1        0.0079
@<TRIPOS>BOND
     1    27    28    1
     2    28    25    1
     3    25    26    1
     4    25    19    1
     5    19    20   ar
     6    20    21   ar
     7    21    22   ar
     8    22    13    1
     9    13    14   ar
    10    14    15   ar
    11    15    16   ar
    12    16     7    1
    13     7     8    1
    14     8     9    1
    15     9    10    1
    16    10     1    1
    17     1     2   ar
    18     2     3   ar
    19     3     4   ar
    20     4    29    1
    21    29    30    1
    22    30    31    1
    23    31    32    1
    24    32    33    1
    25    33    34    1
    26    34    44    1
    27    44    45    1
    28    45    46   ar
    29    46    47   ar
    30    47    48   ar
    31    48    49   ar
    32    49    50    1
    33    50    51    1
    34    50    52    1
    35    34    36    1
    36    36    37   ar
    37    37    38   ar
    38    38    39   ar
    39    39    40    1
    40    39    41   ar
    41    41    42   ar
    42    42    43    1
    43    34    35    1
    44     4     5   ar
    45     5     6   ar
    46    10    11    1
    47    11    12    1
    48    16    17   ar
    49    17    18   ar
    50    22    23   ar
    51    23    24    2
    52    23    19   ar
    53    18    13   ar
    54    12     7    1
    55     6     1   ar
    56    35    31    1
    57    49    45   ar
    58    42    36   ar
@<TRIPOS>MOLECULE
*****
 52 58 0 0 0
SMALL
GASTEIGER

@<TRIPOS>ATOM
      1 C          58.4886   81.7626    9.7994 C.ar    1  UNL1        0.0481
      2 C          58.0547   82.3117   11.0188 C.ar    1  UNL1        0.0176
      3 C          58.0965   81.5567   12.1939 C.ar    1  UNL1        0.0382
      4 C          58.5740   80.2326   12.1720 C.ar    1  UNL1        0.1388
      5 C          58.9808   79.6784   10.9534 C.ar    1  UNL1        0.0382
      6 C          58.9483   80.4359    9.7793 C.ar    1  UNL1        0.0176
      7 N          59.3280   85.0363    7.8458 N.pl3   1  UNL1       -0.3041
      8 C          57.9401   84.9316    8.3360 C.3     1  UNL1        0.1122
      9 C          57.4313   83.4848    8.2599 C.3     1  UNL1        0.1122
     10 N          58.5267   82.5636    8.5992 N.pl3   1  UNL1       -0.3041
     11 C          59.7722   82.6287    7.8131 C.3     1  UNL1        0.1122
     12 C          59.8508   83.9390    7.0172 C.3     1  UNL1        0.1122
     13 C          61.9098   87.8654    9.7269 C.ar    1  UNL1        0.0699
     14 C          62.4394   86.8814    8.8798 C.ar    1  UNL1        0.0190
     15 C          61.5962   85.9765    8.2313 C.ar    1  UNL1        0.0160
     16 C          60.2001   86.0466    8.4038 C.ar    1  UNL1        0.0480
     17 C          59.6722   87.0640    9.2182 C.ar    1  UNL1        0.0160
     18 C          60.5175   87.9622    9.8743 C.ar    1  UNL1        0.0190
     19 N          64.1602   89.5176   12.0351 N.ar    1  UNL1       -0.2024
     20 N          64.2257   90.3490   11.0053 N.ar    1  UNL1       -0.1442
     21 C          63.3909   89.8583   10.0631 C.ar    1  UNL1        0.2073
     22 N          62.7882   88.7219   10.4773 N.ar    1  UNL1       -0.2398
     23 C          63.3015   88.5322   11.7075 C.ar    1  UNL1        0.3522
     24 O          63.0525   87.5339   12.4363 O.2     1  UNL1       -0.2444
     25 C          64.9797   89.6521   13.2448 C.3     1  UNL1        0.1099
     26 C          65.9115   90.8661   13.1251 C.3     1  UNL1        0.0265
     27 C          64.6386   90.6266   15.5853 C.3     1  UNL1        0.0021
     28 C          64.0719   89.7238   14.4900 C.3     1  UNL1        0.0245
     29 O          58.6589   79.4321   13.3241 O.3     1  UNL1       -0.4727
     30 C          59.8497   79.1542   14.0637 C.3     1  UNL1        0.2374
     31 C          61.0649   79.8295   13.4119 C.3     1  UNL1        0.1909
     32 C          62.3378   79.5660   14.1569 C.3     1  UNL1        0.1783
     33 O          63.1028   80.7203   14.0194 O.3     1  UNL1       -0.3267
     34 C          62.2241   81.7456   13.5947 C.3     1  UNL1        0.2296
     35 O          60.9245   81.2117   13.4096 O.3     1  UNL1       -0.3255
     36 C          62.7084   82.3287   12.2525 C.ar    1  UNL1        0.0409
     37 C          63.8982   81.8203   11.6859 C.ar    1  UNL1        0.0022
     38 C          64.3475   82.2458   10.4362 C.ar    1  UNL1        0.0113
     39 C          63.6302   83.2024    9.7239 C.ar    1  UNL1        0.0585
     40 CL         64.1948   83.7311    8.1496 Cl      1  UNL1       -0.0822
     41 C          62.4709   83.7496   10.2709 C.ar    1  UNL1        0.0226
     42 C          62.0042   83.3344   11.5253 C.ar    1  UNL1        0.0591
     43 CL         60.5516   84.1436   12.1130 Cl      1  UNL1       -0.0824
     44 C          62.1291   82.8139   14.7368 C.3     1  UNL1        0.1679
     45 N          63.2152   83.8062   14.7452 N.ar    1  UNL1       -0.3084
     46 C          64.5087   83.5136   14.5182 C.ar    1  UNL1        0.0979
     47 C          65.2516   84.6583   14.6574 C.ar    1  UNL1        0.1188
     48 N          64.4445   85.6724   15.0149 N.ar    1  UNL1       -0.2293
     49 C          63.2075   85.1299   15.0697 C.ar    1  UNL1        0.1201
     50 C          62.0477   85.9343   15.6229 C.3     1  UNL1        0.0569
     51 C          61.0881   86.4032   14.5233 C.3     1  UNL1        0.0079
     52 C          62.4803   87.0725   16.5457 C.3     1  UNL1        0.0079
@<TRIPOS>BOND
     1    27    28    1
     2    28    25    1
     3    25    26    1
     4    25    19    1
     5    19    20   ar
     6    20    21   ar
     7    21    22   ar
     8    22    13    1
     9    13    14   ar
    10    14    15   ar
    11    15    16   ar
    12    16     7    1
    13     7     8    1
    14     8     9    1
    15     9    10    1
    16    10     1    1
    17     1     2   ar
    18     2     3   ar
    19     3     4   ar
    20     4    29    1
    21    29    30    1
    22    30    31    1
    23    31    32    1
    24    32    33    1
    25    33    34    1
    26    34    44    1
    27    44    45    1
    28    45    46   ar
    29    46    47   ar
    30    47    48   ar
    31    48    49   ar
    32    49    50    1
    33    50    51    1
    34    50    52    1
    35    34    36    1
    36    36    37   ar
    37    37    38   ar
    38    38    39   ar
    39    39    40    1
    40    39    41   ar
    41    41    42   ar
    42    42    43    1
    43    34    35    1
    44     4     5   ar
    45     5     6   ar
    46    10    11    1
    47    11    12    1
    48    16    17   ar
    49    17    18   ar
    50    22    23   ar
    51    23    24    2
    52    23    19   ar
    53    18    13   ar
    54    12     7    1
    55     6     1   ar
    56    35    31    1
    57    49    45   ar
    58    42    36   ar
@<TRIPOS>MOLECULE
*****
 52 58 0 0 0
SMALL
GASTEIGER

@<TRIPOS>ATOM
      1 C          58.3580   81.5931    9.8341 C.ar    1  UNL1        0.0481
      2 C          58.1510   82.1476   11.1094 C.ar    1  UNL1        0.0176
      3 C          58.1576   81.3366   12.2474 C.ar    1  UNL1        0.0382
      4 C          58.3714   79.9500   12.1314 C.ar    1  UNL1        0.1388
      5 C          58.5510   79.3955   10.8595 C.ar    1  UNL1        0.0382
      6 C          58.5540   80.2072    9.7216 C.ar    1  UNL1        0.0176
      7 N          59.4326   84.8577    7.9832 N.pl3   1  UNL1       -0.3041
      8 C          58.0538   84.8545    8.5092 C.3     1  UNL1        0.1122
      9 C          57.4176   83.4619    8.3928 C.3     1  UNL1        0.1122
     10 N          58.4358   82.4357    8.6647 N.pl3   1  UNL1       -0.3041
     11 C          59.6616   82.4238    7.8458 C.3     1  UNL1        0.1122
     12 C          59.8351   83.7536    7.0985 C.3     1  UNL1        0.1122
     13 C          62.0920   87.6473    9.8146 C.ar    1  UNL1        0.0699
     14 C          61.9671   86.3491   10.3297 C.ar    1  UNL1        0.0190
     15 C          61.1273   85.4197    9.7122 C.ar    1  UNL1        0.0160
     16 C          60.4045   85.7647    8.5536 C.ar    1  UNL1        0.0480
     17 C          60.5689   87.0534    8.0158 C.ar    1  UNL1        0.0160
     18 C          61.4017   87.9853    8.6403 C.ar    1  UNL1        0.0190
     19 N          63.9629   89.7384   12.1056 N.ar    1  UNL1       -0.2024
     20 N          64.3051   90.2891   10.9499 N.ar    1  UNL1       -0.1442
     21 C          63.6387   89.6107    9.9902 C.ar    1  UNL1        0.2073
     22 N          62.8706   88.6316   10.5168 N.ar    1  UNL1       -0.2398
     23 C          63.1073   88.7322   11.8385 C.ar    1  UNL1        0.3522
     24 O          62.6326   87.9521   12.7079 O.2     1  UNL1       -0.2444
     25 C          64.5301   90.1378   13.3986 C.3     1  UNL1        0.1099
     26 C          64.6574   88.9197   14.3239 C.3     1  UNL1        0.0265
     27 C          66.6759   91.0222   14.4744 C.3     1  UNL1        0.0021
     28 C          65.8764   90.8593   13.1822 C.3     1  UNL1        0.0245
     29 O          58.4094   79.0877   13.2405 O.3     1  UNL1       -0.4727
     30 C          59.5391   78.8619   14.0862 C.3     1  UNL1        0.2374
     31 C          60.8075   79.4737   13.4744 C.3     1  UNL1        0.1909
     32 C          62.0345   79.1822   14.2832 C.3     1  UNL1        0.1783
     33 O          62.8491   80.3029   14.1525 O.3     1  UNL1       -0.3267
     34 C          62.0307   81.3490   13.6630 C.3     1  UNL1        0.2296
     35 O          60.7209   80.8596   13.4318 O.3     1  UNL1       -0.3255
     36 C          62.5968   81.8781   12.3305 C.ar    1  UNL1        0.0409
     37 C          61.8101   81.7493   11.1644 C.ar    1  UNL1        0.0022
     38 C          62.2278   82.2790    9.9440 C.ar    1  UNL1        0.0113
     39 C          63.4496   82.9387    9.8496 C.ar    1  UNL1        0.0585
     40 CL         63.9693   83.6094    8.3144 Cl      1  UNL1       -0.0822
     41 C          64.2654   83.0520   10.9741 C.ar    1  UNL1        0.0226
     42 C          63.8624   82.5257   12.2088 C.ar    1  UNL1        0.0591
     43 CL         65.0132   82.7020   13.5335 Cl      1  UNL1       -0.0824
     44 C          61.9260   82.4498   14.7731 C.3     1  UNL1        0.1679
     45 N          61.2724   83.6965   14.3457 N.ar    1  UNL1       -0.3084
     46 C          60.3236   83.7655   13.3942 C.ar    1  UNL1        0.0979
     47 C          59.9774   85.0800   13.2100 C.ar    1  UNL1        0.1188
     48 N          60.7314   85.8554   14.0086 N.ar    1  UNL1       -0.2293
     49 C          61.5196   84.9925   14.6880 C.ar    1  UNL1        0.1201
     50 C          62.6437   85.5145   15.5610 C.3     1  UNL1        0.0569
     51 C          62.2709   86.8215   16.2699 C.3     1  UNL1        0.0079
     52 C          63.9862   85.6044   14.8372 C.3     1  UNL1        0.0079
@<TRIPOS>BOND
     1    27    28    1
     2    28    25    1
     3    25    26    1
     4    25    19    1
     5    19    20   ar
     6    20    21   ar
     7    21    22   ar
     8    22    13    1
     9    13    14   ar
    10    14    15   ar
    11    15    16   ar
    12    16     7    1
    13     7     8    1
    14     8     9    1
    15     9    10    1
    16    10     1    1
    17     1     2   ar
    18     2     3   ar
    19     3     4   ar
    20     4    29    1
    21    29    30    1
    22    30    31    1
    23    31    32    1
    24    32    33    1
    25    33    34    1
    26    34    44    1
    27    44    45    1
    28    45    46   ar
    29    46    47   ar
    30    47    48   ar
    31    48    49   ar
    32    49    50    1
    33    50    51    1
    34    50    52    1
    35    34    36    1
    36    36    37   ar
    37    37    38   ar
    38    38    39   ar
    39    39    40    1
    40    39    41   ar
    41    41    42   ar
    42    42    43    1
    43    34    35    1
    44     4     5   ar
    45     5     6   ar
    46    10    11    1
    47    11    12    1
    48    16    17   ar
    49    17    18   ar
    50    22    23   ar
    51    23    24    2
    52    23    19   ar
    53    18    13   ar
    54    12     7    1
    55     6     1   ar
    56    35    31    1
    57    49    45   ar
    58    42    36   ar
@<TRIPOS>MOLECULE
*****
 52 58 0 0 0
SMALL
GASTEIGER

@<TRIPOS>ATOM
      1 C          58.3638   82.1701    9.5374 C.ar    1  UNL1        0.0481
      2 C          58.1260   82.7042   10.8159 C.ar    1  UNL1        0.0176
      3 C          58.0081   81.8649   11.9269 C.ar    1  UNL1        0.0382
      4 C          58.1253   80.4697   11.7800 C.ar    1  UNL1        0.1388
      5 C          58.3357   79.9375   10.5032 C.ar    1  UNL1        0.0382
      6 C          58.4633   80.7768    9.3929 C.ar    1  UNL1        0.0176
      7 N          59.6638   85.4546    7.8759 N.pl3   1  UNL1       -0.3041
      8 C          58.2395   85.4629    8.2618 C.3     1  UNL1        0.1122
      9 C          57.5985   84.0834    8.0516 C.3     1  UNL1        0.1122
     10 N          58.5700   83.0354    8.4006 N.pl3   1  UNL1       -0.3041
     11 C          59.8711   83.0207    7.7077 C.3     1  UNL1        0.1122
     12 C          60.1372   84.3627    7.0113 C.3     1  UNL1        0.1122
     13 C          62.3342   87.9039   10.1294 C.ar    1  UNL1        0.0699
     14 C          62.8275   86.8256    9.3810 C.ar    1  UNL1        0.0190
     15 C          61.9638   86.0435    8.6112 C.ar    1  UNL1        0.0160
     16 C          60.5865   86.3337    8.5604 C.ar    1  UNL1        0.0480
     17 C          60.1050   87.4437    9.2767 C.ar    1  UNL1        0.0160
     18 C          60.9687   88.2191   10.0544 C.ar    1  UNL1        0.0190
     19 N          64.6031   90.1590   11.8288 N.ar    1  UNL1       -0.2024
     20 N          64.1869   89.4271   12.8521 N.ar    1  UNL1       -0.1442
     21 C          63.3398   88.5052   12.3442 C.ar    1  UNL1        0.2073
     22 N          63.2088   88.6357   11.0056 N.ar    1  UNL1       -0.2398
     23 C          64.0017   89.6858   10.7198 C.ar    1  UNL1        0.3522
     24 O          64.1235   90.1940    9.5723 O.2     1  UNL1       -0.2444
     25 C          65.4837   91.3249   11.9652 C.3     1  UNL1        0.1099
     26 C          66.1110   91.3580   13.3657 C.3     1  UNL1        0.0265
     27 C          66.5116   92.5885    9.9928 C.3     1  UNL1        0.0021
     28 C          66.5422   91.3189   10.8429 C.3     1  UNL1        0.0245
     29 O          58.0365   79.5776   12.8622 O.3     1  UNL1       -0.4727
     30 C          59.1376   79.0579   13.6105 C.3     1  UNL1        0.2374
     31 C          60.4707   79.5527   13.0312 C.3     1  UNL1        0.1909
     32 C          61.6554   79.0211   13.7787 C.3     1  UNL1        0.1783
     33 O          62.6125   80.0305   13.7383 O.3     1  UNL1       -0.3267
     34 C          61.9380   81.2199   13.3722 C.3     1  UNL1        0.2296
     35 O          60.5718   80.9352   13.1255 O.3     1  UNL1       -0.3255
     36 C          62.5567   81.7986   12.0844 C.ar    1  UNL1        0.0409
     37 C          61.6921   82.2047   11.0437 C.ar    1  UNL1        0.0022
     38 C          62.1818   82.8106    9.8872 C.ar    1  UNL1        0.0113
     39 C          63.5496   83.0141    9.7299 C.ar    1  UNL1        0.0585
     40 CL         64.1619   83.7821    8.2766 Cl      1  UNL1       -0.0822
     41 C          64.4323   82.5928   10.7231 C.ar    1  UNL1        0.0226
     42 C          63.9586   81.9820   11.8919 C.ar    1  UNL1        0.0591
     43 CL         65.1900   81.4598   13.0413 Cl      1  UNL1       -0.0824
     44 C          61.9944   82.2090   14.5861 C.3     1  UNL1        0.1679
     45 N          62.3982   83.5818   14.2449 N.ar    1  UNL1       -0.3084
     46 C          63.5983   84.1130   14.5415 C.ar    1  UNL1        0.0979
     47 C          63.6159   85.4217   14.1307 C.ar    1  UNL1        0.1188
     48 N          62.4175   85.7419   13.6122 N.ar    1  UNL1       -0.2293
     49 C          61.6871   84.6077   13.6976 C.ar    1  UNL1        0.1201
     50 C          60.2061   84.6301   13.3743 C.3     1  UNL1        0.0569
     51 C          59.9139   85.3090   12.0314 C.3     1  UNL1        0.0079
     52 C          59.3429   85.1814   14.5080 C.3     1  UNL1        0.0079
@<TRIPOS>BOND
     1    27    28    1
     2    28    25    1
     3    25    26    1
     4    25    19    1
     5    19    20   ar
     6    20    21   ar
     7    21    22   ar
     8    22    13    1
     9    13    14   ar
    10    14    15   ar
    11    15    16   ar
    12    16     7    1
    13     7     8    1
    14     8     9    1
    15     9    10    1
    16    10     1    1
    17     1     2   ar
    18     2     3   ar
    19     3     4   ar
    20     4    29    1
    21    29    30    1
    22    30    31    1
    23    31    32    1
    24    32    33    1
    25    33    34    1
    26    34    44    1
    27    44    45    1
    28    45    46   ar
    29    46    47   ar
    30    47    48   ar
    31    48    49   ar
    32    49    50    1
    33    50    51    1
    34    50    52    1
    35    34    36    1
    36    36    37   ar
    37    37    38   ar
    38    38    39   ar
    39    39    40    1
    40    39    41   ar
    41    41    42   ar
    42    42    43    1
    43    34    35    1
    44     4     5   ar
    45     5     6   ar
    46    10    11    1
    47    11    12    1
    48    16    17   ar
    49    17    18   ar
    50    22    23   ar
    51    23    24    2
    52    23    19   ar
    53    18    13   ar
    54    12     7    1
    55     6     1   ar
    56    35    31    1
    57    49    45   ar
    58    42    36   ar
@<TRIPOS>MOLECULE
*****
 52 58 0 0 0
SMALL
GASTEIGER

@<TRIPOS>ATOM
      1 C          59.1269   85.1503   13.2894 C.ar    1  UNL1        0.0481
      2 C          59.6978   85.3568   12.0213 C.ar    1  UNL1        0.0176
      3 C          59.0538   84.9000   10.8683 C.ar    1  UNL1        0.0382
      4 C          57.8221   84.2247   10.9617 C.ar    1  UNL1        0.1388
      5 C          57.2679   83.9966   12.2260 C.ar    1  UNL1        0.0382
      6 C          57.9066   84.4614   13.3790 C.ar    1  UNL1        0.0176
      7 N          61.8738   87.2338   15.1204 N.pl3   1  UNL1       -0.3041
      8 C          62.1314   85.7831   15.0380 C.3     1  UNL1        0.1122
      9 C          60.8296   84.9791   15.1671 C.3     1  UNL1        0.1122
     10 N          59.7446   85.6925   14.4760 N.pl3   1  UNL1       -0.3041
     11 C          59.4422   87.0778   14.8795 C.3     1  UNL1        0.1122
     12 C          60.5951   87.6749   15.6986 C.3     1  UNL1        0.1122
     13 C          64.6069   89.7232   12.9892 C.ar    1  UNL1        0.0699
     14 C          63.6046   89.0248   12.3007 C.ar    1  UNL1        0.0190
     15 C          62.6835   88.2386   12.9962 C.ar    1  UNL1        0.0160
     16 C          62.7351   88.1464   14.4007 C.ar    1  UNL1        0.0480
     17 C          63.7138   88.8851   15.0888 C.ar    1  UNL1        0.0160
     18 C          64.6409   89.6632   14.3909 C.ar    1  UNL1        0.0190
     19 N          66.6812   91.6263   10.7096 N.ar    1  UNL1       -0.2024
     20 N          67.4624   91.6069   11.7797 N.ar    1  UNL1       -0.1442
     21 C          66.8095   90.8862   12.7176 C.ar    1  UNL1        0.2073
     22 N          65.6183   90.4406   12.2609 N.ar    1  UNL1       -0.2398
     23 C          65.5657   90.9321   11.0084 C.ar    1  UNL1        0.3522
     24 O          64.5780   90.8049   10.2351 O.2     1  UNL1       -0.2444
     25 C          66.9929   92.3742    9.4862 C.3     1  UNL1        0.1099
     26 C          66.5936   93.8476    9.6459 C.3     1  UNL1        0.0265
     27 C          68.8015   90.8143    8.5698 C.3     1  UNL1        0.0021
     28 C          68.4836   92.2007    9.1289 C.3     1  UNL1        0.0245
     29 O          57.1182   83.7609    9.8372 O.3     1  UNL1       -0.4727
     30 C          57.5603   82.7458    8.9336 C.3     1  UNL1        0.2374
     31 C          58.1661   81.5614    9.7003 C.3     1  UNL1        0.1909
     32 C          57.7519   81.5357   11.1398 C.3     1  UNL1        0.1783
     33 O          58.8426   81.0272   11.8386 O.3     1  UNL1       -0.3267
     34 C          59.9623   81.1261   10.9781 C.3     1  UNL1        0.2296
     35 O          59.5531   81.6400    9.7224 O.3     1  UNL1       -0.3255
     36 C          60.5791   79.7308   10.7575 C.ar    1  UNL1        0.0409
     37 C          61.4363   79.5391    9.6513 C.ar    1  UNL1        0.0022
     38 C          62.0905   78.3258    9.4407 C.ar    1  UNL1        0.0113
     39 C          61.8955   77.2646   10.3197 C.ar    1  UNL1        0.0585
     40 CL         62.7247   75.7416   10.0556 Cl      1  UNL1       -0.0822
     41 C          61.0285   77.4102   11.4015 C.ar    1  UNL1        0.0226
     42 C          60.3623   78.6218   11.6289 C.ar    1  UNL1        0.0591
     43 CL         59.2628   78.6491   13.0074 Cl      1  UNL1       -0.0824
     44 C          60.9665   82.1573   11.5970 C.3     1  UNL1        0.1679
     45 N          62.2553   82.2607   10.8953 N.ar    1  UNL1       -0.3084
     46 C          63.4008   81.7062   11.3318 C.ar    1  UNL1        0.0979
     47 C          64.4125   82.0454   10.4698 C.ar    1  UNL1        0.1188
     48 N          63.9273   82.8500    9.5082 N.ar    1  UNL1       -0.2293
     49 C          62.6110   82.9744    9.7899 C.ar    1  UNL1        0.1201
     50 C          61.7586   83.9649    9.0214 C.3     1  UNL1        0.0569
     51 C          61.4133   83.4659    7.6137 C.3     1  UNL1        0.0079
     52 C          62.3271   85.3830    9.0159 C.3     1  UNL1        0.0079
@<TRIPOS>BOND
     1    27    28    1
     2    28    25    1
     3    25    26    1
     4    25    19    1
     5    19    20   ar
     6    20    21   ar
     7    21    22   ar
     8    22    13    1
     9    13    14   ar
    10    14    15   ar
    11    15    16   ar
    12    16     7    1
    13     7     8    1
    14     8     9    1
    15     9    10    1
    16    10     1    1
    17     1     2   ar
    18     2     3   ar
    19     3     4   ar
    20     4    29    1
    21    29    30    1
    22    30    31    1
    23    31    32    1
    24    32    33    1
    25    33    34    1
    26    34    44    1
    27    44    45    1
    28    45    46   ar
    29    46    47   ar
    30    47    48   ar
    31    48    49   ar
    32    49    50    1
    33    50    51    1
    34    50    52    1
    35    34    36    1
    36    36    37   ar
    37    37    38   ar
    38    38    39   ar
    39    39    40    1
    40    39    41   ar
    41    41    42   ar
    42    42    43    1
    43    34    35    1
    44     4     5   ar
    45     5     6   ar
    46    10    11    1
    47    11    12    1
    48    16    17   ar
    49    17    18   ar
    50    22    23   ar
    51    23    24    2
    52    23    19   ar
    53    18    13   ar
    54    12     7    1
    55     6     1   ar
    56    35    31    1
    57    49    45   ar
    58    42    36   ar
@<TRIPOS>MOLECULE
*****
 52 58 0 0 0
SMALL
GASTEIGER

@<TRIPOS>ATOM
      1 C          57.9595   82.3869   12.2636 C.ar    1  UNL1        0.0481
      2 C          58.3513   81.4856   13.2689 C.ar    1  UNL1        0.0176
      3 C          58.8427   80.2201   12.9376 C.ar    1  UNL1        0.0382
      4 C          58.9514   79.8298   11.5894 C.ar    1  UNL1        0.1388
      5 C          58.5365   80.7176   10.5908 C.ar    1  UNL1        0.0382
      6 C          58.0538   81.9871   10.9208 C.ar    1  UNL1        0.0176
      7 N          58.6186   86.0233   13.5208 N.pl3   1  UNL1       -0.3041
      8 C          58.1476   85.0752   14.5489 C.3     1  UNL1        0.1122
      9 C          57.1323   84.0819   13.9657 C.3     1  UNL1        0.1122
     10 N          57.5306   83.7246   12.5954 N.pl3   1  UNL1       -0.3041
     11 C          57.7005   84.8043   11.6061 C.3     1  UNL1        0.1122
     12 C          57.8138   86.1699   12.2982 C.3     1  UNL1        0.1122
     13 C          62.4678   87.8534   13.7285 C.ar    1  UNL1        0.0699
     14 C          61.7087   87.6728   14.8936 C.ar    1  UNL1        0.0190
     15 C          60.4649   87.0403   14.8378 C.ar    1  UNL1        0.0160
     16 C          59.9591   86.5590   13.6146 C.ar    1  UNL1        0.0480
     17 C          60.7450   86.7023   12.4575 C.ar    1  UNL1        0.0160
     18 C          61.9847   87.3442   12.5132 C.ar    1  UNL1        0.0190
     19 N          65.2448   90.1626   13.4503 N.ar    1  UNL1       -0.2024
     20 N          65.6720   89.3979   14.4446 N.ar    1  UNL1       -0.1442
     21 C          64.7248   88.4537   14.6360 C.ar    1  UNL1        0.2073
     22 N          63.6946   88.6023   13.7741 N.ar    1  UNL1       -0.2398
     23 C          64.0471   89.6863   13.0574 C.ar    1  UNL1        0.3522
     24 O          63.3257   90.2185   12.1708 O.2     1  UNL1       -0.2444
     25 C          65.9530   91.3583   12.9791 C.3     1  UNL1        0.1099
     26 C          66.8693   91.9045   14.0827 C.3     1  UNL1        0.0265
     27 C          66.1452   91.7592   10.4600 C.3     1  UNL1        0.0021
     28 C          66.7191   91.0379   11.6790 C.3     1  UNL1        0.0245
     29 O          59.4570   78.5793   11.1946 O.3     1  UNL1       -0.4727
     30 C          60.8131   78.2990   10.8412 C.3     1  UNL1        0.2374
     31 C          61.4711   79.5260   10.1939 C.3     1  UNL1        0.1909
     32 C          62.7424   79.1861    9.4776 C.3     1  UNL1        0.1783
     33 O          63.5739   80.2905    9.6374 O.3     1  UNL1       -0.3267
     34 C          63.0353   81.0583   10.6977 C.3     1  UNL1        0.2296
     35 O          61.8343   80.4611   11.1551 O.3     1  UNL1       -0.3255
     36 C          62.7153   82.4829   10.2036 C.ar    1  UNL1        0.0409
     37 C          63.3438   82.9460    9.0264 C.ar    1  UNL1        0.0022
     38 C          63.0370   84.1923    8.4810 C.ar    1  UNL1        0.0113
     39 C          62.1058   85.0179    9.1039 C.ar    1  UNL1        0.0585
     40 CL         61.7176   86.5824    8.4121 Cl      1  UNL1       -0.0822
     41 C          61.4939   84.6050   10.2863 C.ar    1  UNL1        0.0226
     42 C          61.7897   83.3562   10.8490 C.ar    1  UNL1        0.0591
     43 CL         60.9758   82.9841   12.3687 Cl      1  UNL1       -0.0824
     44 C          64.0519   81.0291   11.8896 C.3     1  UNL1        0.1679
     45 N          63.4401   81.1188   13.2244 N.ar    1  UNL1       -0.3084
     46 C          62.5930   80.2045   13.7313 C.ar    1  UNL1        0.0979
     47 C          62.1734   80.6279   14.9667 C.ar    1  UNL1        0.1188
     48 N          62.7146   81.8294   15.2333 N.ar    1  UNL1       -0.2293
     49 C          63.4784   82.1141   14.1549 C.ar    1  UNL1        0.1201
     50 C          64.1085   83.4852   14.0092 C.3     1  UNL1        0.0569
     51 C          65.5630   83.5114   14.4923 C.3     1  UNL1        0.0079
     52 C          63.2704   84.6090   14.6167 C.3     1  UNL1        0.0079
@<TRIPOS>BOND
     1    27    28    1
     2    28    25    1
     3    25    26    1
     4    25    19    1
     5    19    20   ar
     6    20    21   ar
     7    21    22   ar
     8    22    13    1
     9    13    14   ar
    10    14    15   ar
    11    15    16   ar
    12    16     7    1
    13     7     8    1
    14     8     9    1
    15     9    10    1
    16    10     1    1
    17     1     2   ar
    18     2     3   ar
    19     3     4   ar
    20     4    29    1
    21    29    30    1
    22    30    31    1
    23    31    32    1
    24    32    33    1
    25    33    34    1
    26    34    44    1
    27    44    45    1
    28    45    46   ar
    29    46    47   ar
    30    47    48   ar
    31    48    49   ar
    32    49    50    1
    33    50    51    1
    34    50    52    1
    35    34    36    1
    36    36    37   ar
    37    37    38   ar
    38    38    39   ar
    39    39    40    1
    40    39    41   ar
    41    41    42   ar
    42    42    43    1
    43    34    35    1
    44     4     5   ar
    45     5     6   ar
    46    10    11    1
    47    11    12    1
    48    16    17   ar
    49    17    18   ar
    50    22    23   ar
    51    23    24    2
    52    23    19   ar
    53    18    13   ar
    54    12     7    1
    55     6     1   ar
    56    35    31    1
    57    49    45   ar
    58    42    36   ar
@<TRIPOS>MOLECULE
*****
 52 58 0 0 0
SMALL
GASTEIGER

@<TRIPOS>ATOM
      1 C          60.3042   83.0839    8.0875 C.ar    1  UNL1        0.0481
      2 C          59.5285   82.0225    7.5893 C.ar    1  UNL1        0.0176
      3 C          59.7675   80.7101    8.0055 C.ar    1  UNL1        0.0382
      4 C          60.7915   80.4328    8.9309 C.ar    1  UNL1        0.1388
      5 C          61.5800   81.4864    9.4060 C.ar    1  UNL1        0.0382
      6 C          61.3354   82.8005    8.9976 C.ar    1  UNL1        0.0176
      7 N          60.2760   86.9237    8.7904 N.pl3   1  UNL1       -0.3041
      8 C          59.0280   86.2110    9.1257 C.3     1  UNL1        0.1122
      9 C          58.7420   85.0871    8.1192 C.3     1  UNL1        0.1122
     10 N          60.0083   84.4498    7.7264 N.pl3   1  UNL1       -0.3041
     11 C          61.0719   85.2911    7.1483 C.3     1  UNL1        0.1122
     12 C          60.8079   86.7776    7.4267 C.3     1  UNL1        0.1122
     13 C          62.8372   88.5446   11.7939 C.ar    1  UNL1        0.0699
     14 C          62.3461   89.3646   10.7679 C.ar    1  UNL1        0.0190
     15 C          61.4772   88.8492    9.8037 C.ar    1  UNL1        0.0160
     16 C          61.0667   87.5029    9.8543 C.ar    1  UNL1        0.0480
     17 C          61.5262   86.6977   10.9115 C.ar    1  UNL1        0.0160
     18 C          62.4035   87.2120   11.8696 C.ar    1  UNL1        0.0190
     19 N          65.5352   90.1497   13.6010 N.ar    1  UNL1       -0.2024
     20 N          64.8307   89.6625   14.6121 N.ar    1  UNL1       -0.1442
     21 C          63.7883   88.9976   14.0673 C.ar    1  UNL1        0.2073
     22 N          63.8166   89.0508   12.7173 N.ar    1  UNL1       -0.2398
     23 C          64.9136   89.7885   12.4614 C.ar    1  UNL1        0.3522
     24 O          65.2809   90.1409   11.3079 O.2     1  UNL1       -0.2444
     25 C          66.7152   91.0060   13.7675 C.3     1  UNL1        0.1099
     26 C          66.3850   92.4515   13.3703 C.3     1  UNL1        0.0265
     27 C          68.5945   91.5885   15.4023 C.3     1  UNL1        0.0021
     28 C          67.2455   90.8960   15.2120 C.3     1  UNL1        0.0245
     29 O          61.0651   79.1372    9.4018 O.3     1  UNL1       -0.4727
     30 C          60.6784   78.6099   10.6726 C.3     1  UNL1        0.2374
     31 C          61.1780   79.5118   11.8104 C.3     1  UNL1        0.1909
     32 C          60.9310   78.9197   13.1643 C.3     1  UNL1        0.1783
     33 O          60.6699   79.9964   14.0065 O.3     1  UNL1       -0.3267
     34 C          60.3684   81.1022   13.1757 C.3     1  UNL1        0.2296
     35 O          60.5027   80.7260   11.8160 O.3     1  UNL1       -0.3255
     36 C          61.3490   82.2564   13.4625 C.ar    1  UNL1        0.0409
     37 C          60.8894   83.3617   14.2125 C.ar    1  UNL1        0.0022
     38 C          61.7465   84.3998   14.5761 C.ar    1  UNL1        0.0113
     39 C          63.0827   84.3717   14.1881 C.ar    1  UNL1        0.0585
     40 CL         64.1597   85.6762   14.6521 Cl      1  UNL1       -0.0822
     41 C          63.5591   83.3124   13.4174 C.ar    1  UNL1        0.0226
     42 C          62.7126   82.2605   13.0425 C.ar    1  UNL1        0.0591
     43 CL         63.4382   81.0114   12.0308 Cl      1  UNL1       -0.0824
     44 C          58.8681   81.4919   13.4037 C.3     1  UNL1        0.1679
     45 N          58.2564   82.2585   12.3072 N.ar    1  UNL1       -0.3084
     46 C          58.0642   81.7795   11.0647 C.ar    1  UNL1        0.0979
     47 C          57.5264   82.7728   10.2865 C.ar    1  UNL1        0.1188
     48 N          57.4142   83.8976   11.0145 N.ar    1  UNL1       -0.2293
     49 C          57.8714   83.5644   12.2422 C.ar    1  UNL1        0.1201
     50 C          58.0716   84.6355   13.2962 C.3     1  UNL1        0.0569
     51 C          56.8047   84.8816   14.1236 C.3     1  UNL1        0.0079
     52 C          58.6703   85.9287   12.7453 C.3     1  UNL1        0.0079
@<TRIPOS>BOND
     1    27    28    1
     2    28    25    1
     3    25    26    1
     4    25    19    1
     5    19    20   ar
     6    20    21   ar
     7    21    22   ar
     8    22    13    1
     9    13    14   ar
    10    14    15   ar
    11    15    16   ar
    12    16     7    1
    13     7     8    1
    14     8     9    1
    15     9    10    1
    16    10     1    1
    17     1     2   ar
    18     2     3   ar
    19     3     4   ar
    20     4    29    1
    21    29    30    1
    22    30    31    1
    23    31    32    1
    24    32    33    1
    25    33    34    1
    26    34    44    1
    27    44    45    1
    28    45    46   ar
    29    46    47   ar
    30    47    48   ar
    31    48    49   ar
    32    49    50    1
    33    50    51    1
    34    50    52    1
    35    34    36    1
    36    36    37   ar
    37    37    38   ar
    38    38    39   ar
    39    39    40    1
    40    39    41   ar
    41    41    42   ar
    42    42    43    1
    43    34    35    1
    44     4     5   ar
    45     5     6   ar
    46    10    11    1
    47    11    12    1
    48    16    17   ar
    49    17    18   ar
    50    22    23   ar
    51    23    24    2
    52    23    19   ar
    53    18    13   ar
    54    12     7    1
    55     6     1   ar
    56    35    31    1
    57    49    45   ar
    58    42    36   ar
