@<TRIPOS>MOLECULE
*****
 30 33 0 0 0
SMALL
GASTEIGER

@<TRIPOS>ATOM
      1 N         -21.9033  -12.5301  -14.7509 N.ar    1  UNL1       -0.3243
      2 C         -22.2689  -11.4495  -15.4805 C.ar    1  UNL1        0.0600
      3 C         -22.7809  -11.4367  -16.7836 C.ar    1  UNL1        0.0177
      4 C         -23.0887  -10.1991  -17.3665 C.ar    1  UNL1        0.0082
      5 C         -22.8831   -9.0029  -16.6529 C.ar    1  UNL1        0.0347
      6 BR        -23.3076   -7.3286  -17.4680 Br      1  UNL1       -0.0490
      7 C         -22.3642   -9.0319  -15.3473 C.ar    1  UNL1        0.0082
      8 C         -22.0611  -10.2740  -14.7759 C.ar    1  UNL1        0.0181
      9 C         -21.5326  -10.6431  -13.5390 C.ar    1  UNL1        0.0230
     10 C         -21.1118   -9.9160  -12.4028 C.ar    1  UNL1        0.0377
     11 I         -21.2068   -7.7931  -12.2683 I       1  UNL1       -0.0420
     12 C         -20.6049  -10.6567  -11.3045 C.ar    1  UNL1        0.0400
     13 BR        -19.9961   -9.8075   -9.6953 Br      1  UNL1       -0.0486
     14 C         -20.5296  -12.0616  -11.3598 C.ar    1  UNL1        0.0086
     15 C         -20.9530  -12.7590  -12.4954 C.ar    1  UNL1        0.0177
     16 C         -21.4526  -12.0296  -13.5750 C.ar    1  UNL1        0.0604
     17 C         -21.9334  -13.9421  -15.1568 C.3     1  UNL1        0.1429
     18 C         -23.3630  -14.4045  -15.4740 C.3     1  UNL1        0.2027
     19 F         -23.3039  -15.6804  -16.0075 F       1  UNL1       -0.2334
     20 C         -24.2596  -14.4014  -14.2277 C.3     1  UNL1        0.1259
     21 N         -25.2840  -13.3630  -14.3326 N.pl3   1  UNL1       -0.3157
     22 H         -26.1185  -13.5552  -14.9323 H       1  UNL1        0.1483
     23 C         -24.5021  -10.7981  -11.7924 C.ar    1  UNL1        0.2261
     24 C         -24.9209   -9.6225  -12.4208 C.ar    1  UNL1        0.0578
     25 C         -25.4684   -9.6892  -13.7033 C.ar    1  UNL1        0.0077
     26 C         -25.5930  -10.9236  -14.3438 C.ar    1  UNL1        0.0343
     27 C         -25.1655  -12.0857  -13.6879 C.ar    1  UNL1        0.1317
     28 N         -24.6322  -11.9910  -12.4377 N.ar    1  UNL1       -0.1969
     29 C         -24.0436   -9.5741   -9.6914 C.3     1  UNL1        0.2542
     30 O         -23.9553  -10.7362  -10.5076 O.3     1  UNL1       -0.4561
@<TRIPOS>BOND
     1    29    30    1
     2    30    23    1
     3    23    24   ar
     4    24    25   ar
     5    25    26   ar
     6    26    27   ar
     7    27    21    1
     8    21    20    1
     9    20    18    1
    10    18    19    1
    11    18    17    1
    12    17     1    1
    13     1     2   ar
    14     2     3   ar
    15     3     4   ar
    16     4     5   ar
    17     5     6    1
    18     5     7   ar
    19     7     8   ar
    20     8     9   ar
    21     9    10   ar
    22    10    11    1
    23    10    12   ar
    24    12    13    1
    25    12    14   ar
    26    14    15   ar
    27    15    16   ar
    28    27    28   ar
    29    28    23   ar
    30    16     1   ar
    31     8     2   ar
    32    16     9   ar
    33    21    22    1
@<TRIPOS>MOLECULE
*****
 30 33 0 0 0
SMALL
GASTEIGER

@<TRIPOS>ATOM
      1 N         -21.8384  -13.1999  -15.5850 N.ar    1  UNL1       -0.3243
      2 C         -21.4304  -12.8046  -14.3558 C.ar    1  UNL1        0.0600
      3 C         -20.9099  -13.6072  -13.3335 C.ar    1  UNL1        0.0177
      4 C         -20.5551  -12.9966  -12.1221 C.ar    1  UNL1        0.0082
      5 C         -20.7231  -11.6100  -11.9453 C.ar    1  UNL1        0.0347
      6 BR        -20.2350  -10.8003  -10.2859 Br      1  UNL1       -0.0490
      7 C         -21.2511  -10.8184  -12.9794 C.ar    1  UNL1        0.0082
      8 C         -21.6014  -11.4397  -14.1847 C.ar    1  UNL1        0.0181
      9 C         -22.1504  -10.9584  -15.3730 C.ar    1  UNL1        0.0230
     10 C         -22.5528   -9.6769  -15.8119 C.ar    1  UNL1        0.0377
     11 I         -22.3843   -7.9223  -14.6175 I       1  UNL1       -0.0420
     12 C         -23.0924   -9.5743  -17.1197 C.ar    1  UNL1        0.0400
     13 BR        -23.6814   -7.9014  -17.8518 Br      1  UNL1       -0.0486
     14 C         -23.2166  -10.7144  -17.9363 C.ar    1  UNL1        0.0086
     15 C         -22.8107  -11.9722  -17.4798 C.ar    1  UNL1        0.0177
     16 C         -22.2788  -12.0720  -16.1935 C.ar    1  UNL1        0.0604
     17 C         -21.8552  -14.5636  -16.1323 C.3     1  UNL1        0.1429
     18 C         -23.0393  -15.3735  -15.5846 C.3     1  UNL1        0.2027
     19 F         -22.8550  -15.5566  -14.2249 F       1  UNL1       -0.2334
     20 C         -24.3825  -14.6748  -15.8393 C.3     1  UNL1        0.1259
     21 N         -25.0145  -14.2969  -14.5758 N.pl3   1  UNL1       -0.3157
     22 H         -25.4691  -15.0491  -14.0098 H       1  UNL1        0.1483
     23 C         -24.6308  -11.3341  -12.4037 C.ar    1  UNL1        0.2261
     24 C         -25.1742  -10.3170  -13.1927 C.ar    1  UNL1        0.0578
     25 C         -25.6720  -10.6252  -14.4600 C.ar    1  UNL1        0.0077
     26 C         -25.6238  -11.9406  -14.9260 C.ar    1  UNL1        0.0343
     27 C         -25.0742  -12.9396  -14.1116 C.ar    1  UNL1        0.1317
     28 N         -24.5930  -12.6100  -12.8803 N.ar    1  UNL1       -0.1969
     29 C         -24.0593   -9.6992  -10.6366 C.3     1  UNL1        0.2542
     30 O         -24.1330  -11.0303  -11.1335 O.3     1  UNL1       -0.4561
@<TRIPOS>BOND
     1    29    30    1
     2    30    23    1
     3    23    24   ar
     4    24    25   ar
     5    25    26   ar
     6    26    27   ar
     7    27    21    1
     8    21    20    1
     9    20    18    1
    10    18    19    1
    11    18    17    1
    12    17     1    1
    13     1     2   ar
    14     2     3   ar
    15     3     4   ar
    16     4     5   ar
    17     5     6    1
    18     5     7   ar
    19     7     8   ar
    20     8     9   ar
    21     9    10   ar
    22    10    11    1
    23    10    12   ar
    24    12    13    1
    25    12    14   ar
    26    14    15   ar
    27    15    16   ar
    28    27    28   ar
    29    28    23   ar
    30    16     1   ar
    31     8     2   ar
    32    16     9   ar
    33    21    22    1
@<TRIPOS>MOLECULE
*****
 30 33 0 0 0
SMALL
GASTEIGER

@<TRIPOS>ATOM
      1 N         -22.5973   -9.4254  -11.3957 N.ar    1  UNL1       -0.3243
      2 C         -23.8020   -8.9176  -11.7483 C.ar    1  UNL1        0.0600
      3 C         -24.4184   -7.7645  -11.2476 C.ar    1  UNL1        0.0177
      4 C         -25.6831   -7.4163  -11.7433 C.ar    1  UNL1        0.0082
      5 C         -26.3118   -8.2131  -12.7190 C.ar    1  UNL1        0.0347
      6 BR        -28.0354   -7.7204  -13.3778 Br      1  UNL1       -0.0490
      7 C         -25.6822   -9.3701  -13.2084 C.ar    1  UNL1        0.0082
      8 C         -24.4192   -9.7072  -12.7060 C.ar    1  UNL1        0.0181
      9 C         -23.5515  -10.7688  -12.9615 C.ar    1  UNL1        0.0230
     10 C         -23.6109  -11.8920  -13.8170 C.ar    1  UNL1        0.0377
     11 I         -25.2501  -12.2904  -15.1162 I       1  UNL1       -0.0420
     12 C         -22.5111  -12.7875  -13.7963 C.ar    1  UNL1        0.0400
     13 BR        -22.4506  -14.3545  -14.9017 Br      1  UNL1       -0.0486
     14 C         -21.4105  -12.5531  -12.9500 C.ar    1  UNL1        0.0086
     15 C         -21.3745  -11.4338  -12.1126 C.ar    1  UNL1        0.0177
     16 C         -22.4563  -10.5528  -12.1345 C.ar    1  UNL1        0.0604
     17 C         -21.6604   -8.9046  -10.3906 C.3     1  UNL1        0.1429
     18 C         -20.5349   -8.0881  -11.0423 C.3     1  UNL1        0.2027
     19 F         -19.5677   -8.9638  -11.5044 F       1  UNL1       -0.2334
     20 C         -21.0485   -7.2202  -12.2000 C.3     1  UNL1        0.1259
     21 N         -20.5328   -7.7086  -13.4782 N.pl3   1  UNL1       -0.3157
     22 H         -19.5035   -7.6442  -13.6494 H       1  UNL1        0.1483
     23 C         -21.8498   -9.9109  -16.1351 C.ar    1  UNL1        0.2261
     24 C         -23.0168   -9.2453  -16.5191 C.ar    1  UNL1        0.0578
     25 C         -23.3648   -8.0516  -15.8843 C.ar    1  UNL1        0.0077
     26 C         -22.5479   -7.5350  -14.8766 C.ar    1  UNL1        0.0343
     27 C         -21.3830   -8.2243  -14.5139 C.ar    1  UNL1        0.1317
     28 N         -21.0691   -9.3885  -15.1481 N.ar    1  UNL1       -0.1969
     29 C         -22.3907  -11.8178  -17.6161 C.3     1  UNL1        0.2542
     30 O         -21.4965  -11.1052  -16.7694 O.3     1  UNL1       -0.4561
@<TRIPOS>BOND
     1    29    30    1
     2    30    23    1
     3    23    24   ar
     4    24    25   ar
     5    25    26   ar
     6    26    27   ar
     7    27    21    1
     8    21    20    1
     9    20    18    1
    10    18    19    1
    11    18    17    1
    12    17     1    1
    13     1     2   ar
    14     2     3   ar
    15     3     4   ar
    16     4     5   ar
    17     5     6    1
    18     5     7   ar
    19     7     8   ar
    20     8     9   ar
    21     9    10   ar
    22    10    11    1
    23    10    12   ar
    24    12    13    1
    25    12    14   ar
    26    14    15   ar
    27    15    16   ar
    28    27    28   ar
    29    28    23   ar
    30    16     1   ar
    31     8     2   ar
    32    16     9   ar
    33    21    22    1
@<TRIPOS>MOLECULE
*****
 30 33 0 0 0
SMALL
GASTEIGER

@<TRIPOS>ATOM
      1 N         -24.2951   -9.6095  -11.0882 N.ar    1  UNL1       -0.3243
      2 C         -23.6794  -10.4985  -11.9033 C.ar    1  UNL1        0.0600
      3 C         -24.2463  -11.2117  -12.9665 C.ar    1  UNL1        0.0177
      4 C         -23.4307  -12.0983  -13.6841 C.ar    1  UNL1        0.0082
      5 C         -22.0764  -12.2631  -13.3365 C.ar    1  UNL1        0.0347
      6 BR        -20.9851  -13.4780  -14.3268 Br      1  UNL1       -0.0490
      7 C         -21.5231  -11.5434  -12.2638 C.ar    1  UNL1        0.0082
      8 C         -22.3476  -10.6608  -11.5550 C.ar    1  UNL1        0.0181
      9 C         -22.1220   -9.8287  -10.4586 C.ar    1  UNL1        0.0230
     10 C         -20.9898   -9.5573   -9.6578 C.ar    1  UNL1        0.0377
     11 I         -19.0861  -10.4567   -9.9758 I       1  UNL1       -0.0420
     12 C         -21.1492   -8.6335   -8.5933 C.ar    1  UNL1        0.0400
     13 BR        -19.7026   -8.1665   -7.4226 Br      1  UNL1       -0.0486
     14 C         -22.3939   -8.0197   -8.3561 C.ar    1  UNL1        0.0086
     15 C         -23.4999   -8.3041   -9.1630 C.ar    1  UNL1        0.0177
     16 C         -23.3418   -9.2121  -10.2107 C.ar    1  UNL1        0.0604
     17 C         -25.7056   -9.1978  -11.1074 C.3     1  UNL1        0.1429
     18 C         -25.9830   -8.1983  -12.2397 C.3     1  UNL1        0.2027
     19 F         -27.1619   -8.5618  -12.8675 F       1  UNL1       -0.2334
     20 C         -26.0906   -6.7567  -11.7226 C.3     1  UNL1        0.1259
     21 N         -25.0706   -5.9103  -12.3404 N.pl3   1  UNL1       -0.3157
     22 H         -25.3888   -5.0813  -12.8923 H       1  UNL1        0.1483
     23 C         -21.7735   -7.4213  -13.0398 C.ar    1  UNL1        0.2261
     24 C         -20.9485   -6.7693  -12.1195 C.ar    1  UNL1        0.0578
     25 C         -21.4999   -5.8177  -11.2597 C.ar    1  UNL1        0.0077
     26 C         -22.8640   -5.5272  -11.3254 C.ar    1  UNL1        0.0343
     27 C         -23.6666   -6.1983  -12.2576 C.ar    1  UNL1        0.1317
     28 N         -23.1016   -7.1202  -13.0865 N.ar    1  UNL1       -0.1969
     29 C         -21.8831   -8.8050  -15.0881 C.3     1  UNL1        0.2542
     30 O         -21.2262   -8.3762  -13.9012 O.3     1  UNL1       -0.4561
@<TRIPOS>BOND
     1    29    30    1
     2    30    23    1
     3    23    24   ar
     4    24    25   ar
     5    25    26   ar
     6    26    27   ar
     7    27    21    1
     8    21    20    1
     9    20    18    1
    10    18    19    1
    11    18    17    1
    12    17     1    1
    13     1     2   ar
    14     2     3   ar
    15     3     4   ar
    16     4     5   ar
    17     5     6    1
    18     5     7   ar
    19     7     8   ar
    20     8     9   ar
    21     9    10   ar
    22    10    11    1
    23    10    12   ar
    24    12    13    1
    25    12    14   ar
    26    14    15   ar
    27    15    16   ar
    28    27    28   ar
    29    28    23   ar
    30    16     1   ar
    31     8     2   ar
    32    16     9   ar
    33    21    22    1
@<TRIPOS>MOLECULE
*****
 30 33 0 0 0
SMALL
GASTEIGER

@<TRIPOS>ATOM
      1 N         -23.6376  -11.3345  -13.2300 N.ar    1  UNL1       -0.3243
      2 C         -22.5090  -11.1833  -12.4971 C.ar    1  UNL1        0.0600
      3 C         -21.5767  -12.1710  -12.1577 C.ar    1  UNL1        0.0177
      4 C         -20.4724  -11.8043  -11.3750 C.ar    1  UNL1        0.0082
      5 C         -20.3135  -10.4736  -10.9435 C.ar    1  UNL1        0.0347
      6 BR        -18.8027   -9.9976   -9.8765 Br      1  UNL1       -0.0490
      7 C         -21.2604   -9.4944  -11.2888 C.ar    1  UNL1        0.0082
      8 C         -22.3587   -9.8728  -12.0710 C.ar    1  UNL1        0.0181
      9 C         -23.4576   -9.1690  -12.5631 C.ar    1  UNL1        0.0230
     10 C         -23.8751   -7.8224  -12.4670 C.ar    1  UNL1        0.0377
     11 I         -22.7775   -6.3265  -11.4223 I       1  UNL1       -0.0420
     12 C         -25.0898   -7.4680  -13.1081 C.ar    1  UNL1        0.0400
     13 BR        -25.7828   -5.6795  -13.0635 Br      1  UNL1       -0.0486
     14 C         -25.8395   -8.4323  -13.8085 C.ar    1  UNL1        0.0086
     15 C         -25.4052   -9.7589  -13.8902 C.ar    1  UNL1        0.0177
     16 C         -24.2095  -10.1063  -13.2602 C.ar    1  UNL1        0.0604
     17 C         -24.1662  -12.5704  -13.8238 C.3     1  UNL1        0.1429
     18 C         -23.4025  -12.9510  -15.1005 C.3     1  UNL1        0.2027
     19 F         -23.3210  -14.3311  -15.1689 F       1  UNL1       -0.2334
     20 C         -24.0836  -12.4056  -16.3638 C.3     1  UNL1        0.1259
     21 N         -23.1666  -11.5488  -17.1145 N.pl3   1  UNL1       -0.3157
     22 H         -22.8131  -11.8957  -18.0352 H       1  UNL1        0.1483
     23 C         -23.0521   -7.9431  -16.3215 C.ar    1  UNL1        0.2261
     24 C         -21.8259   -7.8244  -15.6622 C.ar    1  UNL1        0.0578
     25 C         -21.0326   -8.9590  -15.4820 C.ar    1  UNL1        0.0077
     26 C         -21.4683  -10.1963  -15.9601 C.ar    1  UNL1        0.0343
     27 C         -22.7021  -10.2841  -16.6186 C.ar    1  UNL1        0.1317
     28 N         -23.4572   -9.1613  -16.7780 N.ar    1  UNL1       -0.1969
     29 C         -24.1645   -6.2951  -17.7942 C.3     1  UNL1        0.2542
     30 O         -23.8486   -6.8095  -16.5058 O.3     1  UNL1       -0.4561
@<TRIPOS>BOND
     1    29    30    1
     2    30    23    1
     3    23    24   ar
     4    24    25   ar
     5    25    26   ar
     6    26    27   ar
     7    27    21    1
     8    21    20    1
     9    20    18    1
    10    18    19    1
    11    18    17    1
    12    17     1    1
    13     1     2   ar
    14     2     3   ar
    15     3     4   ar
    16     4     5   ar
    17     5     6    1
    18     5     7   ar
    19     7     8   ar
    20     8     9   ar
    21     9    10   ar
    22    10    11    1
    23    10    12   ar
    24    12    13    1
    25    12    14   ar
    26    14    15   ar
    27    15    16   ar
    28    27    28   ar
    29    28    23   ar
    30    16     1   ar
    31     8     2   ar
    32    16     9   ar
    33    21    22    1
@<TRIPOS>MOLECULE
*****
 30 33 0 0 0
SMALL
GASTEIGER

@<TRIPOS>ATOM
      1 N         -23.3269  -11.5759  -13.3525 N.ar    1  UNL1       -0.3243
      2 C         -23.9600  -10.3789  -13.3440 C.ar    1  UNL1        0.0600
      3 C         -25.1175  -10.0240  -14.0472 C.ar    1  UNL1        0.0177
      4 C         -25.6084   -8.7179  -13.9069 C.ar    1  UNL1        0.0082
      5 C         -24.9464   -7.7915  -13.0788 C.ar    1  UNL1        0.0347
      6 BR        -25.6320   -6.0175  -12.9046 Br      1  UNL1       -0.0490
      7 C         -23.7829   -8.1615  -12.3829 C.ar    1  UNL1        0.0082
      8 C         -23.3027   -9.4688  -12.5309 C.ar    1  UNL1        0.0181
      9 C         -22.1957  -10.1355  -12.0062 C.ar    1  UNL1        0.0230
     10 C         -21.1525   -9.7545  -11.1325 C.ar    1  UNL1        0.0377
     11 I         -20.9963   -7.8145  -10.2689 I       1  UNL1       -0.0420
     12 C         -20.1692  -10.7296  -10.8253 C.ar    1  UNL1        0.0400
     13 BR        -18.6947  -10.3581   -9.6553 Br      1  UNL1       -0.0486
     14 C         -20.2433  -12.0224  -11.3781 C.ar    1  UNL1        0.0086
     15 C         -21.2861  -12.3760  -12.2400 C.ar    1  UNL1        0.0177
     16 C         -22.2535  -11.4164  -12.5407 C.ar    1  UNL1        0.0604
     17 C         -23.6867  -12.7789  -14.1159 C.3     1  UNL1        0.1429
     18 C         -23.0253  -12.7825  -15.5018 C.3     1  UNL1        0.2027
     19 F         -22.5982  -14.0692  -15.7814 F       1  UNL1       -0.2334
     20 C         -23.9849  -12.3015  -16.5996 C.3     1  UNL1        0.1259
     21 N         -23.3221  -11.3374  -17.4770 N.pl3   1  UNL1       -0.3157
     22 H         -23.1901  -11.5971  -18.4810 H       1  UNL1        0.1483
     23 C         -23.0266   -7.7121  -16.8346 C.ar    1  UNL1        0.2261
     24 C         -21.8400   -7.6379  -16.1005 C.ar    1  UNL1        0.0578
     25 C         -21.1347   -8.8092  -15.8188 C.ar    1  UNL1        0.0077
     26 C         -21.6177  -10.0387  -16.2711 C.ar    1  UNL1        0.0343
     27 C         -22.8098  -10.0816  -17.0062 C.ar    1  UNL1        0.1317
     28 N         -23.4792   -8.9233  -17.2642 N.ar    1  UNL1       -0.1969
     29 C         -24.4576   -6.3590  -18.3326 C.3     1  UNL1        0.2542
     30 O         -23.7350   -6.5417  -17.1207 O.3     1  UNL1       -0.4561
@<TRIPOS>BOND
     1    29    30    1
     2    30    23    1
     3    23    24   ar
     4    24    25   ar
     5    25    26   ar
     6    26    27   ar
     7    27    21    1
     8    21    20    1
     9    20    18    1
    10    18    19    1
    11    18    17    1
    12    17     1    1
    13     1     2   ar
    14     2     3   ar
    15     3     4   ar
    16     4     5   ar
    17     5     6    1
    18     5     7   ar
    19     7     8   ar
    20     8     9   ar
    21     9    10   ar
    22    10    11    1
    23    10    12   ar
    24    12    13    1
    25    12    14   ar
    26    14    15   ar
    27    15    16   ar
    28    27    28   ar
    29    28    23   ar
    30    16     1   ar
    31     8     2   ar
    32    16     9   ar
    33    21    22    1
@<TRIPOS>MOLECULE
*****
 30 33 0 0 0
SMALL
GASTEIGER

@<TRIPOS>ATOM
      1 N         -24.6147   -9.6137  -11.6816 N.ar    1  UNL1       -0.3243
      2 C         -23.3747   -9.7022  -11.1448 C.ar    1  UNL1        0.0600
      3 C         -22.8729   -8.9992  -10.0428 C.ar    1  UNL1        0.0177
      4 C         -21.5465   -9.2317   -9.6518 C.ar    1  UNL1        0.0082
      5 C         -20.7448  -10.1497  -10.3567 C.ar    1  UNL1        0.0347
      6 BR        -18.9402  -10.4486   -9.8073 Br      1  UNL1       -0.0490
      7 C         -21.2615  -10.8442  -11.4636 C.ar    1  UNL1        0.0082
      8 C         -22.5876  -10.6038  -11.8442 C.ar    1  UNL1        0.0181
      9 C         -23.3811  -11.1022  -12.8772 C.ar    1  UNL1        0.0230
     10 C         -23.1559  -12.0316  -13.9175 C.ar    1  UNL1        0.0377
     11 I         -21.3089  -13.0535  -14.1970 I       1  UNL1       -0.0420
     12 C         -24.2287  -12.2851  -14.8103 C.ar    1  UNL1        0.0400
     13 BR        -24.0711  -13.5206  -16.2697 Br      1  UNL1       -0.0486
     14 C         -25.4637  -11.6275  -14.6532 C.ar    1  UNL1        0.0086
     15 C         -25.6627  -10.7121  -13.6151 C.ar    1  UNL1        0.0177
     16 C         -24.6071  -10.4643  -12.7367 C.ar    1  UNL1        0.0604
     17 C         -25.7208   -8.7459  -11.2540 C.3     1  UNL1        0.1429
     18 C         -26.5140   -8.2141  -12.4566 C.3     1  UNL1        0.2027
     19 F         -27.8370   -8.0634  -12.0783 F       1  UNL1       -0.2334
     20 C         -25.9612   -6.8750  -12.9650 C.3     1  UNL1        0.1259
     21 N         -25.1781   -7.0706  -14.1844 N.pl3   1  UNL1       -0.3157
     22 H         -25.6685   -6.9783  -15.1031 H       1  UNL1        0.1483
     23 C         -21.6528   -7.3092  -13.1082 C.ar    1  UNL1        0.2261
     24 C         -21.0919   -8.1077  -14.1084 C.ar    1  UNL1        0.0578
     25 C         -21.8995   -8.5691  -15.1495 C.ar    1  UNL1        0.0077
     26 C         -23.2535   -8.2302  -15.1831 C.ar    1  UNL1        0.0343
     27 C         -23.7874   -7.4267  -14.1668 C.ar    1  UNL1        0.1317
     28 N         -22.9770   -6.9928  -13.1612 N.ar    1  UNL1       -0.1969
     29 C         -21.2131   -5.7366  -11.2492 C.3     1  UNL1        0.2542
     30 O         -20.8476   -6.8434  -12.0650 O.3     1  UNL1       -0.4561
@<TRIPOS>BOND
     1    29    30    1
     2    30    23    1
     3    23    24   ar
     4    24    25   ar
     5    25    26   ar
     6    26    27   ar
     7    27    21    1
     8    21    20    1
     9    20    18    1
    10    18    19    1
    11    18    17    1
    12    17     1    1
    13     1     2   ar
    14     2     3   ar
    15     3     4   ar
    16     4     5   ar
    17     5     6    1
    18     5     7   ar
    19     7     8   ar
    20     8     9   ar
    21     9    10   ar
    22    10    11    1
    23    10    12   ar
    24    12    13    1
    25    12    14   ar
    26    14    15   ar
    27    15    16   ar
    28    27    28   ar
    29    28    23   ar
    30    16     1   ar
    31     8     2   ar
    32    16     9   ar
    33    21    22    1
@<TRIPOS>MOLECULE
*****
 30 33 0 0 0
SMALL
GASTEIGER

@<TRIPOS>ATOM
      1 N         -23.1023  -10.0607  -10.6163 N.ar    1  UNL1       -0.3243
      2 C         -24.2259   -9.4769  -11.0964 C.ar    1  UNL1        0.0600
      3 C         -25.0700   -8.5805  -10.4298 C.ar    1  UNL1        0.0177
      4 C         -26.1976   -8.0967  -11.1086 C.ar    1  UNL1        0.0082
      5 C         -26.4683   -8.5087  -12.4274 C.ar    1  UNL1        0.0347
      6 BR        -28.0113   -7.8382  -13.3316 Br      1  UNL1       -0.0490
      7 C         -25.6140   -9.4125  -13.0815 C.ar    1  UNL1        0.0082
      8 C         -24.4909   -9.8884  -12.3933 C.ar    1  UNL1        0.0181
      9 C         -23.4773  -10.7818  -12.7391 C.ar    1  UNL1        0.0230
     10 C         -23.1961  -11.5343  -13.9016 C.ar    1  UNL1        0.0377
     11 I         -24.3992  -11.4727  -15.6574 I       1  UNL1       -0.0420
     12 C         -22.0474  -12.3661  -13.8791 C.ar    1  UNL1        0.0400
     13 BR        -21.5396  -13.4451  -15.3821 Br      1  UNL1       -0.0486
     14 C         -21.2295  -12.4294  -12.7348 C.ar    1  UNL1        0.0086
     15 C         -21.5281  -11.6745  -11.5963 C.ar    1  UNL1        0.0177
     16 C         -22.6577  -10.8556  -11.6198 C.ar    1  UNL1        0.0604
     17 C         -22.5130   -9.9136   -9.2782 C.3     1  UNL1        0.1429
     18 C         -21.7537   -8.5857   -9.1424 C.3     1  UNL1        0.2027
     19 F         -21.4494   -8.3882   -7.8066 F       1  UNL1       -0.2334
     20 C         -20.4661   -8.5699   -9.9785 C.3     1  UNL1        0.1259
     21 N         -20.4803   -7.4555  -10.9253 N.pl3   1  UNL1       -0.3157
     22 H         -19.8885   -6.6209  -10.7104 H       1  UNL1        0.1483
     23 C         -21.6984   -8.1835  -14.3355 C.ar    1  UNL1        0.2261
     24 C         -22.8831   -7.4445  -14.3901 C.ar    1  UNL1        0.0578
     25 C         -23.2764   -6.6980  -13.2779 C.ar    1  UNL1        0.0077
     26 C         -22.4867   -6.6953  -12.1264 C.ar    1  UNL1        0.0343
     27 C         -21.3031   -7.4451  -12.1018 C.ar    1  UNL1        0.1317
     28 N         -20.9449   -8.1667  -13.2005 N.ar    1  UNL1       -0.1969
     29 C         -20.5242   -8.3787  -16.5047 C.3     1  UNL1        0.2542
     30 O         -21.2999   -8.9307  -15.4473 O.3     1  UNL1       -0.4561
@<TRIPOS>BOND
     1    29    30    1
     2    30    23    1
     3    23    24   ar
     4    24    25   ar
     5    25    26   ar
     6    26    27   ar
     7    27    21    1
     8    21    20    1
     9    20    18    1
    10    18    19    1
    11    18    17    1
    12    17     1    1
    13     1     2   ar
    14     2     3   ar
    15     3     4   ar
    16     4     5   ar
    17     5     6    1
    18     5     7   ar
    19     7     8   ar
    20     8     9   ar
    21     9    10   ar
    22    10    11    1
    23    10    12   ar
    24    12    13    1
    25    12    14   ar
    26    14    15   ar
    27    15    16   ar
    28    27    28   ar
    29    28    23   ar
    30    16     1   ar
    31     8     2   ar
    32    16     9   ar
    33    21    22    1
@<TRIPOS>MOLECULE
*****
 30 33 0 0 0
SMALL
GASTEIGER

@<TRIPOS>ATOM
      1 N         -23.6777  -11.1685  -14.4879 N.ar    1  UNL1       -0.3243
      2 C         -22.6284  -11.6399  -13.7734 C.ar    1  UNL1        0.0600
      3 C         -21.5875  -12.4575  -14.2298 C.ar    1  UNL1        0.0177
      4 C         -20.5958  -12.8454  -13.3174 C.ar    1  UNL1        0.0082
      5 C         -20.6538  -12.4204  -11.9764 C.ar    1  UNL1        0.0347
      6 BR        -19.2931  -12.9629  -10.7509 Br      1  UNL1       -0.0490
      7 C         -21.7075  -11.6035  -11.5324 C.ar    1  UNL1        0.0082
      8 C         -22.6916  -11.2225  -12.4531 C.ar    1  UNL1        0.0181
      9 C         -23.8476  -10.4507  -12.3378 C.ar    1  UNL1        0.0230
     10 C         -24.4571   -9.7627  -11.2645 C.ar    1  UNL1        0.0377
     11 I         -23.6481   -9.7099   -9.2956 I       1  UNL1       -0.0420
     12 C         -25.6688   -9.0760  -11.5331 C.ar    1  UNL1        0.0400
     13 BR        -26.6100   -8.0990  -10.1763 Br      1  UNL1       -0.0486
     14 C         -26.2303   -9.0894  -12.8242 C.ar    1  UNL1        0.0086
     15 C         -25.6079   -9.7770  -13.8706 C.ar    1  UNL1        0.0177
     16 C         -24.4153  -10.4514  -13.6057 C.ar    1  UNL1        0.0604
     17 C         -23.9887  -11.4188  -15.9021 C.3     1  UNL1        0.1429
     18 C         -22.9479  -10.7731  -16.8284 C.3     1  UNL1        0.2027
     19 F         -23.2166  -11.1615  -18.1295 F       1  UNL1       -0.2334
     20 C         -22.9591   -9.2411  -16.7286 C.3     1  UNL1        0.1259
     21 N         -21.7688   -8.7617  -16.0272 N.pl3   1  UNL1       -0.3157
     22 H         -20.8473   -8.8382  -16.5148 H       1  UNL1        0.1483
     23 C         -20.7969   -8.0107  -12.5437 C.ar    1  UNL1        0.2261
     24 C         -21.8694   -7.2335  -12.0987 C.ar    1  UNL1        0.0578
     25 C         -22.9245   -6.9591  -12.9707 C.ar    1  UNL1        0.0077
     26 C         -22.8999   -7.4615  -14.2732 C.ar    1  UNL1        0.0343
     27 C         -21.8115   -8.2391  -14.6906 C.ar    1  UNL1        0.1317
     28 N         -20.7941   -8.4888  -13.8196 N.ar    1  UNL1       -0.1969
     29 C         -19.9421   -8.7419  -10.3398 C.3     1  UNL1        0.2542
     30 O         -19.7393   -8.2896  -11.6734 O.3     1  UNL1       -0.4561
@<TRIPOS>BOND
     1    29    30    1
     2    30    23    1
     3    23    24   ar
     4    24    25   ar
     5    25    26   ar
     6    26    27   ar
     7    27    21    1
     8    21    20    1
     9    20    18    1
    10    18    19    1
    11    18    17    1
    12    17     1    1
    13     1     2   ar
    14     2     3   ar
    15     3     4   ar
    16     4     5   ar
    17     5     6    1
    18     5     7   ar
    19     7     8   ar
    20     8     9   ar
    21     9    10   ar
    22    10    11    1
    23    10    12   ar
    24    12    13    1
    25    12    14   ar
    26    14    15   ar
    27    15    16   ar
    28    27    28   ar
    29    28    23   ar
    30    16     1   ar
    31     8     2   ar
    32    16     9   ar
    33    21    22    1
