@<TRIPOS>MOLECULE
*****
 37 40 0 0 0
SMALL
GASTEIGER

@<TRIPOS>ATOM
      1 C          -8.9376  -10.6377   32.7947 C.2     1  UNL1        0.2670
      2 O          -8.6919  -10.3543   33.9967 O.2     1  UNL1       -0.2682
      3 N         -10.2650  -11.0561   32.4108 N.am    1  UNL1       -0.2685
      4 C          -6.9470   -9.4593   31.7673 C.ar    1  UNL1        0.0295
      5 C          -7.8472  -10.5542   31.8113 C.ar    1  UNL1        0.1330
      6 N          -7.7348  -11.5640   30.9095 N.ar    1  UNL1       -0.2395
      7 C          -6.8282  -11.5442   29.9033 C.ar    1  UNL1        0.0989
      8 C          -5.9870  -10.4416   29.7392 C.ar    1  UNL1        0.0190
      9 C          -5.0980  -10.3865   28.6549 C.ar    1  UNL1        0.0015
     10 C          -4.2703   -9.2772   28.4821 C.ar    1  UNL1        0.0000
     11 C          -4.3221   -8.2184   29.3879 C.ar    1  UNL1       -0.0000
     12 C          -5.1969   -8.2630   30.4763 C.ar    1  UNL1       -0.0001
     13 C          -6.0426   -9.3775   30.6746 C.ar    1  UNL1        0.0015
     14 C          -6.9195   -8.4338   32.8842 C.3     1  UNL1        0.1703
     15 C          -7.3117   -6.1768   32.6452 C.3     1  UNL1        0.1746
     16 O          -7.9057   -7.4547   32.6460 O.3     1  UNL1       -0.3463
     17 C         -10.4980  -12.3662   31.7614 C.3     1  UNL1        0.1007
     18 C         -10.9988  -12.1762   30.3204 C.3     1  UNL1        0.0265
     19 C         -11.3707  -13.2756   32.6182 C.ar    1  UNL1        0.0234
     20 C         -12.5892  -13.8136   32.1502 C.ar    1  UNL1        0.0019
     21 C         -13.3910  -14.5947   32.9867 C.ar    1  UNL1        0.0295
     22 C         -12.9876  -14.8622   34.2949 C.ar    1  UNL1        0.1424
     23 F         -13.7737  -15.6103   35.1075 F       1  UNL1       -0.2041
     24 C         -11.7730  -14.3613   34.7649 C.ar    1  UNL1        0.0590
     25 C         -10.9653  -13.5775   33.9347 C.ar    1  UNL1        0.1399
     26 F          -9.7928  -13.1004   34.4242 F       1  UNL1       -0.2044
     27 C         -11.4162  -10.2580   32.8612 C.3     1  UNL1        0.1207
     28 C         -11.5951   -9.0286   32.0053 C.ar    1  UNL1       -0.0021
     29 C         -12.8067   -8.3208   32.0280 C.ar    1  UNL1       -0.0026
     30 C         -12.9561   -7.1565   31.2739 C.ar    1  UNL1       -0.0001
     31 C         -11.9027   -6.6909   30.4845 C.ar    1  UNL1        0.0064
     32 C         -10.6866   -7.3945   30.4305 C.ar    1  UNL1        0.0752
     33 C         -10.5403   -8.5617   31.2032 C.ar    1  UNL1        0.0038
     34 C          -9.5767   -6.8886   29.5865 C.2     1  UNL1        0.3380
     35 O          -8.6956   -7.6867   29.1692 O.2     1  UNL1       -0.2451
     36 O          -9.4661   -5.5403   29.2481 O.3     1  UNL1       -0.4771
     37 H         -10.0740   -4.8292   29.6331 H       1  UNL1        0.2954
@<TRIPOS>BOND
     1    15    16    1
     2    16    14    1
     3    14     4    1
     4     4     5   ar
     5     5     1    1
     6     1     2    2
     7     1     3   am
     8     3    27    1
     9    27    28    1
    10    28    29   ar
    11    29    30   ar
    12    30    31   ar
    13    31    32   ar
    14    32    34    1
    15    34    35    2
    16    34    36    1
    17    32    33   ar
    18     3    17    1
    19    17    18    1
    20    17    19    1
    21    19    20   ar
    22    20    21   ar
    23    21    22   ar
    24    22    23    1
    25    22    24   ar
    26    24    25   ar
    27    25    26    1
    28     5     6   ar
    29     6     7   ar
    30     7     8   ar
    31     8     9   ar
    32     9    10   ar
    33    10    11   ar
    34    11    12   ar
    35    12    13   ar
    36    13     4   ar
    37    33    28   ar
    38    25    19   ar
    39    13     8   ar
    40    36    37    1
@<TRIPOS>MOLECULE
*****
 37 40 0 0 0
SMALL
GASTEIGER

@<TRIPOS>ATOM
      1 C         -10.6137   -9.6915   31.9242 C.2     1  UNL1        0.2670
      2 O         -11.2001   -8.5828   32.0354 O.2     1  UNL1       -0.2682
      3 N          -9.2275   -9.7355   31.5232 N.am    1  UNL1       -0.2685
      4 C         -11.0560  -11.7960   33.2592 C.ar    1  UNL1        0.0295
      5 C         -11.3735  -10.9229   32.1878 C.ar    1  UNL1        0.1330
      6 N         -12.3966  -11.2231   31.3459 N.ar    1  UNL1       -0.2395
      7 C         -13.1015  -12.3760   31.4386 C.ar    1  UNL1        0.0989
      8 C         -12.7648  -13.3280   32.4034 C.ar    1  UNL1        0.0190
      9 C         -13.4459  -14.5538   32.4540 C.ar    1  UNL1        0.0015
     10 C         -13.0975  -15.5109   33.4069 C.ar    1  UNL1        0.0000
     11 C         -12.0711  -15.2525   34.3146 C.ar    1  UNL1       -0.0000
     12 C         -11.3895  -14.0334   34.2807 C.ar    1  UNL1       -0.0001
     13 C         -11.7267  -13.0467   33.3272 C.ar    1  UNL1        0.0015
     14 C         -10.0642  -11.3809   34.3288 C.3     1  UNL1        0.1703
     15 C          -8.4265  -12.5358   35.4641 C.3     1  UNL1        0.1746
     16 O          -8.8826  -12.1377   34.1916 O.3     1  UNL1       -0.3463
     17 C          -8.8019  -10.4799   30.3161 C.3     1  UNL1        0.1007
     18 C          -9.1863  -11.9640   30.4301 C.3     1  UNL1        0.0265
     19 C          -7.3352  -10.2313   29.9853 C.ar    1  UNL1        0.0234
     20 C          -6.9315   -9.4547   28.8775 C.ar    1  UNL1        0.0019
     21 C          -5.5767   -9.2993   28.5723 C.ar    1  UNL1        0.0295
     22 C          -4.6045   -9.9028   29.3699 C.ar    1  UNL1        0.1424
     23 F          -3.2916   -9.7601   29.0637 F       1  UNL1       -0.2041
     24 C          -4.9849  -10.6511   30.4845 C.ar    1  UNL1        0.0590
     25 C          -6.3388  -10.8127   30.7963 C.ar    1  UNL1        0.1399
     26 F          -6.6757  -11.5516   31.8837 F       1  UNL1       -0.2044
     27 C          -8.2650   -8.8580   32.2076 C.3     1  UNL1        0.1207
     28 C          -8.1688   -7.5167   31.5237 C.ar    1  UNL1       -0.0021
     29 C          -6.9204   -6.9000   31.3478 C.ar    1  UNL1       -0.0026
     30 C          -6.8255   -5.6827   30.6726 C.ar    1  UNL1       -0.0001
     31 C          -7.9738   -5.0652   30.1730 C.ar    1  UNL1        0.0064
     32 C          -9.2373   -5.6545   30.3548 C.ar    1  UNL1        0.0752
     33 C          -9.3229   -6.8880   31.0270 C.ar    1  UNL1        0.0038
     34 C         -10.4486   -4.9863   29.8197 C.2     1  UNL1        0.3380
     35 O         -10.3705   -3.8062   29.3851 O.2     1  UNL1       -0.2451
     36 O         -11.6892   -5.6227   29.7953 O.3     1  UNL1       -0.4771
     37 H         -11.8478   -6.5258   30.2227 H       1  UNL1        0.2954
@<TRIPOS>BOND
     1    15    16    1
     2    16    14    1
     3    14     4    1
     4     4     5   ar
     5     5     1    1
     6     1     2    2
     7     1     3   am
     8     3    27    1
     9    27    28    1
    10    28    29   ar
    11    29    30   ar
    12    30    31   ar
    13    31    32   ar
    14    32    34    1
    15    34    35    2
    16    34    36    1
    17    32    33   ar
    18     3    17    1
    19    17    18    1
    20    17    19    1
    21    19    20   ar
    22    20    21   ar
    23    21    22   ar
    24    22    23    1
    25    22    24   ar
    26    24    25   ar
    27    25    26    1
    28     5     6   ar
    29     6     7   ar
    30     7     8   ar
    31     8     9   ar
    32     9    10   ar
    33    10    11   ar
    34    11    12   ar
    35    12    13   ar
    36    13     4   ar
    37    33    28   ar
    38    25    19   ar
    39    13     8   ar
    40    36    37    1
@<TRIPOS>MOLECULE
*****
 37 40 0 0 0
SMALL
GASTEIGER

@<TRIPOS>ATOM
      1 C         -10.1645   -9.9762   32.7349 C.2     1  UNL1        0.2670
      2 O         -11.1852   -9.8581   33.4627 O.2     1  UNL1       -0.2682
      3 N          -9.7517  -11.2830   32.2806 N.am    1  UNL1       -0.2685
      4 C          -9.7819   -7.9148   31.3168 C.ar    1  UNL1        0.0295
      5 C          -9.4025   -8.7682   32.3840 C.ar    1  UNL1        0.1330
      6 N          -8.2865   -8.4956   33.1093 N.ar    1  UNL1       -0.2395
      7 C          -7.4600   -7.4640   32.8138 C.ar    1  UNL1        0.0989
      8 C          -7.7188   -6.6533   31.7064 C.ar    1  UNL1        0.0190
      9 C          -6.8249   -5.6300   31.3558 C.ar    1  UNL1        0.0015
     10 C          -7.0754   -4.8319   30.2397 C.ar    1  UNL1        0.0000
     11 C          -8.2167   -5.0470   29.4682 C.ar    1  UNL1       -0.0000
     12 C          -9.1194   -6.0571   29.8099 C.ar    1  UNL1       -0.0001
     13 C          -8.8894   -6.8763   30.9381 C.ar    1  UNL1        0.0015
     14 C         -11.1265   -8.0784   30.6347 C.3     1  UNL1        0.1703
     15 C         -12.9332   -7.0992   31.6748 C.3     1  UNL1        0.1746
     16 O         -11.8704   -6.8888   30.7736 O.3     1  UNL1       -0.3463
     17 C          -8.4053  -11.8135   32.5938 C.3     1  UNL1        0.1007
     18 C          -8.0939  -11.6545   34.0908 C.3     1  UNL1        0.0265
     19 C          -7.3414  -11.2428   31.6637 C.ar    1  UNL1        0.0234
     20 C          -6.1442  -10.6707   32.1461 C.ar    1  UNL1        0.0019
     21 C          -5.2200  -10.1036   31.2646 C.ar    1  UNL1        0.0295
     22 C          -5.4665  -10.1080   29.8917 C.ar    1  UNL1        0.1424
     23 F          -4.5734   -9.5461   29.0404 F       1  UNL1       -0.2041
     24 C          -6.6318  -10.6937   29.3956 C.ar    1  UNL1        0.0590
     25 C          -7.5627  -11.2623   30.2711 C.ar    1  UNL1        0.1399
     26 F          -8.6889  -11.8185   29.7571 F       1  UNL1       -0.2044
     27 C         -10.7575  -12.1735   31.6804 C.3     1  UNL1        0.1207
     28 C         -11.2279  -13.2099   32.6707 C.ar    1  UNL1       -0.0021
     29 C         -10.8495  -13.1230   34.0194 C.ar    1  UNL1       -0.0026
     30 C         -11.3236  -14.0532   34.9449 C.ar    1  UNL1       -0.0001
     31 C         -12.1727  -15.0827   34.5341 C.ar    1  UNL1        0.0064
     32 C         -12.5491  -15.2014   33.1847 C.ar    1  UNL1        0.0752
     33 C         -12.0757  -14.2521   32.2597 C.ar    1  UNL1        0.0038
     34 C         -13.4507  -16.3009   32.7626 C.2     1  UNL1        0.3380
     35 O         -14.6652  -16.2760   33.0971 O.2     1  UNL1       -0.2451
     36 O         -12.9902  -17.3821   32.0118 O.3     1  UNL1       -0.4771
     37 H         -12.0111  -17.5214   31.7991 H       1  UNL1        0.2954
@<TRIPOS>BOND
     1    15    16    1
     2    16    14    1
     3    14     4    1
     4     4     5   ar
     5     5     1    1
     6     1     2    2
     7     1     3   am
     8     3    27    1
     9    27    28    1
    10    28    29   ar
    11    29    30   ar
    12    30    31   ar
    13    31    32   ar
    14    32    34    1
    15    34    35    2
    16    34    36    1
    17    32    33   ar
    18     3    17    1
    19    17    18    1
    20    17    19    1
    21    19    20   ar
    22    20    21   ar
    23    21    22   ar
    24    22    23    1
    25    22    24   ar
    26    24    25   ar
    27    25    26    1
    28     5     6   ar
    29     6     7   ar
    30     7     8   ar
    31     8     9   ar
    32     9    10   ar
    33    10    11   ar
    34    11    12   ar
    35    12    13   ar
    36    13     4   ar
    37    33    28   ar
    38    25    19   ar
    39    13     8   ar
    40    36    37    1
@<TRIPOS>MOLECULE
*****
 37 40 0 0 0
SMALL
GASTEIGER

@<TRIPOS>ATOM
      1 C          -8.3402  -10.0056   32.4549 C.2     1  UNL1        0.2670
      2 O          -9.0505   -9.0568   32.0299 O.2     1  UNL1       -0.2682
      3 N          -6.9017   -9.9261   32.3604 N.am    1  UNL1       -0.2685
      4 C          -9.9414  -11.9584   32.2839 C.ar    1  UNL1        0.0295
      5 C          -9.0056  -11.1888   33.0209 C.ar    1  UNL1        0.1330
      6 N          -8.7129  -11.5210   34.3052 N.ar    1  UNL1       -0.2395
      7 C          -9.3357  -12.5327   34.9557 C.ar    1  UNL1        0.0989
      8 C         -10.3464  -13.2576   34.3205 C.ar    1  UNL1        0.0190
      9 C         -11.0429  -14.2573   35.0165 C.ar    1  UNL1        0.0015
     10 C         -12.0638  -14.9691   34.3867 C.ar    1  UNL1        0.0000
     11 C         -12.3954  -14.6906   33.0613 C.ar    1  UNL1       -0.0000
     12 C         -11.7053  -13.7032   32.3537 C.ar    1  UNL1       -0.0001
     13 C         -10.6649  -12.9714   32.9689 C.ar    1  UNL1        0.0015
     14 C         -10.1248  -11.7368   30.7949 C.3     1  UNL1        0.1703
     15 C         -10.8990  -10.0382   29.4459 C.3     1  UNL1        0.1746
     16 O         -11.1770  -10.8226   30.5831 O.3     1  UNL1       -0.3463
     17 C          -6.1242  -10.9484   31.6237 C.3     1  UNL1        0.1007
     18 C          -5.0316  -11.5509   32.5218 C.3     1  UNL1        0.0265
     19 C          -5.6213  -10.4214   30.2850 C.ar    1  UNL1        0.0234
     20 C          -4.2462  -10.2925   29.9921 C.ar    1  UNL1        0.0019
     21 C          -3.8250   -9.7488   28.7757 C.ar    1  UNL1        0.0295
     22 C          -4.7632   -9.3371   27.8292 C.ar    1  UNL1        0.1424
     23 F          -4.3511   -8.7988   26.6552 F       1  UNL1       -0.2041
     24 C          -6.1260   -9.4827   28.0911 C.ar    1  UNL1        0.0590
     25 C          -6.5562  -10.0247   29.3066 C.ar    1  UNL1        0.1399
     26 F          -7.8887  -10.1472   29.5329 F       1  UNL1       -0.2044
     27 C          -6.2288   -8.7031   32.8255 C.3     1  UNL1        0.1207
     28 C          -6.3227   -7.6044   31.7959 C.ar    1  UNL1       -0.0021
     29 C          -5.1622   -6.9591   31.3418 C.ar    1  UNL1       -0.0026
     30 C          -5.2435   -5.9767   30.3544 C.ar    1  UNL1       -0.0001
     31 C          -6.4822   -5.6230   29.8158 C.ar    1  UNL1        0.0064
     32 C          -7.6603   -6.2418   30.2696 C.ar    1  UNL1        0.0752
     33 C          -7.5682   -7.2398   31.2576 C.ar    1  UNL1        0.0038
     34 C          -8.9693   -5.8549   29.6891 C.2     1  UNL1        0.3380
     35 O          -9.6355   -6.6992   29.0327 O.2     1  UNL1       -0.2451
     36 O          -9.4865   -4.5680   29.8343 O.3     1  UNL1       -0.4771
     37 H          -8.9610   -3.8129   30.2551 H       1  UNL1        0.2954
@<TRIPOS>BOND
     1    15    16    1
     2    16    14    1
     3    14     4    1
     4     4     5   ar
     5     5     1    1
     6     1     2    2
     7     1     3   am
     8     3    27    1
     9    27    28    1
    10    28    29   ar
    11    29    30   ar
    12    30    31   ar
    13    31    32   ar
    14    32    34    1
    15    34    35    2
    16    34    36    1
    17    32    33   ar
    18     3    17    1
    19    17    18    1
    20    17    19    1
    21    19    20   ar
    22    20    21   ar
    23    21    22   ar
    24    22    23    1
    25    22    24   ar
    26    24    25   ar
    27    25    26    1
    28     5     6   ar
    29     6     7   ar
    30     7     8   ar
    31     8     9   ar
    32     9    10   ar
    33    10    11   ar
    34    11    12   ar
    35    12    13   ar
    36    13     4   ar
    37    33    28   ar
    38    25    19   ar
    39    13     8   ar
    40    36    37    1
@<TRIPOS>MOLECULE
*****
 37 40 0 0 0
SMALL
GASTEIGER

@<TRIPOS>ATOM
      1 C          -9.7683  -10.2752   33.0207 C.2     1  UNL1        0.2670
      2 O         -10.3436   -9.2445   33.4589 O.2     1  UNL1       -0.2682
      3 N          -8.5333  -10.1517   32.2833 N.am    1  UNL1       -0.2685
      4 C         -11.5466  -12.0156   32.5563 C.ar    1  UNL1        0.0295
      5 C         -10.3905  -11.5868   33.2569 C.ar    1  UNL1        0.1330
      6 N          -9.8316  -12.3872   34.2016 N.ar    1  UNL1       -0.2395
      7 C         -10.3756  -13.5730   34.5660 C.ar    1  UNL1        0.0989
      8 C         -11.5752  -13.9998   33.9922 C.ar    1  UNL1        0.0190
      9 C         -12.1783  -15.1921   34.4206 C.ar    1  UNL1        0.0015
     10 C         -13.3851  -15.6090   33.8591 C.ar    1  UNL1        0.0000
     11 C         -13.9967  -14.8425   32.8679 C.ar    1  UNL1       -0.0000
     12 C         -13.4038  -13.6570   32.4261 C.ar    1  UNL1       -0.0001
     13 C         -12.1797  -13.2159   32.9770 C.ar    1  UNL1        0.0015
     14 C         -12.0600  -11.2381   31.3597 C.3     1  UNL1        0.1703
     15 C         -12.3536   -8.9779   31.0281 C.3     1  UNL1        0.1746
     16 O         -12.7415  -10.0873   31.8056 O.3     1  UNL1       -0.3463
     17 C          -8.4106  -10.6686   30.9012 C.3     1  UNL1        0.1007
     18 C          -8.8501  -12.1401   30.8311 C.3     1  UNL1        0.0265
     19 C          -7.0315  -10.3931   30.3140 C.ar    1  UNL1        0.0234
     20 C          -5.8743  -11.0732   30.7516 C.ar    1  UNL1        0.0019
     21 C          -4.6184  -10.7500   30.2309 C.ar    1  UNL1        0.0295
     22 C          -4.4965   -9.7559   29.2600 C.ar    1  UNL1        0.1424
     23 F          -3.2751   -9.4365   28.7659 F       1  UNL1       -0.2041
     24 C          -5.6333   -9.0929   28.7962 C.ar    1  UNL1        0.0590
     25 C          -6.8939   -9.4093   29.3131 C.ar    1  UNL1        0.1399
     26 F          -7.9789   -8.7417   28.8451 F       1  UNL1       -0.2044
     27 C          -7.4568   -9.3179   32.8410 C.3     1  UNL1        0.1207
     28 C          -7.3963   -7.9757   32.1548 C.ar    1  UNL1       -0.0021
     29 C          -6.1646   -7.3274   31.9757 C.ar    1  UNL1       -0.0026
     30 C          -6.1021   -6.1092   31.2984 C.ar    1  UNL1       -0.0001
     31 C          -7.2667   -5.5222   30.7999 C.ar    1  UNL1        0.0064
     32 C          -8.5143   -6.1434   30.9848 C.ar    1  UNL1        0.0752
     33 C          -8.5671   -7.3777   31.6592 C.ar    1  UNL1        0.0038
     34 C          -9.7433   -5.5074   30.4509 C.2     1  UNL1        0.3380
     35 O          -9.7281   -4.9833   29.3052 O.2     1  UNL1       -0.2451
     36 O         -10.9250   -5.4561   31.1895 O.3     1  UNL1       -0.4771
     37 H         -10.9803   -5.7603   32.1528 H       1  UNL1        0.2954
@<TRIPOS>BOND
     1    15    16    1
     2    16    14    1
     3    14     4    1
     4     4     5   ar
     5     5     1    1
     6     1     2    2
     7     1     3   am
     8     3    27    1
     9    27    28    1
    10    28    29   ar
    11    29    30   ar
    12    30    31   ar
    13    31    32   ar
    14    32    34    1
    15    34    35    2
    16    34    36    1
    17    32    33   ar
    18     3    17    1
    19    17    18    1
    20    17    19    1
    21    19    20   ar
    22    20    21   ar
    23    21    22   ar
    24    22    23    1
    25    22    24   ar
    26    24    25   ar
    27    25    26    1
    28     5     6   ar
    29     6     7   ar
    30     7     8   ar
    31     8     9   ar
    32     9    10   ar
    33    10    11   ar
    34    11    12   ar
    35    12    13   ar
    36    13     4   ar
    37    33    28   ar
    38    25    19   ar
    39    13     8   ar
    40    36    37    1
@<TRIPOS>MOLECULE
*****
 37 40 0 0 0
SMALL
GASTEIGER

@<TRIPOS>ATOM
      1 C         -11.3745   -9.0781   31.5299 C.2     1  UNL1        0.2670
      2 O         -12.5596   -8.7579   31.8098 O.2     1  UNL1       -0.2682
      3 N         -10.7335   -8.5170   30.3642 N.am    1  UNL1       -0.2685
      4 C         -11.2639  -11.2745   32.7829 C.ar    1  UNL1        0.0295
      5 C         -10.6789  -10.0419   32.3961 C.ar    1  UNL1        0.1330
      6 N          -9.4425   -9.7046   32.8467 N.ar    1  UNL1       -0.2395
      7 C          -8.7521  -10.4728   33.7230 C.ar    1  UNL1        0.0989
      8 C          -9.3209  -11.6441   34.2279 C.ar    1  UNL1        0.0190
      9 C          -8.6381  -12.4028   35.1908 C.ar    1  UNL1        0.0015
     10 C          -9.2143  -13.5634   35.7071 C.ar    1  UNL1        0.0000
     11 C         -10.4716  -13.9752   35.2670 C.ar    1  UNL1       -0.0000
     12 C         -11.1597  -13.2337   34.3032 C.ar    1  UNL1       -0.0001
     13 C         -10.5950  -12.0567   33.7625 C.ar    1  UNL1        0.0015
     14 C         -12.5419  -11.7643   32.1296 C.3     1  UNL1        0.1703
     15 C         -13.3461  -13.9211   32.0528 C.3     1  UNL1        0.1746
     16 O         -12.3327  -13.0535   31.5987 O.3     1  UNL1       -0.3463
     17 C         -10.2018   -9.3852   29.2891 C.3     1  UNL1        0.1007
     18 C         -11.1704  -10.5428   28.9975 C.3     1  UNL1        0.0265
     19 C          -8.7673   -9.8175   29.5679 C.ar    1  UNL1        0.0234
     20 C          -7.6689   -8.9471   29.3966 C.ar    1  UNL1        0.0019
     21 C          -6.3630   -9.3986   29.6048 C.ar    1  UNL1        0.0295
     22 C          -6.1310  -10.7168   29.9976 C.ar    1  UNL1        0.1424
     23 F          -4.8620  -11.1548   30.1869 F       1  UNL1       -0.2041
     24 C          -7.2066  -11.5828   30.1982 C.ar    1  UNL1        0.0590
     25 C          -8.5167  -11.1393   29.9906 C.ar    1  UNL1        0.1399
     26 F          -9.5403  -12.0083   30.1884 F       1  UNL1       -0.2044
     27 C         -10.7996   -7.0625   30.1520 C.3     1  UNL1        0.1207
     28 C          -9.4811   -6.4043   30.4754 C.ar    1  UNL1       -0.0021
     29 C          -9.0905   -5.2353   29.8044 C.ar    1  UNL1       -0.0026
     30 C          -7.8941   -4.5991   30.1370 C.ar    1  UNL1       -0.0001
     31 C          -7.0725   -5.1257   31.1356 C.ar    1  UNL1        0.0064
     32 C          -7.4337   -6.3068   31.8074 C.ar    1  UNL1        0.0752
     33 C          -8.6477   -6.9359   31.4737 C.ar    1  UNL1        0.0038
     34 C          -6.5503   -6.8553   32.8651 C.2     1  UNL1        0.3380
     35 O          -5.3027   -6.7024   32.7784 O.2     1  UNL1       -0.2451
     36 O          -7.0595   -7.5564   33.9578 O.3     1  UNL1       -0.4771
     37 H          -8.0361   -7.8080   34.0379 H       1  UNL1        0.2954
@<TRIPOS>BOND
     1    15    16    1
     2    16    14    1
     3    14     4    1
     4     4     5   ar
     5     5     1    1
     6     1     2    2
     7     1     3   am
     8     3    27    1
     9    27    28    1
    10    28    29   ar
    11    29    30   ar
    12    30    31   ar
    13    31    32   ar
    14    32    34    1
    15    34    35    2
    16    34    36    1
    17    32    33   ar
    18     3    17    1
    19    17    18    1
    20    17    19    1
    21    19    20   ar
    22    20    21   ar
    23    21    22   ar
    24    22    23    1
    25    22    24   ar
    26    24    25   ar
    27    25    26    1
    28     5     6   ar
    29     6     7   ar
    30     7     8   ar
    31     8     9   ar
    32     9    10   ar
    33    10    11   ar
    34    11    12   ar
    35    12    13   ar
    36    13     4   ar
    37    33    28   ar
    38    25    19   ar
    39    13     8   ar
    40    36    37    1
@<TRIPOS>MOLECULE
*****
 37 40 0 0 0
SMALL
GASTEIGER

@<TRIPOS>ATOM
      1 C         -10.8957  -10.2571   32.8651 C.2     1  UNL1        0.2670
      2 O         -10.8010   -9.7259   34.0028 O.2     1  UNL1       -0.2682
      3 N         -10.2429   -9.6488   31.7301 N.am    1  UNL1       -0.2685
      4 C         -11.3290  -12.7055   33.3391 C.ar    1  UNL1        0.0295
      5 C         -11.6958  -11.4828   32.7213 C.ar    1  UNL1        0.1330
      6 N         -12.8087  -11.4200   31.9448 N.ar    1  UNL1       -0.2395
      7 C         -13.5659  -12.5085   31.6679 C.ar    1  UNL1        0.0989
      8 C         -13.1945  -13.7634   32.1557 C.ar    1  UNL1        0.0190
      9 C         -13.9359  -14.9034   31.8099 C.ar    1  UNL1        0.0015
     10 C         -13.5543  -16.1585   32.2835 C.ar    1  UNL1        0.0000
     11 C         -12.4343  -16.2852   33.1043 C.ar    1  UNL1       -0.0000
     12 C         -11.6911  -15.1578   33.4629 C.ar    1  UNL1       -0.0001
     13 C         -12.0600  -13.8752   32.9987 C.ar    1  UNL1        0.0015
     14 C         -10.2193  -12.7491   34.3719 C.3     1  UNL1        0.1703
     15 C          -8.1607  -11.7585   34.6642 C.3     1  UNL1        0.1746
     16 O          -8.9904  -12.4419   33.7529 O.3     1  UNL1       -0.3463
     17 C         -11.0126   -9.2308   30.5363 C.3     1  UNL1        0.1007
     18 C         -10.6857  -10.1342   29.3361 C.3     1  UNL1        0.0265
     19 C         -10.8659   -7.7389   30.2618 C.ar    1  UNL1        0.0234
     20 C          -9.8865   -7.2247   29.3845 C.ar    1  UNL1        0.0019
     21 C          -9.7442   -5.8462   29.2049 C.ar    1  UNL1        0.0295
     22 C         -10.5805   -4.9605   29.8845 C.ar    1  UNL1        0.1424
     23 F         -10.4317   -3.6234   29.7172 F       1  UNL1       -0.2041
     24 C         -11.5719   -5.4525   30.7343 C.ar    1  UNL1        0.0590
     25 C         -11.7201   -6.8307   30.9207 C.ar    1  UNL1        0.1399
     26 F         -12.6901   -7.2767   31.7587 F       1  UNL1       -0.2044
     27 C          -8.8310   -9.2538   31.8542 C.3     1  UNL1        0.1207
     28 C          -7.9558  -10.0624   30.9288 C.ar    1  UNL1       -0.0021
     29 C          -8.1594  -11.4440   30.7898 C.ar    1  UNL1       -0.0026
     30 C          -7.3823  -12.1838   29.8979 C.ar    1  UNL1       -0.0001
     31 C          -6.3906  -11.5556   29.1420 C.ar    1  UNL1        0.0064
     32 C          -6.1553  -10.1763   29.2793 C.ar    1  UNL1        0.0752
     33 C          -6.9513   -9.4353   30.1727 C.ar    1  UNL1        0.0038
     34 C          -5.0974   -9.5227   28.4706 C.2     1  UNL1        0.3380
     35 O          -3.9929   -9.2336   29.0035 O.2     1  UNL1       -0.2451
     36 O          -5.2922   -9.1999   27.1281 O.3     1  UNL1       -0.4771
     37 H          -6.1857   -9.3053   26.6655 H       1  UNL1        0.2954
@<TRIPOS>BOND
     1    15    16    1
     2    16    14    1
     3    14     4    1
     4     4     5   ar
     5     5     1    1
     6     1     2    2
     7     1     3   am
     8     3    27    1
     9    27    28    1
    10    28    29   ar
    11    29    30   ar
    12    30    31   ar
    13    31    32   ar
    14    32    34    1
    15    34    35    2
    16    34    36    1
    17    32    33   ar
    18     3    17    1
    19    17    18    1
    20    17    19    1
    21    19    20   ar
    22    20    21   ar
    23    21    22   ar
    24    22    23    1
    25    22    24   ar
    26    24    25   ar
    27    25    26    1
    28     5     6   ar
    29     6     7   ar
    30     7     8   ar
    31     8     9   ar
    32     9    10   ar
    33    10    11   ar
    34    11    12   ar
    35    12    13   ar
    36    13     4   ar
    37    33    28   ar
    38    25    19   ar
    39    13     8   ar
    40    36    37    1
@<TRIPOS>MOLECULE
*****
 37 40 0 0 0
SMALL
GASTEIGER

@<TRIPOS>ATOM
      1 C         -10.3779  -10.6952   30.3351 C.2     1  UNL1        0.2670
      2 O         -10.4464  -11.4034   29.2962 O.2     1  UNL1       -0.2682
      3 N         -10.0106  -11.2983   31.5944 N.am    1  UNL1       -0.2685
      4 C          -9.7632   -8.3056   29.7708 C.ar    1  UNL1        0.0295
      5 C         -10.6993   -9.2634   30.2373 C.ar    1  UNL1        0.1330
      6 N         -11.9361   -8.8676   30.6362 N.ar    1  UNL1       -0.2395
      7 C         -12.3060   -7.5652   30.6772 C.ar    1  UNL1        0.0989
      8 C         -11.3921   -6.5658   30.3362 C.ar    1  UNL1        0.0190
      9 C         -11.7498   -5.2135   30.4479 C.ar    1  UNL1        0.0015
     10 C         -10.8307   -4.2158   30.1234 C.ar    1  UNL1        0.0000
     11 C          -9.5523   -4.5586   29.6851 C.ar    1  UNL1       -0.0000
     12 C          -9.1849   -5.9009   29.5618 C.ar    1  UNL1       -0.0001
     13 C         -10.0996   -6.9295   29.8809 C.ar    1  UNL1        0.0015
     14 C          -8.4621   -8.7439   29.1267 C.3     1  UNL1        0.1703
     15 C          -6.1947   -8.3501   29.0338 C.3     1  UNL1        0.1746
     16 O          -7.3878   -8.0512   29.7215 O.3     1  UNL1       -0.3463
     17 C         -10.9090  -11.2276   32.7692 C.3     1  UNL1        0.1007
     18 C         -10.1750  -10.6253   33.9783 C.3     1  UNL1        0.0265
     19 C         -11.5876  -12.5641   33.0444 C.ar    1  UNL1        0.0234
     20 C         -11.1866  -13.4120   34.0996 C.ar    1  UNL1        0.0019
     21 C         -11.7939  -14.6572   34.2829 C.ar    1  UNL1        0.0295
     22 C         -12.8157  -15.0716   33.4286 C.ar    1  UNL1        0.1424
     23 F         -13.3943  -16.2853   33.6019 F       1  UNL1       -0.2041
     24 C         -13.2432  -14.2343   32.3974 C.ar    1  UNL1        0.0590
     25 C         -12.6397  -12.9871   32.2061 C.ar    1  UNL1        0.1399
     26 F         -13.0746  -12.1992   31.1903 F       1  UNL1       -0.2044
     27 C          -8.8251  -12.1684   31.6428 C.3     1  UNL1        0.1207
     28 C          -7.5553  -11.3560   31.7058 C.ar    1  UNL1       -0.0021
     29 C          -6.4214  -11.7581   30.9832 C.ar    1  UNL1       -0.0026
     30 C          -5.2625  -10.9815   31.0024 C.ar    1  UNL1       -0.0001
     31 C          -5.2200   -9.8014   31.7473 C.ar    1  UNL1        0.0064
     32 C          -6.3371   -9.3891   32.4950 C.ar    1  UNL1        0.0752
     33 C          -7.5059  -10.1723   32.4610 C.ar    1  UNL1        0.0038
     34 C          -6.2770   -8.1338   33.2828 C.2     1  UNL1        0.3380
     35 O          -7.2704   -7.3590   33.3001 O.2     1  UNL1       -0.2451
     36 O          -5.1384   -7.7705   34.0014 O.3     1  UNL1       -0.4771
     37 H          -4.2709   -8.2882   33.9479 H       1  UNL1        0.2954
@<TRIPOS>BOND
     1    15    16    1
     2    16    14    1
     3    14     4    1
     4     4     5   ar
     5     5     1    1
     6     1     2    2
     7     1     3   am
     8     3    27    1
     9    27    28    1
    10    28    29   ar
    11    29    30   ar
    12    30    31   ar
    13    31    32   ar
    14    32    34    1
    15    34    35    2
    16    34    36    1
    17    32    33   ar
    18     3    17    1
    19    17    18    1
    20    17    19    1
    21    19    20   ar
    22    20    21   ar
    23    21    22   ar
    24    22    23    1
    25    22    24   ar
    26    24    25   ar
    27    25    26    1
    28     5     6   ar
    29     6     7   ar
    30     7     8   ar
    31     8     9   ar
    32     9    10   ar
    33    10    11   ar
    34    11    12   ar
    35    12    13   ar
    36    13     4   ar
    37    33    28   ar
    38    25    19   ar
    39    13     8   ar
    40    36    37    1
@<TRIPOS>MOLECULE
*****
 37 40 0 0 0
SMALL
GASTEIGER

@<TRIPOS>ATOM
      1 C          -9.8726   -8.8841   29.5213 C.2     1  UNL1        0.2670
      2 O         -10.5757   -9.2232   28.5333 O.2     1  UNL1       -0.2682
      3 N         -10.4754   -8.1721   30.6232 N.am    1  UNL1       -0.2685
      4 C          -7.9178  -10.3669   30.1429 C.ar    1  UNL1        0.0295
      5 C          -8.4380   -9.2079   29.5127 C.ar    1  UNL1        0.1330
      6 N          -7.6003   -8.3371   28.8919 N.ar    1  UNL1       -0.2395
      7 C          -6.2542   -8.4874   28.9039 C.ar    1  UNL1        0.0989
      8 C          -5.6734   -9.5482   29.6023 C.ar    1  UNL1        0.0190
      9 C          -4.2770   -9.6644   29.6772 C.ar    1  UNL1        0.0015
     10 C          -3.6977  -10.7145   30.3893 C.ar    1  UNL1        0.0000
     11 C          -4.5047  -11.6545   31.0290 C.ar    1  UNL1       -0.0000
     12 C          -5.8965  -11.5557   30.9565 C.ar    1  UNL1       -0.0001
     13 C          -6.5067  -10.5031   30.2381 C.ar    1  UNL1        0.0015
     14 C          -8.8448  -11.4526   30.6547 C.3     1  UNL1        0.1703
     15 C         -10.2927  -12.7721   29.4434 C.3     1  UNL1        0.1746
     16 O          -8.9370  -12.4812   29.6948 O.3     1  UNL1       -0.3463
     17 C          -9.9803   -6.8395   31.0374 C.3     1  UNL1        0.1007
     18 C         -10.2869   -5.7874   29.9592 C.3     1  UNL1        0.0265
     19 C          -8.5213   -6.8884   31.4748 C.ar    1  UNL1        0.0234
     20 C          -8.0438   -7.8330   32.4092 C.ar    1  UNL1        0.0019
     21 C          -6.7117   -7.8075   32.8305 C.ar    1  UNL1        0.0295
     22 C          -5.8331   -6.8517   32.3205 C.ar    1  UNL1        0.1424
     23 F          -4.5444   -6.8223   32.7406 F       1  UNL1       -0.2041
     24 C          -6.2814   -5.9280   31.3757 C.ar    1  UNL1        0.0590
     25 C          -7.6135   -5.9457   30.9497 C.ar    1  UNL1        0.1399
     26 F          -8.0194   -5.0298   30.0341 F       1  UNL1       -0.2044
     27 C         -11.7260   -8.6896   31.2003 C.3     1  UNL1        0.1207
     28 C         -11.4805   -9.9517   31.9895 C.ar    1  UNL1       -0.0021
     29 C         -12.3972  -11.0128   31.9305 C.ar    1  UNL1       -0.0026
     30 C         -12.1467  -12.1987   32.6215 C.ar    1  UNL1       -0.0001
     31 C         -10.9848  -12.3357   33.3834 C.ar    1  UNL1        0.0064
     32 C         -10.0619  -11.2788   33.4735 C.ar    1  UNL1        0.0752
     33 C         -10.3166  -10.0902   32.7641 C.ar    1  UNL1        0.0038
     34 C          -8.8325  -11.4383   34.2878 C.2     1  UNL1        0.3380
     35 O          -7.7565  -10.9060   33.9052 O.2     1  UNL1       -0.2451
     36 O          -8.8240  -12.1792   35.4692 O.3     1  UNL1       -0.4771
     37 H          -9.6206  -12.7196   35.7802 H       1  UNL1        0.2954
@<TRIPOS>BOND
     1    15    16    1
     2    16    14    1
     3    14     4    1
     4     4     5   ar
     5     5     1    1
     6     1     2    2
     7     1     3   am
     8     3    27    1
     9    27    28    1
    10    28    29   ar
    11    29    30   ar
    12    30    31   ar
    13    31    32   ar
    14    32    34    1
    15    34    35    2
    16    34    36    1
    17    32    33   ar
    18     3    17    1
    19    17    18    1
    20    17    19    1
    21    19    20   ar
    22    20    21   ar
    23    21    22   ar
    24    22    23    1
    25    22    24   ar
    26    24    25   ar
    27    25    26    1
    28     5     6   ar
    29     6     7   ar
    30     7     8   ar
    31     8     9   ar
    32     9    10   ar
    33    10    11   ar
    34    11    12   ar
    35    12    13   ar
    36    13     4   ar
    37    33    28   ar
    38    25    19   ar
    39    13     8   ar
    40    36    37    1
