@<TRIPOS>MOLECULE
*****
 53 58 0 0 0
SMALL
GASTEIGER

@<TRIPOS>ATOM
      1 O          57.6129   84.4203   12.9306 O.2     1  UNL1       -0.2701
      2 C          58.8523   84.1896   12.8824 C.2     1  UNL1        0.2483
      3 N          59.3219   82.8949   12.4722 N.am    1  UNL1       -0.2945
      4 H          60.3285   82.7908   12.2100 H       1  UNL1        0.1501
      5 C          59.8043   85.2723   13.2182 C.ar    1  UNL1        0.0808
      6 C          59.3970   86.3163   14.0641 C.ar    1  UNL1        0.0080
      7 C          60.2768   87.3506   14.3921 C.ar    1  UNL1        0.0148
      8 C          61.5892   87.3601   13.8887 C.ar    1  UNL1        0.0502
      9 C          62.0034   86.3027   13.0601 C.ar    1  UNL1        0.0443
     10 C          61.1242   85.2670   12.7284 C.ar    1  UNL1        0.1457
     11 F          61.5839   84.2408   11.9685 F       1  UNL1       -0.2040
     12 N          62.5024   88.4267   14.2312 N.pl3   1  UNL1       -0.3040
     13 C          62.7158   89.5458   13.3026 C.3     1  UNL1        0.1123
     14 C          64.1468   90.0825   13.4176 C.3     1  UNL1        0.1136
     15 N          64.5268   90.3379   14.8174 N.pl3   1  UNL1       -0.2897
     16 C          63.6719   89.8423   15.9056 C.3     1  UNL1        0.1136
     17 C          63.1205   88.4541   15.5661 C.3     1  UNL1        0.1123
     18 C          65.6558   91.1866   15.1259 C.ar    1  UNL1        0.1318
     19 C          65.5389   92.2660   16.0192 C.ar    1  UNL1        0.0343
     20 C          66.6527   93.0619   16.2914 C.ar    1  UNL1        0.0083
     21 C          67.8788   92.8021   15.6621 C.ar    1  UNL1        0.0906
     22 C          67.9617   91.7032   14.7940 C.ar    1  UNL1        0.1041
     23 N          66.8645   90.9407   14.5462 N.ar    1  UNL1       -0.2292
     24 C          69.1008   93.6234   15.9859 C.3     1  UNL1        0.4200
     25 F          69.8902   93.7295   14.8561 F       1  UNL1       -0.1658
     26 F          69.8360   93.0271   16.9957 F       1  UNL1       -0.1658
     27 F          68.7394   94.8922   16.4047 F       1  UNL1       -0.1658
     28 C          58.4239   81.7408   12.3532 C.3     1  UNL1        0.1535
     29 C          58.2137   81.3994   10.8971 C.2     1  UNL1        0.2443
     30 O          57.6330   80.3217   10.5909 O.2     1  UNL1       -0.2730
     31 N          58.6472   82.3053    9.8694 N.am    1  UNL1       -0.2823
     32 H          59.0269   83.2362   10.1520 H       1  UNL1        0.1549
     33 C          58.5810   81.9913    8.4675 C.ar    1  UNL1        0.0597
     34 C          57.6408   81.0514    8.0139 C.ar    1  UNL1        0.0356
     35 C          57.6185   80.6812    6.6711 C.ar    1  UNL1        0.1002
     36 N          58.5126   81.2165    5.8035 N.ar    1  UNL1       -0.2420
     37 C          59.4442   82.1199    6.2036 C.ar    1  UNL1        0.1065
     38 C          59.5076   82.5399    7.5455 C.ar    1  UNL1        0.1080
     39 C          60.5154   83.5584    7.9331 C.2     1  UNL1        0.3408
     40 O          60.9373   83.6090    9.1203 O.2     1  UNL1       -0.2450
     41 O          61.0316   84.4472    6.9958 O.3     1  UNL1       -0.4770
     42 H          61.7179   85.1425    7.2632 H       1  UNL1        0.2954
     43 C          59.0072   80.5417   13.1246 C.3     1  UNL1        0.0569
     44 C          60.4898   80.4162   12.9163 C.ar    1  UNL1       -0.0017
     45 C          61.1221   79.6144   11.9709 C.ar    1  UNL1        0.0681
     46 N          62.4617   79.7933   12.0195 N.ar    1  UNL1       -0.3523
     47 C          62.6797   80.7085   12.9796 C.ar    1  UNL1        0.0563
     48 C          63.9062   81.2420   13.3733 C.ar    1  UNL1        0.0170
     49 C          63.9036   82.2223   14.3819 C.ar    1  UNL1        0.0015
     50 C          62.6894   82.6422   14.9684 C.ar    1  UNL1        0.0001
     51 C          61.4665   82.0864   14.5514 C.ar    1  UNL1        0.0012
     52 C          61.4997   81.1180   13.5472 C.ar    1  UNL1        0.0131
     53 H          63.1766   79.3271   11.4181 H       1  UNL1        0.1660
@<TRIPOS>BOND
     1     1     2    2
     2     2     3   am
     3     3    28    1
     4    28    43    1
     5    43    44    1
     6    44    45   ar
     7    45    46   ar
     8    46    47   ar
     9    47    48   ar
    10    48    49   ar
    11    49    50   ar
    12    50    51   ar
    13    51    52   ar
    14    28    29    1
    15    29    30    2
    16    29    31   am
    17    31    33    1
    18    33    34   ar
    19    34    35   ar
    20    35    36   ar
    21    36    37   ar
    22    37    38   ar
    23    38    39    1
    24    39    40    2
    25    39    41    1
    26     2     5    1
    27     5     6   ar
    28     6     7   ar
    29     7     8   ar
    30     8    12    1
    31    12    13    1
    32    13    14    1
    33    14    15    1
    34    15    18    1
    35    18    19   ar
    36    19    20   ar
    37    20    21   ar
    38    21    24    1
    39    24    25    1
    40    24    26    1
    41    24    27    1
    42    21    22   ar
    43    22    23   ar
    44    15    16    1
    45    16    17    1
    46     8     9   ar
    47     9    10   ar
    48    10    11    1
    49    52    44   ar
    50    38    33   ar
    51    10     5   ar
    52    52    47   ar
    53    17    12    1
    54    23    18   ar
    55     3     4    1
    56    46    53    1
    57    31    32    1
    58    41    42    1
@<TRIPOS>MOLECULE
*****
 53 58 0 0 0
SMALL
GASTEIGER

@<TRIPOS>ATOM
      1 O          58.6668   87.0462   12.0569 O.2     1  UNL1       -0.2701
      2 C          59.3821   86.7115   11.0730 C.2     1  UNL1        0.2483
      3 N          60.0919   85.4622   11.0988 N.am    1  UNL1       -0.2945
      4 H          60.4797   85.0916   10.2015 H       1  UNL1        0.1501
      5 C          59.4501   87.6001    9.8911 C.ar    1  UNL1        0.0808
      6 C          60.0242   88.8756   10.0145 C.ar    1  UNL1        0.0080
      7 C          60.0962   89.7328    8.9139 C.ar    1  UNL1        0.0148
      8 C          59.6036   89.3306    7.6603 C.ar    1  UNL1        0.0502
      9 C          59.0493   88.0451    7.5322 C.ar    1  UNL1        0.0443
     10 C          58.9741   87.1854    8.6328 C.ar    1  UNL1        0.1457
     11 F          58.4792   85.9350    8.4498 F       1  UNL1       -0.2040
     12 N          59.6819   90.2143    6.5195 N.pl3   1  UNL1       -0.3040
     13 C          58.5903   91.1571    6.2364 C.3     1  UNL1        0.1123
     14 C          58.4531   91.3931    4.7282 C.3     1  UNL1        0.1136
     15 N          59.7472   91.7141    4.1026 N.pl3   1  UNL1       -0.2897
     16 C          60.9901   91.5284    4.8650 C.3     1  UNL1        0.1136
     17 C          60.9137   90.2571    5.7160 C.3     1  UNL1        0.1123
     18 C          59.7951   92.3374    2.7990 C.ar    1  UNL1        0.1318
     19 C          60.8541   93.1857    2.4306 C.ar    1  UNL1        0.0343
     20 C          60.8641   93.7681    1.1622 C.ar    1  UNL1        0.0083
     21 C          59.8137   93.5275    0.2648 C.ar    1  UNL1        0.0906
     22 C          58.7861   92.6583    0.6605 C.ar    1  UNL1        0.1041
     23 N          58.7987   92.1006    1.8997 N.ar    1  UNL1       -0.2292
     24 C          59.8384   94.1105   -1.1252 C.3     1  UNL1        0.4200
     25 F          58.7139   94.8925   -1.3108 F       1  UNL1       -0.1658
     26 F          59.8505   93.1047   -2.0761 F       1  UNL1       -0.1658
     27 F          60.9665   94.8918   -1.3070 F       1  UNL1       -0.1658
     28 C          60.2328   84.6701   12.3257 C.3     1  UNL1        0.1535
     29 C          60.7636   85.5383   13.4416 C.2     1  UNL1        0.2443
     30 O          60.1064   85.6395   14.5141 O.2     1  UNL1       -0.2730
     31 N          62.0185   86.2227   13.2944 N.am    1  UNL1       -0.2823
     32 H          62.5918   86.0366   12.4415 H       1  UNL1        0.1549
     33 C          62.5246   87.1519   14.2686 C.ar    1  UNL1        0.0597
     34 C          62.7915   86.7069   15.5739 C.ar    1  UNL1        0.0356
     35 C          63.2080   87.6128   16.5467 C.ar    1  UNL1        0.1002
     36 N          63.3426   88.9265   16.2391 N.ar    1  UNL1       -0.2420
     37 C          63.0843   89.3989   14.9925 C.ar    1  UNL1        0.1065
     38 C          62.6710   88.5290   13.9660 C.ar    1  UNL1        0.1080
     39 C          62.4371   89.0798   12.6077 C.2     1  UNL1        0.3408
     40 O          62.8253   88.4411   11.5921 O.2     1  UNL1       -0.2450
     41 O          61.7639   90.2839   12.4299 O.3     1  UNL1       -0.4770
     42 H          61.6070   90.6585   11.5020 H       1  UNL1        0.2954
     43 C          58.8760   84.0476   12.7058 C.3     1  UNL1        0.0569
     44 C          58.4634   82.9797   11.7330 C.ar    1  UNL1       -0.0017
     45 C          58.0273   83.1815   10.4269 C.ar    1  UNL1        0.0681
     46 N          57.7996   81.9965    9.8164 N.ar    1  UNL1       -0.3523
     47 C          58.0982   81.0486   10.7216 C.ar    1  UNL1        0.0563
     48 C          58.0510   79.6668   10.5425 C.ar    1  UNL1        0.0170
     49 C          58.4430   78.8504   11.6188 C.ar    1  UNL1        0.0015
     50 C          58.8676   79.4267   12.8362 C.ar    1  UNL1        0.0001
     51 C          58.9050   80.8244   12.9887 C.ar    1  UNL1        0.0012
     52 C          58.5131   81.6089   11.9032 C.ar    1  UNL1        0.0131
     53 H          57.4759   81.8516    8.8343 H       1  UNL1        0.1660
@<TRIPOS>BOND
     1     1     2    2
     2     2     3   am
     3     3    28    1
     4    28    43    1
     5    43    44    1
     6    44    45   ar
     7    45    46   ar
     8    46    47   ar
     9    47    48   ar
    10    48    49   ar
    11    49    50   ar
    12    50    51   ar
    13    51    52   ar
    14    28    29    1
    15    29    30    2
    16    29    31   am
    17    31    33    1
    18    33    34   ar
    19    34    35   ar
    20    35    36   ar
    21    36    37   ar
    22    37    38   ar
    23    38    39    1
    24    39    40    2
    25    39    41    1
    26     2     5    1
    27     5     6   ar
    28     6     7   ar
    29     7     8   ar
    30     8    12    1
    31    12    13    1
    32    13    14    1
    33    14    15    1
    34    15    18    1
    35    18    19   ar
    36    19    20   ar
    37    20    21   ar
    38    21    24    1
    39    24    25    1
    40    24    26    1
    41    24    27    1
    42    21    22   ar
    43    22    23   ar
    44    15    16    1
    45    16    17    1
    46     8     9   ar
    47     9    10   ar
    48    10    11    1
    49    52    44   ar
    50    38    33   ar
    51    10     5   ar
    52    52    47   ar
    53    17    12    1
    54    23    18   ar
    55     3     4    1
    56    46    53    1
    57    31    32    1
    58    41    42    1
@<TRIPOS>MOLECULE
*****
 53 58 0 0 0
SMALL
GASTEIGER

@<TRIPOS>ATOM
      1 O          60.5620   84.5219   14.0105 O.2     1  UNL1       -0.2701
      2 C          61.3247   84.5559   13.0061 C.2     1  UNL1        0.2483
      3 N          62.4614   83.6790   12.9431 N.am    1  UNL1       -0.2945
      4 H          62.9382   83.5478   12.0220 H       1  UNL1        0.1501
      5 C          61.0139   85.4788   11.8913 C.ar    1  UNL1        0.0808
      6 C          61.0652   86.8658   12.1042 C.ar    1  UNL1        0.0080
      7 C          60.7725   87.7559   11.0681 C.ar    1  UNL1        0.0148
      8 C          60.4302   87.2793    9.7908 C.ar    1  UNL1        0.0502
      9 C          60.4010   85.8909    9.5723 C.ar    1  UNL1        0.0443
     10 C          60.6916   84.9974   10.6082 C.ar    1  UNL1        0.1457
     11 F          60.7022   83.6675   10.3373 F       1  UNL1       -0.2040
     12 N          60.1321   88.1989    8.7164 N.pl3   1  UNL1       -0.3040
     13 C          59.2833   87.7759    7.5935 C.3     1  UNL1        0.1123
     14 C          59.6986   88.4861    6.3004 C.3     1  UNL1        0.1136
     15 N          59.8234   89.9414    6.4887 N.pl3   1  UNL1       -0.2897
     16 C          59.8055   90.5037    7.8467 C.3     1  UNL1        0.1136
     17 C          60.5753   89.5986    8.8133 C.3     1  UNL1        0.1123
     18 C          59.8248   90.8294    5.3478 C.ar    1  UNL1        0.1318
     19 C          58.6479   91.4613    4.9092 C.ar    1  UNL1        0.0343
     20 C          58.6908   92.3122    3.8037 C.ar    1  UNL1        0.0083
     21 C          59.8962   92.5213    3.1181 C.ar    1  UNL1        0.0906
     22 C          61.0534   91.8906    3.5989 C.ar    1  UNL1        0.1041
     23 N          60.9880   91.0684    4.6789 N.ar    1  UNL1       -0.2292
     24 C          59.9653   93.4765    1.9539 C.3     1  UNL1        0.4200
     25 F          59.8887   94.7739    2.4245 F       1  UNL1       -0.1658
     26 F          58.9188   93.2524    1.0761 F       1  UNL1       -0.1658
     27 F          61.1531   93.3171    1.2613 F       1  UNL1       -0.1658
     28 C          62.9290   82.9226   14.1101 C.3     1  UNL1        0.1535
     29 C          63.0085   83.8303   15.3145 C.2     1  UNL1        0.2443
     30 O          62.9511   83.3306   16.4718 O.2     1  UNL1       -0.2730
     31 N          63.1743   85.2475   15.1454 N.am    1  UNL1       -0.2823
     32 H          63.3264   85.6212   14.1821 H       1  UNL1        0.1549
     33 C          63.1431   86.1776   16.2420 C.ar    1  UNL1        0.0597
     34 C          62.7830   85.7245   17.5219 C.ar    1  UNL1        0.0356
     35 C          62.6737   86.6292   18.5755 C.ar    1  UNL1        0.1002
     36 N          62.9006   87.9493   18.3643 N.ar    1  UNL1       -0.2420
     37 C          63.2402   88.4294   17.1403 C.ar    1  UNL1        0.1065
     38 C          63.3764   87.5613   16.0406 C.ar    1  UNL1        0.1080
     39 C          63.7875   88.1216   14.7291 C.2     1  UNL1        0.3408
     40 O          63.9309   89.3668   14.5917 O.2     1  UNL1       -0.2450
     41 O          64.0502   87.2893   13.6460 O.3     1  UNL1       -0.4770
     42 H          64.3289   87.6742   12.7515 H       1  UNL1        0.2954
     43 C          61.9871   81.7327   14.3745 C.3     1  UNL1        0.0569
     44 C          61.6175   81.0242   13.1022 C.ar    1  UNL1       -0.0017
     45 C          62.4130   80.1215   12.4031 C.ar    1  UNL1        0.0681
     46 N          61.7428   79.6278   11.3374 N.ar    1  UNL1       -0.3523
     47 C          60.5280   80.2026   11.3636 C.ar    1  UNL1        0.0563
     48 C          59.4708   79.9805   10.4821 C.ar    1  UNL1        0.0170
     49 C          58.2649   80.6659   10.7155 C.ar    1  UNL1        0.0015
     50 C          58.1442   81.5484   11.8116 C.ar    1  UNL1        0.0001
     51 C          59.2277   81.7532   12.6848 C.ar    1  UNL1        0.0012
     52 C          60.4103   81.0577   12.4299 C.ar    1  UNL1        0.0131
     53 H          62.0949   78.9276   10.6475 H       1  UNL1        0.1660
@<TRIPOS>BOND
     1     1     2    2
     2     2     3   am
     3     3    28    1
     4    28    43    1
     5    43    44    1
     6    44    45   ar
     7    45    46   ar
     8    46    47   ar
     9    47    48   ar
    10    48    49   ar
    11    49    50   ar
    12    50    51   ar
    13    51    52   ar
    14    28    29    1
    15    29    30    2
    16    29    31   am
    17    31    33    1
    18    33    34   ar
    19    34    35   ar
    20    35    36   ar
    21    36    37   ar
    22    37    38   ar
    23    38    39    1
    24    39    40    2
    25    39    41    1
    26     2     5    1
    27     5     6   ar
    28     6     7   ar
    29     7     8   ar
    30     8    12    1
    31    12    13    1
    32    13    14    1
    33    14    15    1
    34    15    18    1
    35    18    19   ar
    36    19    20   ar
    37    20    21   ar
    38    21    24    1
    39    24    25    1
    40    24    26    1
    41    24    27    1
    42    21    22   ar
    43    22    23   ar
    44    15    16    1
    45    16    17    1
    46     8     9   ar
    47     9    10   ar
    48    10    11    1
    49    52    44   ar
    50    38    33   ar
    51    10     5   ar
    52    52    47   ar
    53    17    12    1
    54    23    18   ar
    55     3     4    1
    56    46    53    1
    57    31    32    1
    58    41    42    1
@<TRIPOS>MOLECULE
*****
 53 58 0 0 0
SMALL
GASTEIGER

@<TRIPOS>ATOM
      1 O          62.0065   82.5160   11.9829 O.2     1  UNL1       -0.2701
      2 C          61.5829   83.6316   12.3924 C.2     1  UNL1        0.2483
      3 N          61.4333   83.8645   13.8025 N.am    1  UNL1       -0.2945
      4 H          61.3142   84.8486   14.1345 H       1  UNL1        0.1501
      5 C          61.2787   84.6961   11.4097 C.ar    1  UNL1        0.0808
      6 C          60.1255   85.4805   11.5717 C.ar    1  UNL1        0.0080
      7 C          59.8161   86.4883   10.6551 C.ar    1  UNL1        0.0148
      8 C          60.6588   86.7418    9.5589 C.ar    1  UNL1        0.0502
      9 C          61.8249   85.9711    9.4100 C.ar    1  UNL1        0.0443
     10 C          62.1362   84.9601   10.3248 C.ar    1  UNL1        0.1457
     11 F          63.2988   84.2772   10.1702 F       1  UNL1       -0.2040
     12 N          60.3429   87.7874    8.6126 N.pl3   1  UNL1       -0.3040
     13 C          59.2533   87.6047    7.6431 C.3     1  UNL1        0.1123
     14 C          59.5557   88.3501    6.3385 C.3     1  UNL1        0.1136
     15 N          59.9597   89.7449    6.5838 N.pl3   1  UNL1       -0.2897
     16 C          60.2732   90.1820    7.9518 C.3     1  UNL1        0.1136
     17 C          61.0305   89.0849    8.7062 C.3     1  UNL1        0.1123
     18 C          59.9175   90.7177    5.5151 C.ar    1  UNL1        0.1318
     19 C          58.7194   91.3592    5.1548 C.ar    1  UNL1        0.0343
     20 C          58.7202   92.2930    4.1174 C.ar    1  UNL1        0.0083
     21 C          59.9043   92.5767    3.4215 C.ar    1  UNL1        0.0906
     22 C          61.0837   91.9327    3.8245 C.ar    1  UNL1        0.1041
     23 N          61.0593   91.0290    4.8391 N.ar    1  UNL1       -0.2292
     24 C          59.9279   93.6195    2.3332 C.3     1  UNL1        0.4200
     25 F          61.0880   93.4801    1.5945 F       1  UNL1       -0.1658
     26 F          59.8887   94.8922    2.8759 F       1  UNL1       -0.1658
     27 F          58.8376   93.4733    1.4930 F       1  UNL1       -0.1658
     28 C          61.5041   82.7769   14.7848 C.3     1  UNL1        0.1535
     29 C          60.9671   81.5012   14.1807 C.2     1  UNL1        0.2443
     30 O          61.7007   80.4750   14.1465 O.2     1  UNL1       -0.2730
     31 N          59.6239   81.4479   13.6731 N.am    1  UNL1       -0.2823
     32 H          59.0046   82.2774   13.8110 H       1  UNL1        0.1549
     33 C          59.0900   80.3036   12.9846 C.ar    1  UNL1        0.0597
     34 C          59.1068   79.0484   13.6151 C.ar    1  UNL1        0.0356
     35 C          58.6642   77.9192   12.9299 C.ar    1  UNL1        0.1002
     36 N          58.2302   78.0275   11.6498 N.ar    1  UNL1       -0.2420
     37 C          58.2080   79.2201   11.0010 C.ar    1  UNL1        0.1065
     38 C          58.6327   80.3969   11.6461 C.ar    1  UNL1        0.1080
     39 C          58.5553   81.6859   10.9142 C.2     1  UNL1        0.3408
     40 O          58.9016   81.7460    9.7033 O.2     1  UNL1       -0.2450
     41 O          58.0742   82.8337   11.5355 O.3     1  UNL1       -0.4770
     42 H          58.0240   83.7126   11.0344 H       1  UNL1        0.2954
     43 C          62.9579   82.5952   15.2608 C.3     1  UNL1        0.0569
     44 C          63.7561   83.8579   15.1008 C.ar    1  UNL1       -0.0017
     45 C          64.9078   84.0108   14.3348 C.ar    1  UNL1        0.0681
     46 N          65.3295   85.2953   14.3667 N.ar    1  UNL1       -0.3523
     47 C          64.4484   85.9566   15.1370 C.ar    1  UNL1        0.0563
     48 C          64.4469   87.3179   15.4382 C.ar    1  UNL1        0.0170
     49 C          63.4030   87.8126   16.2407 C.ar    1  UNL1        0.0015
     50 C          62.3961   86.9456   16.7194 C.ar    1  UNL1        0.0001
     51 C          62.4231   85.5762   16.3997 C.ar    1  UNL1        0.0012
     52 C          63.4691   85.1145   15.5996 C.ar    1  UNL1        0.0131
     53 H          66.1608   85.6925   13.8753 H       1  UNL1        0.1660
@<TRIPOS>BOND
     1     1     2    2
     2     2     3   am
     3     3    28    1
     4    28    43    1
     5    43    44    1
     6    44    45   ar
     7    45    46   ar
     8    46    47   ar
     9    47    48   ar
    10    48    49   ar
    11    49    50   ar
    12    50    51   ar
    13    51    52   ar
    14    28    29    1
    15    29    30    2
    16    29    31   am
    17    31    33    1
    18    33    34   ar
    19    34    35   ar
    20    35    36   ar
    21    36    37   ar
    22    37    38   ar
    23    38    39    1
    24    39    40    2
    25    39    41    1
    26     2     5    1
    27     5     6   ar
    28     6     7   ar
    29     7     8   ar
    30     8    12    1
    31    12    13    1
    32    13    14    1
    33    14    15    1
    34    15    18    1
    35    18    19   ar
    36    19    20   ar
    37    20    21   ar
    38    21    24    1
    39    24    25    1
    40    24    26    1
    41    24    27    1
    42    21    22   ar
    43    22    23   ar
    44    15    16    1
    45    16    17    1
    46     8     9   ar
    47     9    10   ar
    48    10    11    1
    49    52    44   ar
    50    38    33   ar
    51    10     5   ar
    52    52    47   ar
    53    17    12    1
    54    23    18   ar
    55     3     4    1
    56    46    53    1
    57    31    32    1
    58    41    42    1
