@<TRIPOS>MOLECULE
*****
 52 57 0 0 0
SMALL
GASTEIGER

@<TRIPOS>ATOM
      1 C         -27.7648   48.5243   -8.9446 C.2     1  UNL1        0.1910
      2 O         -27.4158   47.3213   -9.5597 O.2     1  UNL1       -0.5018
      3 C         -28.4464   48.5216   -7.7864 C.2     1  UNL1        0.0837
      4 H         -26.9917   47.2945  -10.4784 H       1  UNL1        0.2924
      5 N         -23.6738   51.6531   -9.8603 N.pl3   1  UNL1       -0.3041
      6 C         -24.2121   51.2274  -11.1581 C.3     1  UNL1        0.1123
      7 C         -25.7170   50.9823  -11.0300 C.3     1  UNL1        0.1152
      8 N         -26.0279   50.1562   -9.8526 N.am    1  UNL1       -0.2701
      9 C         -27.4014   49.8080   -9.5913 C.2     1  UNL1        0.2831
     10 O         -28.3172   50.6057   -9.9342 O.2     1  UNL1       -0.2666
     11 C         -24.9500   49.7202   -8.9497 C.3     1  UNL1        0.1152
     12 C         -23.9992   50.8866   -8.6474 C.3     1  UNL1        0.1123
     13 C         -21.3923   55.2388   -9.5074 C.ar    1  UNL1        0.0641
     14 C         -22.6576   55.2523  -10.1214 C.ar    1  UNL1        0.0188
     15 C         -23.4027   54.0761  -10.2399 C.ar    1  UNL1        0.0160
     16 C         -22.8988   52.8616   -9.7492 C.ar    1  UNL1        0.0480
     17 C         -21.6399   52.8454   -9.1301 C.ar    1  UNL1        0.0160
     18 C         -20.8925   54.0205   -9.0130 C.ar    1  UNL1        0.0188
     19 C         -19.3206   58.0714   -8.5628 C.ar    1  UNL1       -0.0035
     20 C         -19.6557   58.4168   -9.8577 C.ar    1  UNL1        0.0162
     21 C         -20.4565   57.3992  -10.3351 C.ar    1  UNL1        0.0798
     22 N         -20.6223   56.4523   -9.3852 N.ar    1  UNL1       -0.3039
     23 C         -19.9297   56.8581   -8.2995 C.ar    1  UNL1        0.0758
     24 C         -19.0394   60.2625   -7.3956 C.3     1  UNL1        0.0047
     25 C         -18.4479   58.8689   -7.6294 C.3     1  UNL1        0.0239
     26 C         -18.2549   58.1253   -6.3043 C.3     1  UNL1        0.0047
     27 C         -28.8496   47.2910   -7.0623 C.2     1  UNL1        0.2080
     28 O         -29.2662   46.2878   -7.7034 O.2     1  UNL1       -0.2861
     29 C         -28.7486   47.2163   -5.5806 C.2     1  UNL1        0.1445
     30 C         -27.5677   47.6120   -4.9370 C.2     1  UNL1        0.0149
     31 C         -27.4663   47.5580   -3.5457 C.2     1  UNL1        0.0516
     32 C         -28.5678   47.1234   -2.8032 C.2     1  UNL1        0.2813
     33 N         -29.7296   46.7499   -3.4192 N.am    1  UNL1       -0.1016
     34 C         -29.8369   46.7881   -4.7886 C.2     1  UNL1        0.4213
     35 O         -30.9111   46.4294   -5.3466 O.2     1  UNL1       -0.2139
     36 C         -26.2315   48.0606   -2.8485 C.3     1  UNL1        0.0590
     37 C         -26.0333   49.5217   -3.1483 C.ar    1  UNL1       -0.0131
     38 C         -25.1682   50.2963   -2.3575 C.ar    1  UNL1        0.0259
     39 C         -24.9447   51.6416   -2.6682 C.ar    1  UNL1        0.1421
     40 F         -24.1116   52.3850   -1.8991 F       1  UNL1       -0.2041
     41 C         -25.5738   52.2185   -3.7753 C.ar    1  UNL1        0.0592
     42 C         -26.4255   51.4508   -4.5750 C.ar    1  UNL1        0.1421
     43 F         -27.0266   52.0088   -5.6546 F       1  UNL1       -0.2041
     44 C         -26.6531   50.1061   -4.2660 C.ar    1  UNL1        0.0259
     45 C         -30.8816   46.3746   -2.5809 C.3     1  UNL1        0.3475
     46 C         -30.8662   47.1596   -1.2924 C.ar    1  UNL1        0.0823
     47 C         -30.6319   46.4955   -0.0754 C.ar    1  UNL1        0.0047
     48 C         -30.5752   47.2130    1.1225 C.ar    1  UNL1        0.0000
     49 C         -30.7501   48.5985    1.1175 C.ar    1  UNL1        0.0023
     50 C         -30.9818   49.2692   -0.0860 C.ar    1  UNL1        0.0295
     51 C         -31.0381   48.5576   -1.2893 C.ar    1  UNL1        0.1426
     52 F         -31.2655   49.2335   -2.4438 F       1  UNL1       -0.2043
@<TRIPOS>BOND
     1    24    25    1
     2    25    26    1
     3    25    19    1
     4    19    20   ar
     5    20    21   ar
     6    21    22   ar
     7    22    13    1
     8    13    14   ar
     9    14    15   ar
    10    15    16   ar
    11    16     5    1
    12     5     6    1
    13     6     7    1
    14     7     8    1
    15     8     9   am
    16     9    10    2
    17     9     1    1
    18     1     2    1
    19     1     3    2
    20     3    27    1
    21    27    28    2
    22    27    29    1
    23    29    30    2
    24    30    31    1
    25    31    36    1
    26    36    37    1
    27    37    38   ar
    28    38    39   ar
    29    39    40    1
    30    39    41   ar
    31    41    42   ar
    32    42    43    1
    33    42    44   ar
    34    31    32    2
    35    32    33    1
    36    33    45    1
    37    45    46    1
    38    46    47   ar
    39    47    48   ar
    40    48    49   ar
    41    49    50   ar
    42    50    51   ar
    43    51    52    1
    44    33    34    1
    45    34    35    2
    46     8    11    1
    47    11    12    1
    48    16    17   ar
    49    17    18   ar
    50    22    23   ar
    51    23    19   ar
    52    18    13   ar
    53    12     5    1
    54    34    29    1
    55    44    37   ar
    56    51    46   ar
    57     2     4    1
@<TRIPOS>MOLECULE
*****
 52 57 0 0 0
SMALL
GASTEIGER

@<TRIPOS>ATOM
      1 C         -25.5573   49.8303   -9.9497 C.2     1  UNL1        0.1910
      2 O         -25.5045   48.8777  -10.9681 O.2     1  UNL1       -0.5018
      3 C         -25.9213   49.4745   -8.7060 C.2     1  UNL1        0.0837
      4 H         -25.3309   49.1350  -11.9317 H       1  UNL1        0.2924
      5 N         -21.6641   53.3125   -9.6623 N.pl3   1  UNL1       -0.3041
      6 C         -22.0244   53.1583  -11.0770 C.3     1  UNL1        0.1123
      7 C         -23.5089   52.8055  -11.1895 C.3     1  UNL1        0.1152
      8 N         -23.8741   51.7203  -10.2652 N.am    1  UNL1       -0.2701
      9 C         -25.2343   51.2448  -10.2548 C.2     1  UNL1        0.2831
     10 O         -26.1711   52.0456  -10.5264 O.2     1  UNL1       -0.2666
     11 C         -22.8662   51.1552   -9.3531 C.3     1  UNL1        0.1152
     12 C         -22.0524   52.2764   -8.6925 C.3     1  UNL1        0.1123
     13 C         -19.7413   56.8562   -8.2726 C.ar    1  UNL1        0.0641
     14 C         -20.7208   56.9206   -9.2798 C.ar    1  UNL1        0.0188
     15 C         -21.3474   55.7584   -9.7371 C.ar    1  UNL1        0.0160
     16 C         -21.0077   54.5075   -9.1991 C.ar    1  UNL1        0.0480
     17 C         -20.0359   54.4399   -8.1895 C.ar    1  UNL1        0.0160
     18 C         -19.4065   55.6012   -7.7328 C.ar    1  UNL1        0.0188
     19 C         -18.4814   60.1915   -7.5683 C.ar    1  UNL1       -0.0035
     20 C         -17.7876   59.4502   -6.6317 C.ar    1  UNL1        0.0162
     21 C         -18.1878   58.1403   -6.8009 C.ar    1  UNL1        0.0798
     22 N         -19.0934   58.0553   -7.8004 N.ar    1  UNL1       -0.3039
     23 C         -19.2769   59.3066   -8.2730 C.ar    1  UNL1        0.0758
     24 C         -19.3509   62.4132   -6.8263 C.3     1  UNL1        0.0047
     25 C         -18.3878   61.6818   -7.7666 C.3     1  UNL1        0.0239
     26 C         -16.9485   62.1638   -7.5614 C.3     1  UNL1        0.0047
     27 C         -26.2575   48.0867   -8.3034 C.2     1  UNL1        0.2080
     28 O         -25.3547   47.3153   -7.8779 O.2     1  UNL1       -0.2861
     29 C         -27.6592   47.5955   -8.3751 C.2     1  UNL1        0.1445
     30 C         -28.1102   46.9262   -9.5214 C.2     1  UNL1        0.0149
     31 C         -29.4204   46.4495   -9.5945 C.2     1  UNL1        0.0516
     32 C         -30.2688   46.6312   -8.4988 C.2     1  UNL1        0.2813
     33 N         -29.8350   47.2687   -7.3699 N.am    1  UNL1       -0.1016
     34 C         -28.5512   47.7520   -7.2912 C.2     1  UNL1        0.4213
     35 O         -28.1658   48.3494   -6.2478 O.2     1  UNL1       -0.2139
     36 C         -29.8812   45.6584  -10.7883 C.3     1  UNL1        0.0590
     37 C         -30.0441   46.5698  -11.9745 C.ar    1  UNL1       -0.0131
     38 C         -29.8987   46.0681  -13.2787 C.ar    1  UNL1        0.0259
     39 C         -30.1013   46.9041  -14.3816 C.ar    1  UNL1        0.1421
     40 F         -29.9559   46.4152  -15.6378 F       1  UNL1       -0.2041
     41 C         -30.4607   48.2414  -14.1901 C.ar    1  UNL1        0.0592
     42 C         -30.6205   48.7446  -12.8956 C.ar    1  UNL1        0.1421
     43 F         -30.9796   50.0389  -12.7116 F       1  UNL1       -0.2041
     44 C         -30.4165   47.9123  -11.7906 C.ar    1  UNL1        0.0259
     45 C         -30.7498   47.3623   -6.2188 C.3     1  UNL1        0.3475
     46 C         -30.8901   48.7991   -5.7801 C.ar    1  UNL1        0.0823
     47 C         -30.6102   49.1507   -4.4477 C.ar    1  UNL1        0.0047
     48 C         -30.6970   50.4829   -4.0346 C.ar    1  UNL1        0.0000
     49 C         -31.0621   51.4761   -4.9459 C.ar    1  UNL1        0.0023
     50 C         -31.3408   51.1386   -6.2727 C.ar    1  UNL1        0.0295
     51 C         -31.2543   49.8073   -6.6939 C.ar    1  UNL1        0.1426
     52 F         -31.5312   49.5068   -7.9879 F       1  UNL1       -0.2043
@<TRIPOS>BOND
     1    24    25    1
     2    25    26    1
     3    25    19    1
     4    19    20   ar
     5    20    21   ar
     6    21    22   ar
     7    22    13    1
     8    13    14   ar
     9    14    15   ar
    10    15    16   ar
    11    16     5    1
    12     5     6    1
    13     6     7    1
    14     7     8    1
    15     8     9   am
    16     9    10    2
    17     9     1    1
    18     1     2    1
    19     1     3    2
    20     3    27    1
    21    27    28    2
    22    27    29    1
    23    29    30    2
    24    30    31    1
    25    31    36    1
    26    36    37    1
    27    37    38   ar
    28    38    39   ar
    29    39    40    1
    30    39    41   ar
    31    41    42   ar
    32    42    43    1
    33    42    44   ar
    34    31    32    2
    35    32    33    1
    36    33    45    1
    37    45    46    1
    38    46    47   ar
    39    47    48   ar
    40    48    49   ar
    41    49    50   ar
    42    50    51   ar
    43    51    52    1
    44    33    34    1
    45    34    35    2
    46     8    11    1
    47    11    12    1
    48    16    17   ar
    49    17    18   ar
    50    22    23   ar
    51    23    19   ar
    52    18    13   ar
    53    12     5    1
    54    34    29    1
    55    44    37   ar
    56    51    46   ar
    57     2     4    1
@<TRIPOS>MOLECULE
*****
 52 57 0 0 0
SMALL
GASTEIGER

@<TRIPOS>ATOM
      1 C         -25.3911   50.1277  -10.8891 C.2     1  UNL1        0.1910
      2 O         -25.1886   49.0032  -11.6903 O.2     1  UNL1       -0.5018
      3 C         -26.1574   50.0472   -9.7881 C.2     1  UNL1        0.0837
      4 H         -24.7000   49.0588  -12.5751 H       1  UNL1        0.2924
      5 N         -21.4114   53.3058   -9.6950 N.pl3   1  UNL1       -0.3041
      6 C         -21.2459   52.8852  -11.0917 C.3     1  UNL1        0.1123
      7 C         -22.6201   52.6236  -11.7115 C.3     1  UNL1        0.1152
      8 N         -23.4531   51.7847  -10.8352 N.am    1  UNL1       -0.2701
      9 C         -24.7760   51.4202  -11.2750 C.2     1  UNL1        0.2831
     10 O         -25.4201   52.2113  -12.0179 O.2     1  UNL1       -0.2666
     11 C         -22.9441   51.3525   -9.5233 C.3     1  UNL1        0.1152
     12 C         -22.2751   52.5260   -8.7947 C.3     1  UNL1        0.1123
     13 C         -19.6336   56.9096   -8.2670 C.ar    1  UNL1        0.0641
     14 C         -20.5825   56.9411   -9.3047 C.ar    1  UNL1        0.0188
     15 C         -21.1615   55.7593   -9.7745 C.ar    1  UNL1        0.0160
     16 C         -20.8037   54.5213   -9.2187 C.ar    1  UNL1        0.0480
     17 C         -19.8625   54.4863   -8.1788 C.ar    1  UNL1        0.0160
     18 C         -19.2808   55.6673   -7.7096 C.ar    1  UNL1        0.0188
     19 C         -18.4690   60.2790   -7.5612 C.ar    1  UNL1       -0.0035
     20 C         -17.8286   59.5700   -6.5634 C.ar    1  UNL1        0.0162
     21 C         -18.1987   58.2506   -6.7273 C.ar    1  UNL1        0.0798
     22 N         -19.0350   58.1289   -7.7819 N.ar    1  UNL1       -0.3039
     23 C         -19.2039   59.3662   -8.2954 C.ar    1  UNL1        0.0758
     24 C         -19.3597   62.5094   -6.8724 C.3     1  UNL1        0.0047
     25 C         -18.3829   61.7656   -7.7885 C.3     1  UNL1        0.0239
     26 C         -16.9487   62.2609   -7.5790 C.3     1  UNL1        0.0047
     27 C         -26.8097   48.8001   -9.3187 C.2     1  UNL1        0.2080
     28 O         -27.0629   47.8728  -10.1355 O.2     1  UNL1       -0.2861
     29 C         -27.1524   48.6182   -7.8832 C.2     1  UNL1        0.1445
     30 C         -27.2114   49.7289   -7.0298 C.2     1  UNL1        0.0149
     31 C         -27.5446   49.5712   -5.6833 C.2     1  UNL1        0.0516
     32 C         -27.8393   48.2917   -5.2043 C.2     1  UNL1        0.2813
     33 N         -27.8001   47.2037   -6.0309 N.am    1  UNL1       -0.1016
     34 C         -27.4623   47.3453   -7.3553 C.2     1  UNL1        0.4213
     35 O         -27.4180   46.3312   -8.1061 O.2     1  UNL1       -0.2139
     36 C         -27.6902   50.7699   -4.7858 C.3     1  UNL1        0.0590
     37 C         -26.5338   50.8337   -3.8252 C.ar    1  UNL1       -0.0131
     38 C         -25.8507   52.0438   -3.6180 C.ar    1  UNL1        0.0259
     39 C         -24.8095   52.1144   -2.6868 C.ar    1  UNL1        0.1421
     40 F         -24.1515   53.2840   -2.4939 F       1  UNL1       -0.2041
     41 C         -24.4514   50.9820   -1.9494 C.ar    1  UNL1        0.0592
     42 C         -25.1352   49.7777   -2.1401 C.ar    1  UNL1        0.1421
     43 F         -24.7940   48.6831   -1.4166 F       1  UNL1       -0.2041
     44 C         -26.1752   49.7028   -3.0720 C.ar    1  UNL1        0.0259
     45 C         -28.1953   45.8924   -5.4877 C.3     1  UNL1        0.3475
     46 C         -27.4163   45.5928   -4.2307 C.ar    1  UNL1        0.0823
     47 C         -28.1030   45.2852   -3.0428 C.ar    1  UNL1        0.0047
     48 C         -27.3967   44.9668   -1.8797 C.ar    1  UNL1        0.0000
     49 C         -26.0003   44.9509   -1.8910 C.ar    1  UNL1        0.0023
     50 C         -25.3075   45.2531   -3.0660 C.ar    1  UNL1        0.0295
     51 C         -26.0079   45.5711   -4.2346 C.ar    1  UNL1        0.1426
     52 F         -25.3105   45.8617   -5.3617 F       1  UNL1       -0.2043
@<TRIPOS>BOND
     1    24    25    1
     2    25    26    1
     3    25    19    1
     4    19    20   ar
     5    20    21   ar
     6    21    22   ar
     7    22    13    1
     8    13    14   ar
     9    14    15   ar
    10    15    16   ar
    11    16     5    1
    12     5     6    1
    13     6     7    1
    14     7     8    1
    15     8     9   am
    16     9    10    2
    17     9     1    1
    18     1     2    1
    19     1     3    2
    20     3    27    1
    21    27    28    2
    22    27    29    1
    23    29    30    2
    24    30    31    1
    25    31    36    1
    26    36    37    1
    27    37    38   ar
    28    38    39   ar
    29    39    40    1
    30    39    41   ar
    31    41    42   ar
    32    42    43    1
    33    42    44   ar
    34    31    32    2
    35    32    33    1
    36    33    45    1
    37    45    46    1
    38    46    47   ar
    39    47    48   ar
    40    48    49   ar
    41    49    50   ar
    42    50    51   ar
    43    51    52    1
    44    33    34    1
    45    34    35    2
    46     8    11    1
    47    11    12    1
    48    16    17   ar
    49    17    18   ar
    50    22    23   ar
    51    23    19   ar
    52    18    13   ar
    53    12     5    1
    54    34    29    1
    55    44    37   ar
    56    51    46   ar
    57     2     4    1
@<TRIPOS>MOLECULE
*****
 52 57 0 0 0
SMALL
GASTEIGER

@<TRIPOS>ATOM
      1 C         -25.5639   49.8522   -9.9380 C.2     1  UNL1        0.1910
      2 O         -25.4765   48.8786  -10.9340 O.2     1  UNL1       -0.5018
      3 C         -25.9764   49.5233   -8.7020 C.2     1  UNL1        0.0837
      4 H         -25.2653   49.1154  -11.8953 H       1  UNL1        0.2924
      5 N         -21.6501   53.3090   -9.6283 N.pl3   1  UNL1       -0.3041
      6 C         -21.9828   53.1343  -11.0475 C.3     1  UNL1        0.1123
      7 C         -23.4676   52.7909  -11.1843 C.3     1  UNL1        0.1152
      8 N         -23.8599   51.7239  -10.2500 N.am    1  UNL1       -0.2701
      9 C         -25.2237   51.2589  -10.2595 C.2     1  UNL1        0.2831
     10 O         -26.1485   52.0622  -10.5631 O.2     1  UNL1       -0.2666
     11 C         -22.8751   51.1663   -9.3085 C.3     1  UNL1        0.1152
     12 C         -22.0660   52.2921   -8.6499 C.3     1  UNL1        0.1123
     13 C         -19.7275   56.8602   -8.2575 C.ar    1  UNL1        0.0641
     14 C         -20.7026   56.9185   -9.2693 C.ar    1  UNL1        0.0188
     15 C         -21.3292   55.7538   -9.7204 C.ar    1  UNL1        0.0160
     16 C         -20.9937   54.5065   -9.1716 C.ar    1  UNL1        0.0480
     17 C         -20.0262   54.4451   -8.1573 C.ar    1  UNL1        0.0160
     18 C         -19.3970   55.6089   -7.7068 C.ar    1  UNL1        0.0188
     19 C         -18.4618   60.1982   -7.5763 C.ar    1  UNL1       -0.0035
     20 C         -17.7802   59.4643   -6.6249 C.ar    1  UNL1        0.0162
     21 C         -18.1837   58.1541   -6.7842 C.ar    1  UNL1        0.0798
     22 N         -19.0797   58.0618   -7.7917 N.ar    1  UNL1       -0.3039
     23 C         -19.2537   59.3088   -8.2794 C.ar    1  UNL1        0.0758
     24 C         -19.3064   62.4326   -6.8437 C.3     1  UNL1        0.0047
     25 C         -18.3606   61.6858   -7.7895 C.3     1  UNL1        0.0239
     26 C         -16.9154   62.1596   -7.6071 C.3     1  UNL1        0.0047
     27 C         -26.3334   48.1452   -8.2842 C.2     1  UNL1        0.2080
     28 O         -25.4486   47.3763   -7.8186 O.2     1  UNL1       -0.2861
     29 C         -27.7357   47.6614   -8.3876 C.2     1  UNL1        0.1445
     30 C         -28.1570   46.9708   -9.5326 C.2     1  UNL1        0.0149
     31 C         -29.4676   46.5010   -9.6349 C.2     1  UNL1        0.0516
     32 C         -30.3471   46.7113   -8.5693 C.2     1  UNL1        0.2813
     33 N         -29.9428   47.3698   -7.4416 N.am    1  UNL1       -0.1016
     34 C         -28.6586   47.8466   -7.3345 C.2     1  UNL1        0.4213
     35 O         -28.3004   48.4636   -6.2928 O.2     1  UNL1       -0.2139
     36 C         -29.8980   45.6876  -10.8252 C.3     1  UNL1        0.0590
     37 C         -30.0330   46.5771  -12.0313 C.ar    1  UNL1       -0.0131
     38 C         -29.9194   46.0396  -13.3244 C.ar    1  UNL1        0.0259
     39 C         -30.0965   46.8574  -14.4452 C.ar    1  UNL1        0.1421
     40 F         -29.9820   46.3338  -15.6905 F       1  UNL1       -0.2041
     41 C         -30.3986   48.2127  -14.2826 C.ar    1  UNL1        0.0592
     42 C         -30.5265   48.7521  -12.9993 C.ar    1  UNL1        0.1421
     43 F         -30.8301   50.0641  -12.8431 F       1  UNL1       -0.2041
     44 C         -30.3479   47.9379  -11.8764 C.ar    1  UNL1        0.0259
     45 C         -30.8910   47.4936   -6.3207 C.3     1  UNL1        0.3475
     46 C         -30.5871   46.4599   -5.2644 C.ar    1  UNL1        0.0823
     47 C         -30.7562   45.0950   -5.5570 C.ar    1  UNL1        0.0047
     48 C         -30.4418   44.1229   -4.6034 C.ar    1  UNL1        0.0000
     49 C         -29.9550   44.5028   -3.3508 C.ar    1  UNL1        0.0023
     50 C         -29.7813   45.8559   -3.0497 C.ar    1  UNL1        0.0295
     51 C         -30.0923   46.8345   -3.9999 C.ar    1  UNL1        0.1426
     52 F         -29.9152   48.1415   -3.6812 F       1  UNL1       -0.2043
@<TRIPOS>BOND
     1    24    25    1
     2    25    26    1
     3    25    19    1
     4    19    20   ar
     5    20    21   ar
     6    21    22   ar
     7    22    13    1
     8    13    14   ar
     9    14    15   ar
    10    15    16   ar
    11    16     5    1
    12     5     6    1
    13     6     7    1
    14     7     8    1
    15     8     9   am
    16     9    10    2
    17     9     1    1
    18     1     2    1
    19     1     3    2
    20     3    27    1
    21    27    28    2
    22    27    29    1
    23    29    30    2
    24    30    31    1
    25    31    36    1
    26    36    37    1
    27    37    38   ar
    28    38    39   ar
    29    39    40    1
    30    39    41   ar
    31    41    42   ar
    32    42    43    1
    33    42    44   ar
    34    31    32    2
    35    32    33    1
    36    33    45    1
    37    45    46    1
    38    46    47   ar
    39    47    48   ar
    40    48    49   ar
    41    49    50   ar
    42    50    51   ar
    43    51    52    1
    44    33    34    1
    45    34    35    2
    46     8    11    1
    47    11    12    1
    48    16    17   ar
    49    17    18   ar
    50    22    23   ar
    51    23    19   ar
    52    18    13   ar
    53    12     5    1
    54    34    29    1
    55    44    37   ar
    56    51    46   ar
    57     2     4    1
@<TRIPOS>MOLECULE
*****
 52 57 0 0 0
SMALL
GASTEIGER

@<TRIPOS>ATOM
      1 C         -25.5612   49.8065   -9.7608 C.2     1  UNL1        0.1910
      2 O         -25.5802   48.8385  -10.7657 O.2     1  UNL1       -0.5018
      3 C         -25.8693   49.4767   -8.4950 C.2     1  UNL1        0.0837
      4 H         -25.4502   49.0780  -11.7406 H       1  UNL1        0.2924
      5 N         -21.6483   53.2701   -9.5221 N.pl3   1  UNL1       -0.3041
      6 C         -21.9895   53.0758  -10.9367 C.3     1  UNL1        0.1123
      7 C         -23.4748   52.7295  -11.0598 C.3     1  UNL1        0.1152
      8 N         -23.8606   51.6750  -10.1086 N.am    1  UNL1       -0.2701
      9 C         -25.2240   51.2090  -10.1035 C.2     1  UNL1        0.2831
     10 O         -26.1513   52.0074  -10.4124 O.2     1  UNL1       -0.2666
     11 C         -22.8696   51.1311   -9.1657 C.3     1  UNL1        0.1152
     12 C         -22.0575   52.2664   -8.5274 C.3     1  UNL1        0.1123
     13 C         -19.7215   56.8425   -8.2137 C.ar    1  UNL1        0.0641
     14 C         -20.6174   56.8676   -9.2976 C.ar    1  UNL1        0.0188
     15 C         -21.2452   55.6958   -9.7279 C.ar    1  UNL1        0.0160
     16 C         -20.9901   54.4742   -9.0857 C.ar    1  UNL1        0.0480
     17 C         -20.1022   54.4464   -7.9998 C.ar    1  UNL1        0.0160
     18 C         -19.4716   55.6172   -7.5698 C.ar    1  UNL1        0.0188
     19 C         -18.4646   60.1933   -7.5807 C.ar    1  UNL1       -0.0035
     20 C         -17.7589   59.4703   -6.6385 C.ar    1  UNL1        0.0162
     21 C         -18.1568   58.1566   -6.7808 C.ar    1  UNL1        0.0798
     22 N         -19.0725   58.0515   -7.7692 N.ar    1  UNL1       -0.3039
     23 C         -19.2647   59.2940   -8.2616 C.ar    1  UNL1        0.0758
     24 C         -19.3457   62.4240   -6.8805 C.3     1  UNL1        0.0047
     25 C         -18.3777   61.6801   -7.8059 C.3     1  UNL1        0.0239
     26 C         -16.9409   62.1725   -7.6071 C.3     1  UNL1        0.0047
     27 C         -26.2141   48.1025   -8.0546 C.2     1  UNL1        0.2080
     28 O         -25.3058   47.3126   -7.6776 O.2     1  UNL1       -0.2861
     29 C         -27.6295   47.6472   -8.0311 C.2     1  UNL1        0.1445
     30 C         -28.4451   47.9477   -6.9312 C.2     1  UNL1        0.0149
     31 C         -29.7788   47.5362   -6.9043 C.2     1  UNL1        0.0516
     32 C         -30.2941   46.8384   -8.0001 C.2     1  UNL1        0.2813
     33 N         -29.5122   46.5533   -9.0847 N.am    1  UNL1       -0.1016
     34 C         -28.1951   46.9434   -9.1173 C.2     1  UNL1        0.4213
     35 O         -27.4799   46.6639  -10.1195 O.2     1  UNL1       -0.2139
     36 C         -30.6779   47.9295   -5.7639 C.3     1  UNL1        0.0590
     37 C         -30.1498   47.3592   -4.4755 C.ar    1  UNL1       -0.0131
     38 C         -29.9252   45.9779   -4.3515 C.ar    1  UNL1        0.0259
     39 C         -29.3857   45.4551   -3.1717 C.ar    1  UNL1        0.1421
     40 F         -29.1746   44.1208   -3.0566 F       1  UNL1       -0.2041
     41 C         -29.0570   46.3079   -2.1138 C.ar    1  UNL1        0.0592
     42 C         -29.2650   47.6850   -2.2346 C.ar    1  UNL1        0.1421
     43 F         -28.9359   48.5120   -1.2119 F       1  UNL1       -0.2041
     44 C         -29.8064   48.2109   -3.4118 C.ar    1  UNL1        0.0259
     45 C         -30.1310   45.8833  -10.2418 C.3     1  UNL1        0.3475
     46 C         -30.5016   46.8984  -11.2949 C.ar    1  UNL1        0.0823
     47 C         -31.2621   48.0260  -10.9380 C.ar    1  UNL1        0.0047
     48 C         -31.5805   48.9956  -11.8927 C.ar    1  UNL1        0.0000
     49 C         -31.1427   48.8503  -13.2108 C.ar    1  UNL1        0.0023
     50 C         -30.3850   47.7350  -13.5765 C.ar    1  UNL1        0.0295
     51 C         -30.0609   46.7611  -12.6257 C.ar    1  UNL1        0.1426
     52 F         -29.3247   45.6872  -13.0078 F       1  UNL1       -0.2043
@<TRIPOS>BOND
     1    24    25    1
     2    25    26    1
     3    25    19    1
     4    19    20   ar
     5    20    21   ar
     6    21    22   ar
     7    22    13    1
     8    13    14   ar
     9    14    15   ar
    10    15    16   ar
    11    16     5    1
    12     5     6    1
    13     6     7    1
    14     7     8    1
    15     8     9   am
    16     9    10    2
    17     9     1    1
    18     1     2    1
    19     1     3    2
    20     3    27    1
    21    27    28    2
    22    27    29    1
    23    29    30    2
    24    30    31    1
    25    31    36    1
    26    36    37    1
    27    37    38   ar
    28    38    39   ar
    29    39    40    1
    30    39    41   ar
    31    41    42   ar
    32    42    43    1
    33    42    44   ar
    34    31    32    2
    35    32    33    1
    36    33    45    1
    37    45    46    1
    38    46    47   ar
    39    47    48   ar
    40    48    49   ar
    41    49    50   ar
    42    50    51   ar
    43    51    52    1
    44    33    34    1
    45    34    35    2
    46     8    11    1
    47    11    12    1
    48    16    17   ar
    49    17    18   ar
    50    22    23   ar
    51    23    19   ar
    52    18    13   ar
    53    12     5    1
    54    34    29    1
    55    44    37   ar
    56    51    46   ar
    57     2     4    1
@<TRIPOS>MOLECULE
*****
 52 57 0 0 0
SMALL
GASTEIGER

@<TRIPOS>ATOM
      1 C         -25.7708   49.7794   -9.9535 C.2     1  UNL1        0.1910
      2 O         -25.5473   48.7799  -10.9014 O.2     1  UNL1       -0.5018
      3 C         -26.3298   49.4785   -8.7691 C.2     1  UNL1        0.0837
      4 H         -25.2211   48.9932  -11.8357 H       1  UNL1        0.2924
      5 N         -21.8034   53.1759   -9.6564 N.pl3   1  UNL1       -0.3041
      6 C         -22.1478   53.0115  -11.0740 C.3     1  UNL1        0.1123
      7 C         -23.6384   52.6910  -11.2025 C.3     1  UNL1        0.1152
      8 N         -24.0408   51.6265  -10.2696 N.am    1  UNL1       -0.2701
      9 C         -25.4115   51.1821  -10.2720 C.2     1  UNL1        0.2831
     10 O         -26.3259   52.0003  -10.5668 O.2     1  UNL1       -0.2666
     11 C         -23.0585   51.0507   -9.3365 C.3     1  UNL1        0.1152
     12 C         -22.2284   52.1617   -8.6790 C.3     1  UNL1        0.1123
     13 C         -19.8196   56.6934   -8.2861 C.ar    1  UNL1        0.0641
     14 C         -20.7583   56.7615   -9.3312 C.ar    1  UNL1        0.0188
     15 C         -21.4048   55.6077   -9.7820 C.ar    1  UNL1        0.0160
     16 C         -21.1262   54.3617   -9.1995 C.ar    1  UNL1        0.0480
     17 C         -20.1954   54.2907   -8.1521 C.ar    1  UNL1        0.0160
     18 C         -19.5461   55.4435   -7.7018 C.ar    1  UNL1        0.0188
     19 C         -18.5248   60.0149   -7.5795 C.ar    1  UNL1       -0.0035
     20 C         -17.7987   59.2579   -6.6806 C.ar    1  UNL1        0.0162
     21 C         -18.2086   57.9517   -6.8544 C.ar    1  UNL1        0.0798
     22 N         -19.1512   57.8838   -7.8205 N.ar    1  UNL1       -0.3039
     23 C         -19.3486   59.1426   -8.2672 C.ar    1  UNL1        0.0758
     24 C         -19.4003   62.2250   -6.8105 C.3     1  UNL1        0.0047
     25 C         -18.4345   61.5078   -7.7589 C.3     1  UNL1        0.0239
     26 C         -16.9965   61.9904   -7.5458 C.3     1  UNL1        0.0047
     27 C         -26.7182   48.1069   -8.3578 C.2     1  UNL1        0.2080
     28 O         -25.8829   47.3599   -7.7788 O.2     1  UNL1       -0.2861
     29 C         -28.0962   47.6044   -8.6018 C.2     1  UNL1        0.1445
     30 C         -29.0932   47.7927   -7.6343 C.2     1  UNL1        0.0149
     31 C         -30.3934   47.3363   -7.8582 C.2     1  UNL1        0.0516
     32 C         -30.6907   46.7078   -9.0706 C.2     1  UNL1        0.2813
     33 N         -29.7303   46.5327  -10.0275 N.am    1  UNL1       -0.1016
     34 C         -28.4445   46.9676   -9.8135 C.2     1  UNL1        0.4213
     35 O         -27.5634   46.7895  -10.7000 O.2     1  UNL1       -0.2139
     36 C         -31.4835   47.6111   -6.8583 C.3     1  UNL1        0.0590
     37 C         -31.0464   48.6938   -5.9092 C.ar    1  UNL1       -0.0131
     38 C         -31.1537   50.0452   -6.2781 C.ar    1  UNL1        0.0259
     39 C         -30.7958   51.0523   -5.3758 C.ar    1  UNL1        0.1421
     40 F         -30.8980   52.3545   -5.7389 F       1  UNL1       -0.2041
     41 C         -30.3397   50.7175   -4.0975 C.ar    1  UNL1        0.0592
     42 C         -30.2429   49.3754   -3.7182 C.ar    1  UNL1        0.1421
     43 F         -29.8106   49.0525   -2.4744 F       1  UNL1       -0.2041
     44 C         -30.5977   48.3659   -4.6185 C.ar    1  UNL1        0.0259
     45 C         -30.1209   45.9331  -11.3154 C.3     1  UNL1        0.3475
     46 C         -30.2587   47.0048  -12.3687 C.ar    1  UNL1        0.0823
     47 C         -30.5697   48.3215  -11.9856 C.ar    1  UNL1        0.0047
     48 C         -30.6623   49.3339  -12.9445 C.ar    1  UNL1        0.0000
     49 C         -30.4442   49.0430  -14.2929 C.ar    1  UNL1        0.0023
     50 C         -30.1327   47.7388  -14.6848 C.ar    1  UNL1        0.0295
     51 C         -30.0367   46.7204  -13.7303 C.ar    1  UNL1        0.1426
     52 F         -29.7339   45.4621  -14.1381 F       1  UNL1       -0.2043
@<TRIPOS>BOND
     1    24    25    1
     2    25    26    1
     3    25    19    1
     4    19    20   ar
     5    20    21   ar
     6    21    22   ar
     7    22    13    1
     8    13    14   ar
     9    14    15   ar
    10    15    16   ar
    11    16     5    1
    12     5     6    1
    13     6     7    1
    14     7     8    1
    15     8     9   am
    16     9    10    2
    17     9     1    1
    18     1     2    1
    19     1     3    2
    20     3    27    1
    21    27    28    2
    22    27    29    1
    23    29    30    2
    24    30    31    1
    25    31    36    1
    26    36    37    1
    27    37    38   ar
    28    38    39   ar
    29    39    40    1
    30    39    41   ar
    31    41    42   ar
    32    42    43    1
    33    42    44   ar
    34    31    32    2
    35    32    33    1
    36    33    45    1
    37    45    46    1
    38    46    47   ar
    39    47    48   ar
    40    48    49   ar
    41    49    50   ar
    42    50    51   ar
    43    51    52    1
    44    33    34    1
    45    34    35    2
    46     8    11    1
    47    11    12    1
    48    16    17   ar
    49    17    18   ar
    50    22    23   ar
    51    23    19   ar
    52    18    13   ar
    53    12     5    1
    54    34    29    1
    55    44    37   ar
    56    51    46   ar
    57     2     4    1
@<TRIPOS>MOLECULE
*****
 52 57 0 0 0
SMALL
GASTEIGER

@<TRIPOS>ATOM
      1 C         -25.6271   49.9073  -10.0814 C.2     1  UNL1        0.1910
      2 O         -25.3609   48.9280  -11.0393 O.2     1  UNL1       -0.5018
      3 C         -26.2015   49.5750   -8.9128 C.2     1  UNL1        0.0837
      4 H         -25.0219   49.1632  -11.9636 H       1  UNL1        0.2924
      5 N         -21.7159   53.3653   -9.7510 N.pl3   1  UNL1       -0.3041
      6 C         -22.0736   53.2268  -11.1680 C.3     1  UNL1        0.1123
      7 C         -23.5598   52.8831  -11.2874 C.3     1  UNL1        0.1152
      8 N         -23.9330   51.7910  -10.3745 N.am    1  UNL1       -0.2701
      9 C         -25.2957   51.3228  -10.3719 C.2     1  UNL1        0.2831
     10 O         -26.2275   52.1313  -10.6379 O.2     1  UNL1       -0.2666
     11 C         -22.9303   51.2117   -9.4656 C.3     1  UNL1        0.1152
     12 C         -22.1121   52.3221   -8.7922 C.3     1  UNL1        0.1123
     13 C         -19.7776   56.8853   -8.3230 C.ar    1  UNL1        0.0641
     14 C         -20.7351   56.9615   -9.3504 C.ar    1  UNL1        0.0188
     15 C         -21.3668   55.8070   -9.8201 C.ar    1  UNL1        0.0160
     16 C         -21.0542   54.5522   -9.2748 C.ar    1  UNL1        0.0480
     17 C         -20.1044   54.4730   -8.2451 C.ar    1  UNL1        0.0160
     18 C         -19.4700   55.6265   -7.7759 C.ar    1  UNL1        0.0188
     19 C         -18.4947   60.2057   -7.5903 C.ar    1  UNL1       -0.0035
     20 C         -17.8215   59.4545   -6.6464 C.ar    1  UNL1        0.0162
     21 C         -18.2322   58.1492   -6.8255 C.ar    1  UNL1        0.0798
     22 N         -19.1246   58.0764   -7.8378 N.ar    1  UNL1       -0.3039
     23 C         -19.2890   59.3310   -8.3089 C.ar    1  UNL1        0.0758
     24 C         -19.3325   62.4346   -6.8337 C.3     1  UNL1        0.0047
     25 C         -18.3836   61.6955   -7.7824 C.3     1  UNL1        0.0239
     26 C         -16.9373   62.1586   -7.5826 C.3     1  UNL1        0.0047
     27 C         -26.5645   48.1884   -8.5297 C.2     1  UNL1        0.2080
     28 O         -25.6868   47.2824   -8.5278 O.2     1  UNL1       -0.2861
     29 C         -27.9554   47.8538   -8.1241 C.2     1  UNL1        0.1445
     30 C         -29.0392   48.4988   -8.7364 C.2     1  UNL1        0.0149
     31 C         -30.3495   48.1833   -8.3724 C.2     1  UNL1        0.0516
     32 C         -30.5645   47.1994   -7.4033 C.2     1  UNL1        0.2813
     33 N         -29.5158   46.5530   -6.8108 N.am    1  UNL1       -0.1016
     34 C         -28.2216   46.8633   -7.1529 C.2     1  UNL1        0.4213
     35 O         -27.2611   46.2678   -6.5901 O.2     1  UNL1       -0.2139
     36 C         -31.5145   48.8128   -9.0865 C.3     1  UNL1        0.0590
     37 C         -31.0357   49.5114  -10.3303 C.ar    1  UNL1       -0.0131
     38 C         -30.6084   50.8485  -10.2720 C.ar    1  UNL1        0.0259
     39 C         -30.1149   51.4808  -11.4178 C.ar    1  UNL1        0.1421
     40 F         -29.7075   52.7725  -11.3563 F       1  UNL1       -0.2041
     41 C         -30.0345   50.7800  -12.6248 C.ar    1  UNL1        0.0592
     42 C         -30.4451   49.4452  -12.6877 C.ar    1  UNL1        0.1421
     43 F         -30.3565   48.7636  -13.8563 F       1  UNL1       -0.2041
     44 C         -30.9412   48.8105  -11.5446 C.ar    1  UNL1        0.0259
     45 C         -29.8059   45.4717   -5.8530 C.3     1  UNL1        0.3475
     46 C         -29.5133   45.9299   -4.4454 C.ar    1  UNL1        0.0823
     47 C         -30.2169   47.0226   -3.9086 C.ar    1  UNL1        0.0047
     48 C         -29.9863   47.4351   -2.5934 C.ar    1  UNL1        0.0000
     49 C         -29.0537   46.7615   -1.8018 C.ar    1  UNL1        0.0023
     50 C         -28.3501   45.6734   -2.3241 C.ar    1  UNL1        0.0295
     51 C         -28.5769   45.2536   -3.6393 C.ar    1  UNL1        0.1426
     52 F         -27.8792   44.1947   -4.1220 F       1  UNL1       -0.2043
@<TRIPOS>BOND
     1    24    25    1
     2    25    26    1
     3    25    19    1
     4    19    20   ar
     5    20    21   ar
     6    21    22   ar
     7    22    13    1
     8    13    14   ar
     9    14    15   ar
    10    15    16   ar
    11    16     5    1
    12     5     6    1
    13     6     7    1
    14     7     8    1
    15     8     9   am
    16     9    10    2
    17     9     1    1
    18     1     2    1
    19     1     3    2
    20     3    27    1
    21    27    28    2
    22    27    29    1
    23    29    30    2
    24    30    31    1
    25    31    36    1
    26    36    37    1
    27    37    38   ar
    28    38    39   ar
    29    39    40    1
    30    39    41   ar
    31    41    42   ar
    32    42    43    1
    33    42    44   ar
    34    31    32    2
    35    32    33    1
    36    33    45    1
    37    45    46    1
    38    46    47   ar
    39    47    48   ar
    40    48    49   ar
    41    49    50   ar
    42    50    51   ar
    43    51    52    1
    44    33    34    1
    45    34    35    2
    46     8    11    1
    47    11    12    1
    48    16    17   ar
    49    17    18   ar
    50    22    23   ar
    51    23    19   ar
    52    18    13   ar
    53    12     5    1
    54    34    29    1
    55    44    37   ar
    56    51    46   ar
    57     2     4    1
@<TRIPOS>MOLECULE
*****
 52 57 0 0 0
SMALL
GASTEIGER

@<TRIPOS>ATOM
      1 C         -23.6828   51.2928  -10.7983 C.2     1  UNL1        0.1910
      2 O         -22.7972   50.2146  -10.8243 O.2     1  UNL1       -0.5018
      3 C         -24.9674   51.1075  -10.4499 C.2     1  UNL1        0.0837
      4 H         -21.8530   50.3073  -11.1773 H       1  UNL1        0.2924
      5 N         -20.3366   55.0389   -9.3374 N.pl3   1  UNL1       -0.3041
      6 C         -19.9484   54.5894  -10.6799 C.3     1  UNL1        0.1123
      7 C         -21.1901   54.1145  -11.4373 C.3     1  UNL1        0.1152
      8 N         -22.0039   53.2040  -10.6164 N.am    1  UNL1       -0.2701
      9 C         -23.2032   52.6417  -11.1836 C.2     1  UNL1        0.2831
     10 O         -23.8521   53.3050  -12.0389 O.2     1  UNL1       -0.2666
     11 C         -21.6047   52.9000   -9.2325 C.3     1  UNL1        0.1152
     12 C         -21.1914   54.1835   -8.4994 C.3     1  UNL1        0.1123
     13 C         -19.2442   58.9132   -7.9291 C.ar    1  UNL1        0.0641
     14 C         -19.6965   58.7318   -9.2485 C.ar    1  UNL1        0.0188
     15 C         -20.0505   57.4612   -9.7100 C.ar    1  UNL1        0.0160
     16 C         -19.9586   56.3452   -8.8640 C.ar    1  UNL1        0.0480
     17 C         -19.5143   56.5232   -7.5452 C.ar    1  UNL1        0.0160
     18 C         -19.1576   57.7930   -7.0829 C.ar    1  UNL1        0.0188
     19 C         -18.8825   62.1582   -6.3333 C.ar    1  UNL1       -0.0035
     20 C         -17.7840   62.1584   -7.1710 C.ar    1  UNL1        0.0162
     21 C         -17.8104   60.9541   -7.8444 C.ar    1  UNL1        0.0798
     22 N         -18.8780   60.2242   -7.4520 N.ar    1  UNL1       -0.3039
     23 C         -19.5369   60.9556   -6.5279 C.ar    1  UNL1        0.0758
     24 C         -20.7167   63.7092   -5.6459 C.3     1  UNL1        0.0047
     25 C         -19.2754   63.2607   -5.3851 C.3     1  UNL1        0.0239
     26 C         -19.0948   62.8119   -3.9318 C.3     1  UNL1        0.0047
     27 C         -25.5383   49.7994  -10.0449 C.2     1  UNL1        0.2080
     28 O         -25.5106   48.8229  -10.8429 O.2     1  UNL1       -0.2861
     29 C         -26.1285   49.6164   -8.6924 C.2     1  UNL1        0.1445
     30 C         -26.1960   50.6988   -7.8040 C.2     1  UNL1        0.0149
     31 C         -26.7595   50.5414   -6.5364 C.2     1  UNL1        0.0516
     32 C         -27.2745   49.2935   -6.1749 C.2     1  UNL1        0.2813
     33 N         -27.2281   48.2350   -7.0388 N.am    1  UNL1       -0.1016
     34 C         -26.6655   48.3753   -8.2846 C.2     1  UNL1        0.4213
     35 O         -26.6179   47.3873   -9.0692 O.2     1  UNL1       -0.2139
     36 C         -26.9089   51.7205   -5.6139 C.3     1  UNL1        0.0590
     37 C         -26.1979   51.4482   -4.3160 C.ar    1  UNL1       -0.0131
     38 C         -26.2819   50.1815   -3.7142 C.ar    1  UNL1        0.0259
     39 C         -25.5788   49.9138   -2.5351 C.ar    1  UNL1        0.1421
     40 F         -25.6668   48.6906   -1.9569 F       1  UNL1       -0.2041
     41 C         -24.7796   50.9040   -1.9561 C.ar    1  UNL1        0.0592
     42 C         -24.6801   52.1627   -2.5562 C.ar    1  UNL1        0.1421
     43 F         -23.8963   53.1185   -1.9995 F       1  UNL1       -0.2041
     44 C         -25.3835   52.4346   -3.7339 C.ar    1  UNL1        0.0259
     45 C         -27.8558   46.9659   -6.6314 C.3     1  UNL1        0.3475
     46 C         -27.3629   46.5556   -5.2656 C.ar    1  UNL1        0.0823
     47 C         -28.2810   46.3989   -4.2122 C.ar    1  UNL1        0.0047
     48 C         -27.8464   45.9813   -2.9514 C.ar    1  UNL1        0.0000
     49 C         -26.4934   45.7151   -2.7301 C.ar    1  UNL1        0.0023
     50 C         -25.5725   45.8657   -3.7697 C.ar    1  UNL1        0.0295
     51 C         -26.0005   46.2817   -5.0351 C.ar    1  UNL1        0.1426
     52 F         -25.0851   46.4209   -6.0270 F       1  UNL1       -0.2043
@<TRIPOS>BOND
     1    24    25    1
     2    25    26    1
     3    25    19    1
     4    19    20   ar
     5    20    21   ar
     6    21    22   ar
     7    22    13    1
     8    13    14   ar
     9    14    15   ar
    10    15    16   ar
    11    16     5    1
    12     5     6    1
    13     6     7    1
    14     7     8    1
    15     8     9   am
    16     9    10    2
    17     9     1    1
    18     1     2    1
    19     1     3    2
    20     3    27    1
    21    27    28    2
    22    27    29    1
    23    29    30    2
    24    30    31    1
    25    31    36    1
    26    36    37    1
    27    37    38   ar
    28    38    39   ar
    29    39    40    1
    30    39    41   ar
    31    41    42   ar
    32    42    43    1
    33    42    44   ar
    34    31    32    2
    35    32    33    1
    36    33    45    1
    37    45    46    1
    38    46    47   ar
    39    47    48   ar
    40    48    49   ar
    41    49    50   ar
    42    50    51   ar
    43    51    52    1
    44    33    34    1
    45    34    35    2
    46     8    11    1
    47    11    12    1
    48    16    17   ar
    49    17    18   ar
    50    22    23   ar
    51    23    19   ar
    52    18    13   ar
    53    12     5    1
    54    34    29    1
    55    44    37   ar
    56    51    46   ar
    57     2     4    1
@<TRIPOS>MOLECULE
*****
 52 57 0 0 0
SMALL
GASTEIGER

@<TRIPOS>ATOM
      1 C         -23.4051   51.5936  -11.1829 C.2     1  UNL1        0.1910
      2 O         -22.6990   50.3903  -11.1527 O.2     1  UNL1       -0.5018
      3 C         -24.7230   51.6137  -10.9208 C.2     1  UNL1        0.0837
      4 H         -21.7307   50.3318  -11.4421 H       1  UNL1        0.2924
      5 N         -20.2177   55.2151   -9.1606 N.pl3   1  UNL1       -0.3041
      6 C         -19.5217   54.5850  -10.2892 C.3     1  UNL1        0.1123
      7 C         -20.5472   54.1226  -11.3264 C.3     1  UNL1        0.1152
      8 N         -21.6493   53.3782  -10.6966 N.am    1  UNL1       -0.2701
      9 C         -22.6965   52.8481  -11.5323 C.2     1  UNL1        0.2831
     10 O         -23.0076   53.4559  -12.5937 O.2     1  UNL1       -0.2666
     11 C         -21.6853   53.2064   -9.2350 C.3     1  UNL1        0.1152
     12 C         -21.3578   54.5305   -8.5312 C.3     1  UNL1        0.1123
     13 C         -19.1537   59.1279   -7.8399 C.ar    1  UNL1        0.0641
     14 C         -19.5987   58.9126   -9.1566 C.ar    1  UNL1        0.0188
     15 C         -19.9434   57.6295   -9.5894 C.ar    1  UNL1        0.0160
     16 C         -19.8493   56.5344   -8.7167 C.ar    1  UNL1        0.0480
     17 C         -19.4122   56.7462   -7.4004 C.ar    1  UNL1        0.0160
     18 C         -19.0647   58.0286   -6.9668 C.ar    1  UNL1        0.0188
     19 C         -18.8152   62.4101   -6.3167 C.ar    1  UNL1       -0.0035
     20 C         -17.7177   62.4002   -7.1556 C.ar    1  UNL1        0.0162
     21 C         -17.7356   61.1811   -7.8022 C.ar    1  UNL1        0.0798
     22 N         -18.7971   60.4519   -7.3924 N.ar    1  UNL1       -0.3039
     23 C         -19.4605   61.1985   -6.4838 C.ar    1  UNL1        0.0758
     24 C         -20.6729   63.9354   -5.6347 C.3     1  UNL1        0.0047
     25 C         -19.2155   63.5303   -5.3926 C.3     1  UNL1        0.0239
     26 C         -18.9930   63.1293   -3.9312 C.3     1  UNL1        0.0047
     27 C         -25.5166   50.4140  -10.5576 C.2     1  UNL1        0.2080
     28 O         -25.1187   49.2660  -10.8967 O.2     1  UNL1       -0.2861
     29 C         -26.7738   50.5456   -9.7745 C.2     1  UNL1        0.1445
     30 C         -27.9591   49.9654  -10.2476 C.2     1  UNL1        0.0149
     31 C         -29.1423   50.0720   -9.5144 C.2     1  UNL1        0.0516
     32 C         -29.1220   50.7477   -8.2912 C.2     1  UNL1        0.2813
     33 N         -27.9686   51.3040   -7.8127 N.am    1  UNL1       -0.1016
     34 C         -26.8007   51.2153   -8.5311 C.2     1  UNL1        0.4213
     35 O         -25.7445   51.7433   -8.0844 O.2     1  UNL1       -0.2139
     36 C         -30.3948   49.3795   -9.9783 C.3     1  UNL1        0.0590
     37 C         -30.0995   47.9351  -10.2795 C.ar    1  UNL1       -0.0131
     38 C         -30.0469   47.4850  -11.6094 C.ar    1  UNL1        0.0259
     39 C         -29.7214   46.1540  -11.8902 C.ar    1  UNL1        0.1421
     40 F         -29.6758   45.7246  -13.1754 F       1  UNL1       -0.2041
     41 C         -29.4358   45.2679  -10.8473 C.ar    1  UNL1        0.0592
     42 C         -29.4729   45.7114   -9.5221 C.ar    1  UNL1        0.1421
     43 F         -29.1853   44.8536   -8.5124 F       1  UNL1       -0.2041
     44 C         -29.8002   47.0409   -9.2375 C.ar    1  UNL1        0.0259
     45 C         -27.9913   51.9364   -6.4821 C.3     1  UNL1        0.3475
     46 C         -28.9292   51.1896   -5.5661 C.ar    1  UNL1        0.0823
     47 C         -30.1315   51.7937   -5.1578 C.ar    1  UNL1        0.0047
     48 C         -31.0297   51.1009   -4.3416 C.ar    1  UNL1        0.0000
     49 C         -30.7380   49.7998   -3.9265 C.ar    1  UNL1        0.0023
     50 C         -29.5473   49.1888   -4.3274 C.ar    1  UNL1        0.0295
     51 C         -28.6441   49.8757   -5.1459 C.ar    1  UNL1        0.1426
     52 F         -27.4945   49.2594   -5.5199 F       1  UNL1       -0.2043
@<TRIPOS>BOND
     1    24    25    1
     2    25    26    1
     3    25    19    1
     4    19    20   ar
     5    20    21   ar
     6    21    22   ar
     7    22    13    1
     8    13    14   ar
     9    14    15   ar
    10    15    16   ar
    11    16     5    1
    12     5     6    1
    13     6     7    1
    14     7     8    1
    15     8     9   am
    16     9    10    2
    17     9     1    1
    18     1     2    1
    19     1     3    2
    20     3    27    1
    21    27    28    2
    22    27    29    1
    23    29    30    2
    24    30    31    1
    25    31    36    1
    26    36    37    1
    27    37    38   ar
    28    38    39   ar
    29    39    40    1
    30    39    41   ar
    31    41    42   ar
    32    42    43    1
    33    42    44   ar
    34    31    32    2
    35    32    33    1
    36    33    45    1
    37    45    46    1
    38    46    47   ar
    39    47    48   ar
    40    48    49   ar
    41    49    50   ar
    42    50    51   ar
    43    51    52    1
    44    33    34    1
    45    34    35    2
    46     8    11    1
    47    11    12    1
    48    16    17   ar
    49    17    18   ar
    50    22    23   ar
    51    23    19   ar
    52    18    13   ar
    53    12     5    1
    54    34    29    1
    55    44    37   ar
    56    51    46   ar
    57     2     4    1
