@<TRIPOS>MOLECULE
*****
 36 39 0 0 0
SMALL
GASTEIGER

@<TRIPOS>ATOM
      1 C         -25.6419   -8.7856  -12.3663 C.2     1  UNL1        0.2690
      2 O         -25.5138   -8.5817  -11.1277 O.2     1  UNL1       -0.2682
      3 N         -24.9276   -9.8953  -12.9851 N.am    1  UNL1       -0.2686
      4 C         -28.4654   -4.0664  -15.8052 C.ar    1  UNL1       -0.0210
      5 C         -27.0740   -3.8439  -15.7851 C.ar    1  UNL1       -0.0042
      6 C         -26.2219   -4.7213  -15.1077 C.ar    1  UNL1        0.0013
      7 C         -26.7484   -5.8348  -14.4407 C.ar    1  UNL1        0.0211
      8 C         -25.9238   -6.7313  -13.7556 C.ar    1  UNL1        0.0271
      9 C         -26.4953   -7.8397  -13.1176 C.ar    1  UNL1        0.1562
     10 N         -27.8452   -7.9966  -13.1538 N.ar    1  UNL1       -0.1434
     11 N         -28.6395   -7.1436  -13.8026 N.ar    1  UNL1       -0.1479
     12 C         -28.1359   -6.0645  -14.4550 C.ar    1  UNL1        0.1026
     13 C         -28.9877   -5.1861  -15.1323 C.ar    1  UNL1        0.0166
     14 C         -30.8408   -3.2715  -16.0415 C.3     1  UNL1        0.0047
     15 C         -29.3981   -3.1201  -16.5380 C.3     1  UNL1        0.0224
     16 C         -29.3122   -3.3241  -18.0552 C.3     1  UNL1        0.0047
     17 C         -24.8130  -10.0902  -14.4543 C.3     1  UNL1        0.0986
     18 C         -25.1541  -11.5378  -14.8579 C.3     1  UNL1        0.0264
     19 C         -23.4913   -9.5924  -15.0354 C.ar    1  UNL1       -0.0041
     20 C         -22.5941  -10.5195  -15.6033 C.ar    1  UNL1       -0.0004
     21 C         -21.4085  -10.0908  -16.2069 C.ar    1  UNL1        0.0294
     22 C         -21.1081   -8.7297  -16.2736 C.ar    1  UNL1        0.1401
     23 F         -19.9596   -8.3161  -16.8635 F       1  UNL1       -0.2042
     24 C         -21.9960   -7.7946  -15.7412 C.ar    1  UNL1        0.0294
     25 C         -23.1816   -8.2178  -15.1344 C.ar    1  UNL1       -0.0004
     26 C         -24.1827  -10.8272  -12.1132 C.3     1  UNL1        0.1207
     27 C         -23.0500  -10.1126  -11.4297 C.ar    1  UNL1       -0.0021
     28 C         -21.9042   -9.7531  -12.1534 C.ar    1  UNL1       -0.0026
     29 C         -20.8919   -9.0123  -11.5423 C.ar    1  UNL1       -0.0001
     30 C         -21.0168   -8.6182  -10.2082 C.ar    1  UNL1        0.0064
     31 C         -22.1562   -8.9710   -9.4632 C.ar    1  UNL1        0.0752
     32 C         -23.1729   -9.7169  -10.0871 C.ar    1  UNL1        0.0038
     33 C         -22.2876   -8.5245   -8.0550 C.2     1  UNL1        0.3380
     34 O         -21.2687   -8.4831   -7.3151 O.2     1  UNL1       -0.2451
     35 O         -23.5185   -8.1570   -7.5122 O.3     1  UNL1       -0.4771
     36 H         -24.3900   -8.2638   -8.0145 H       1  UNL1        0.2954
@<TRIPOS>BOND
     1    14    15    1
     2    15    16    1
     3    15     4    1
     4     4     5   ar
     5     5     6   ar
     6     6     7   ar
     7     7     8   ar
     8     8     9   ar
     9     9     1    1
    10     1     2    2
    11     1     3   am
    12     3    26    1
    13    26    27    1
    14    27    28   ar
    15    28    29   ar
    16    29    30   ar
    17    30    31   ar
    18    31    33    1
    19    33    34    2
    20    33    35    1
    21    31    32   ar
    22     3    17    1
    23    17    18    1
    24    17    19    1
    25    19    20   ar
    26    20    21   ar
    27    21    22   ar
    28    22    23    1
    29    22    24   ar
    30    24    25   ar
    31     9    10   ar
    32    10    11   ar
    33    11    12   ar
    34    12    13   ar
    35    13     4   ar
    36    12     7   ar
    37    32    27   ar
    38    25    19   ar
    39    35    36    1
@<TRIPOS>MOLECULE
*****
 36 39 0 0 0
SMALL
GASTEIGER

@<TRIPOS>ATOM
      1 C         -25.5478   -8.4729  -12.1160 C.2     1  UNL1        0.2690
      2 O         -25.3718   -8.0925  -10.9259 O.2     1  UNL1       -0.2682
      3 N         -24.7730   -9.5960  -12.6288 N.am    1  UNL1       -0.2686
      4 C         -28.9813   -4.4384  -15.8581 C.ar    1  UNL1       -0.0210
      5 C         -27.6361   -4.0186  -15.8520 C.ar    1  UNL1       -0.0042
      6 C         -26.6744   -4.7195  -15.1182 C.ar    1  UNL1        0.0013
      7 C         -27.0433   -5.8511  -14.3798 C.ar    1  UNL1        0.0211
      8 C         -26.1061   -6.5744  -13.6371 C.ar    1  UNL1        0.0271
      9 C         -26.5199   -7.7093  -12.9280 C.ar    1  UNL1        0.1562
     10 N         -27.8332   -8.0595  -12.9544 N.ar    1  UNL1       -0.1434
     11 N         -28.7346   -7.3726  -13.6581 N.ar    1  UNL1       -0.1479
     12 C         -28.3837   -6.2772  -14.3796 C.ar    1  UNL1        0.1026
     13 C         -29.3453   -5.5752  -15.1134 C.ar    1  UNL1        0.0166
     14 C         -29.3871   -2.8187  -17.7401 C.3     1  UNL1        0.0047
     15 C         -30.0322   -3.6846  -16.6517 C.3     1  UNL1        0.0224
     16 C         -30.9212   -2.8413  -15.7300 C.3     1  UNL1        0.0047
     17 C         -24.7207   -9.9796  -14.0640 C.3     1  UNL1        0.0986
     18 C         -24.9694  -11.4887  -14.2522 C.3     1  UNL1        0.0264
     19 C         -23.4736   -9.4741  -14.7864 C.ar    1  UNL1       -0.0041
     20 C         -22.4617  -10.3897  -15.1397 C.ar    1  UNL1       -0.0004
     21 C         -21.3406   -9.9735  -15.8632 C.ar    1  UNL1        0.0294
     22 C         -21.2200   -8.6427  -16.2652 C.ar    1  UNL1        0.1401
     23 F         -20.1338   -8.2423  -16.9707 F       1  UNL1       -0.2042
     24 C         -22.2237   -7.7268  -15.9484 C.ar    1  UNL1        0.0294
     25 C         -23.3455   -8.1370  -15.2231 C.ar    1  UNL1       -0.0004
     26 C         -23.9036  -10.3379  -11.6923 C.3     1  UNL1        0.1207
     27 C         -22.5582   -9.6745  -11.5894 C.ar    1  UNL1       -0.0021
     28 C         -22.3893   -8.3520  -12.0232 C.ar    1  UNL1       -0.0026
     29 C         -21.1649   -7.7063  -11.8465 C.ar    1  UNL1       -0.0001
     30 C         -20.1024   -8.3710  -11.2301 C.ar    1  UNL1        0.0064
     31 C         -20.2493   -9.6988  -10.7907 C.ar    1  UNL1        0.0752
     32 C         -21.4874  -10.3421  -10.9714 C.ar    1  UNL1        0.0038
     33 C         -19.1210  -10.3844  -10.1150 C.2     1  UNL1        0.3380
     34 O         -18.9289  -11.6138  -10.3122 O.2     1  UNL1       -0.2451
     35 O         -18.2630   -9.7082   -9.2482 O.3     1  UNL1       -0.4771
     36 H         -18.4186   -8.7500   -8.9640 H       1  UNL1        0.2954
@<TRIPOS>BOND
     1    14    15    1
     2    15    16    1
     3    15     4    1
     4     4     5   ar
     5     5     6   ar
     6     6     7   ar
     7     7     8   ar
     8     8     9   ar
     9     9     1    1
    10     1     2    2
    11     1     3   am
    12     3    26    1
    13    26    27    1
    14    27    28   ar
    15    28    29   ar
    16    29    30   ar
    17    30    31   ar
    18    31    33    1
    19    33    34    2
    20    33    35    1
    21    31    32   ar
    22     3    17    1
    23    17    18    1
    24    17    19    1
    25    19    20   ar
    26    20    21   ar
    27    21    22   ar
    28    22    23    1
    29    22    24   ar
    30    24    25   ar
    31     9    10   ar
    32    10    11   ar
    33    11    12   ar
    34    12    13   ar
    35    13     4   ar
    36    12     7   ar
    37    32    27   ar
    38    25    19   ar
    39    35    36    1
@<TRIPOS>MOLECULE
*****
 36 39 0 0 0
SMALL
GASTEIGER

@<TRIPOS>ATOM
      1 C         -26.1344   -8.0504  -12.7991 C.2     1  UNL1        0.2690
      2 O         -26.9462   -8.5568  -11.9766 O.2     1  UNL1       -0.2682
      3 N         -24.7641   -8.5452  -12.8468 N.am    1  UNL1       -0.2686
      4 C         -29.3169   -3.6506  -16.3462 C.ar    1  UNL1       -0.0210
      5 C         -30.2543   -4.5158  -15.7474 C.ar    1  UNL1       -0.0042
      6 C         -29.8320   -5.5632  -14.9232 C.ar    1  UNL1        0.0013
      7 C         -28.4660   -5.7607  -14.6848 C.ar    1  UNL1        0.0211
      8 C         -28.0114   -6.7972  -13.8650 C.ar    1  UNL1        0.0271
      9 C         -26.6361   -6.9444  -13.6431 C.ar    1  UNL1        0.1562
     10 N         -25.7748   -6.0922  -14.2597 N.ar    1  UNL1       -0.1434
     11 N         -26.2005   -5.1025  -15.0463 N.ar    1  UNL1       -0.1479
     12 C         -27.5232   -4.9023  -15.2786 C.ar    1  UNL1        0.1026
     13 C         -27.9463   -3.8551  -16.1035 C.ar    1  UNL1        0.0166
     14 C         -31.2938   -2.4652  -17.3547 C.3     1  UNL1        0.0047
     15 C         -29.7654   -2.5109  -17.2419 C.3     1  UNL1        0.0224
     16 C         -29.1124   -2.6058  -18.6259 C.3     1  UNL1        0.0047
     17 C         -23.6681   -7.8773  -13.5967 C.3     1  UNL1        0.0986
     18 C         -22.8057   -8.8999  -14.3617 C.3     1  UNL1        0.0264
     19 C         -22.8501   -6.9065  -12.7475 C.ar    1  UNL1       -0.0041
     20 C         -23.5178   -5.9460  -11.9609 C.ar    1  UNL1       -0.0004
     21 C         -22.8038   -5.0891  -11.1185 C.ar    1  UNL1        0.0294
     22 C         -21.4148   -5.1900  -11.0299 C.ar    1  UNL1        0.1401
     23 F         -20.7249   -4.3606  -10.2087 F       1  UNL1       -0.2042
     24 C         -20.7381   -6.1520  -11.7801 C.ar    1  UNL1        0.0294
     25 C         -21.4467   -7.0096  -12.6258 C.ar    1  UNL1       -0.0004
     26 C         -24.4097   -9.7183  -12.0213 C.3     1  UNL1        0.1207
     27 C         -23.5315   -9.3045  -10.8730 C.ar    1  UNL1       -0.0021
     28 C         -24.0871   -8.6672   -9.7546 C.ar    1  UNL1       -0.0026
     29 C         -23.2885   -8.3632   -8.6514 C.ar    1  UNL1       -0.0001
     30 C         -21.9326   -8.6981   -8.6516 C.ar    1  UNL1        0.0064
     31 C         -21.3545   -9.3345   -9.7644 C.ar    1  UNL1        0.0752
     32 C         -22.1668   -9.6388  -10.8721 C.ar    1  UNL1        0.0038
     33 C         -19.9191   -9.7073   -9.7414 C.2     1  UNL1        0.3380
     34 O         -19.5350  -10.7502  -10.3347 O.2     1  UNL1       -0.2451
     35 O         -18.9710   -8.9397   -9.0657 O.3     1  UNL1       -0.4771
     36 H         -19.2217   -8.1506   -8.4844 H       1  UNL1        0.2954
@<TRIPOS>BOND
     1    14    15    1
     2    15    16    1
     3    15     4    1
     4     4     5   ar
     5     5     6   ar
     6     6     7   ar
     7     7     8   ar
     8     8     9   ar
     9     9     1    1
    10     1     2    2
    11     1     3   am
    12     3    26    1
    13    26    27    1
    14    27    28   ar
    15    28    29   ar
    16    29    30   ar
    17    30    31   ar
    18    31    33    1
    19    33    34    2
    20    33    35    1
    21    31    32   ar
    22     3    17    1
    23    17    18    1
    24    17    19    1
    25    19    20   ar
    26    20    21   ar
    27    21    22   ar
    28    22    23    1
    29    22    24   ar
    30    24    25   ar
    31     9    10   ar
    32    10    11   ar
    33    11    12   ar
    34    12    13   ar
    35    13     4   ar
    36    12     7   ar
    37    32    27   ar
    38    25    19   ar
    39    35    36    1
@<TRIPOS>MOLECULE
*****
 36 39 0 0 0
SMALL
GASTEIGER

@<TRIPOS>ATOM
      1 C         -23.6286   -8.0127  -13.8559 C.2     1  UNL1        0.2690
      2 O         -22.6439   -7.5772  -14.5139 O.2     1  UNL1       -0.2682
      3 N         -23.4469   -9.1575  -12.9721 N.am    1  UNL1       -0.2686
      4 C         -28.7632   -4.3709  -15.4185 C.ar    1  UNL1       -0.0210
      5 C         -27.6509   -3.9319  -16.1641 C.ar    1  UNL1       -0.0042
      6 C         -26.4062   -4.5518  -16.0186 C.ar    1  UNL1        0.0013
      7 C         -26.2552   -5.6204  -15.1258 C.ar    1  UNL1        0.0211
      8 C         -25.0251   -6.2622  -14.9582 C.ar    1  UNL1        0.0271
      9 C         -24.9276   -7.3372  -14.0656 C.ar    1  UNL1        0.1562
     10 N         -26.0280   -7.7082  -13.3588 N.ar    1  UNL1       -0.1434
     11 N         -27.2048   -7.0987  -13.5105 N.ar    1  UNL1       -0.1479
     12 C         -27.3598   -6.0650  -14.3771 C.ar    1  UNL1        0.1026
     13 C         -28.6045   -5.4440  -14.5227 C.ar    1  UNL1        0.0166
     14 C         -31.2475   -4.6431  -15.1284 C.3     1  UNL1        0.0047
     15 C         -30.1182   -3.7048  -15.5698 C.3     1  UNL1        0.0224
     16 C         -30.3363   -3.2160  -17.0065 C.3     1  UNL1        0.0047
     17 C         -24.5674   -9.8983  -12.3354 C.3     1  UNL1        0.0986
     18 C         -24.3068  -10.1311  -10.8345 C.3     1  UNL1        0.0264
     19 C         -24.9665  -11.1664  -13.0871 C.ar    1  UNL1       -0.0041
     20 C         -25.3977  -11.0688  -14.4256 C.ar    1  UNL1       -0.0004
     21 C         -25.7028  -12.2151  -15.1648 C.ar    1  UNL1        0.0294
     22 C         -25.5624  -13.4786  -14.5891 C.ar    1  UNL1        0.1401
     23 F         -25.8548  -14.5892  -15.3095 F       1  UNL1       -0.2042
     24 C         -25.1114  -13.5975  -13.2742 C.ar    1  UNL1        0.0294
     25 C         -24.8074  -12.4546  -12.5298 C.ar    1  UNL1       -0.0004
     26 C         -22.0809   -9.6849  -12.7744 C.3     1  UNL1        0.1207
     27 C         -21.8523  -10.8873  -13.6479 C.ar    1  UNL1       -0.0021
     28 C         -21.4066  -12.0921  -13.0864 C.ar    1  UNL1       -0.0026
     29 C         -21.2796  -13.2322  -13.8811 C.ar    1  UNL1       -0.0001
     30 C         -21.6025  -13.1819  -15.2390 C.ar    1  UNL1        0.0064
     31 C         -22.0481  -11.9827  -15.8230 C.ar    1  UNL1        0.0752
     32 C         -22.1747  -10.8382  -15.0146 C.ar    1  UNL1        0.0038
     33 C         -22.4116  -11.9495  -17.2605 C.2     1  UNL1        0.3380
     34 O         -21.6716  -12.5205  -18.1054 O.2     1  UNL1       -0.2451
     35 O         -23.5521  -11.2882  -17.7153 O.3     1  UNL1       -0.4771
     36 H         -24.1334  -10.7239  -17.1097 H       1  UNL1        0.2954
@<TRIPOS>BOND
     1    14    15    1
     2    15    16    1
     3    15     4    1
     4     4     5   ar
     5     5     6   ar
     6     6     7   ar
     7     7     8   ar
     8     8     9   ar
     9     9     1    1
    10     1     2    2
    11     1     3   am
    12     3    26    1
    13    26    27    1
    14    27    28   ar
    15    28    29   ar
    16    29    30   ar
    17    30    31   ar
    18    31    33    1
    19    33    34    2
    20    33    35    1
    21    31    32   ar
    22     3    17    1
    23    17    18    1
    24    17    19    1
    25    19    20   ar
    26    20    21   ar
    27    21    22   ar
    28    22    23    1
    29    22    24   ar
    30    24    25   ar
    31     9    10   ar
    32    10    11   ar
    33    11    12   ar
    34    12    13   ar
    35    13     4   ar
    36    12     7   ar
    37    32    27   ar
    38    25    19   ar
    39    35    36    1
@<TRIPOS>MOLECULE
*****
 36 39 0 0 0
SMALL
GASTEIGER

@<TRIPOS>ATOM
      1 C         -23.7958   -7.4119  -14.1835 C.2     1  UNL1        0.2690
      2 O         -23.3236   -8.0492  -15.1649 O.2     1  UNL1       -0.2682
      3 N         -22.9545   -7.1683  -13.0185 N.am    1  UNL1       -0.2686
      4 C         -29.6002   -4.6802  -15.1406 C.ar    1  UNL1       -0.0210
      5 C         -28.6257   -3.9296  -15.8281 C.ar    1  UNL1       -0.0042
      6 C         -27.2793   -4.3041  -15.7889 C.ar    1  UNL1        0.0013
      7 C         -26.8872   -5.4354  -15.0621 C.ar    1  UNL1        0.0211
      8 C         -25.5499   -5.8372  -15.0039 C.ar    1  UNL1        0.0271
      9 C         -25.2089   -6.9853  -14.2776 C.ar    1  UNL1        0.1562
     10 N         -26.1865   -7.6622  -13.6187 N.ar    1  UNL1       -0.1434
     11 N         -27.4646   -7.2834  -13.6664 N.ar    1  UNL1       -0.1479
     12 C         -27.8528   -6.1904  -14.3723 C.ar    1  UNL1        0.1026
     13 C         -29.1995   -5.8148  -14.4115 C.ar    1  UNL1        0.0166
     14 C         -31.2636   -2.8604  -14.6390 C.3     1  UNL1        0.0047
     15 C         -31.0639   -4.2820  -15.1774 C.3     1  UNL1        0.0224
     16 C         -31.9301   -5.2890  -14.4117 C.3     1  UNL1        0.0047
     17 C         -23.4637   -6.6440  -11.7241 C.3     1  UNL1        0.0986
     18 C         -22.5915   -5.4847  -11.2046 C.3     1  UNL1        0.0264
     19 C         -23.7146   -7.7310  -10.6810 C.ar    1  UNL1       -0.0041
     20 C         -24.6669   -8.7358  -10.9463 C.ar    1  UNL1       -0.0004
     21 C         -24.8708   -9.7846  -10.0452 C.ar    1  UNL1        0.0294
     22 C         -24.1138   -9.8611   -8.8754 C.ar    1  UNL1        0.1401
     23 F         -24.3103  -10.8818   -8.0051 F       1  UNL1       -0.2042
     24 C         -23.1475   -8.8910   -8.6077 C.ar    1  UNL1        0.0294
     25 C         -22.9412   -7.8389   -9.5039 C.ar    1  UNL1       -0.0004
     26 C         -21.5311   -7.5599  -13.0833 C.3     1  UNL1        0.1207
     27 C         -21.3018   -8.8296  -12.3111 C.ar    1  UNL1       -0.0021
     28 C         -21.9961   -9.9984  -12.6538 C.ar    1  UNL1       -0.0026
     29 C         -21.7189  -11.1977  -11.9963 C.ar    1  UNL1       -0.0001
     30 C         -20.7433  -11.2427  -10.9979 C.ar    1  UNL1        0.0064
     31 C         -20.0375  -10.0813  -10.6364 C.ar    1  UNL1        0.0752
     32 C         -20.3220   -8.8765  -11.3050 C.ar    1  UNL1        0.0038
     33 C         -18.9865  -10.1484   -9.5922 C.2     1  UNL1        0.3380
     34 O         -18.2121  -11.1413   -9.5482 O.2     1  UNL1       -0.2451
     35 O         -18.8332   -9.1433   -8.6378 O.3     1  UNL1       -0.4771
     36 H         -19.4812   -8.3716   -8.5493 H       1  UNL1        0.2954
@<TRIPOS>BOND
     1    14    15    1
     2    15    16    1
     3    15     4    1
     4     4     5   ar
     5     5     6   ar
     6     6     7   ar
     7     7     8   ar
     8     8     9   ar
     9     9     1    1
    10     1     2    2
    11     1     3   am
    12     3    26    1
    13    26    27    1
    14    27    28   ar
    15    28    29   ar
    16    29    30   ar
    17    30    31   ar
    18    31    33    1
    19    33    34    2
    20    33    35    1
    21    31    32   ar
    22     3    17    1
    23    17    18    1
    24    17    19    1
    25    19    20   ar
    26    20    21   ar
    27    21    22   ar
    28    22    23    1
    29    22    24   ar
    30    24    25   ar
    31     9    10   ar
    32    10    11   ar
    33    11    12   ar
    34    12    13   ar
    35    13     4   ar
    36    12     7   ar
    37    32    27   ar
    38    25    19   ar
    39    35    36    1
@<TRIPOS>MOLECULE
*****
 36 39 0 0 0
SMALL
GASTEIGER

@<TRIPOS>ATOM
      1 C         -26.6156   -7.9200  -12.5883 C.2     1  UNL1        0.2690
      2 O         -27.3472   -8.5191  -11.7528 O.2     1  UNL1       -0.2682
      3 N         -25.1755   -8.1445  -12.5667 N.am    1  UNL1       -0.2686
      4 C         -28.5907   -3.3179  -16.7099 C.ar    1  UNL1       -0.0210
      5 C         -27.2075   -3.1658  -16.4877 C.ar    1  UNL1       -0.0042
      6 C         -26.5233   -4.0354  -15.6330 C.ar    1  UNL1        0.0013
      7 C         -27.2120   -5.0706  -14.9882 C.ar    1  UNL1        0.0211
      8 C         -26.5573   -5.9574  -14.1291 C.ar    1  UNL1        0.0271
      9 C         -27.2857   -6.9873  -13.5201 C.ar    1  UNL1        0.1562
     10 N         -28.6215   -7.0774  -13.7558 N.ar    1  UNL1       -0.1434
     11 N         -29.2545   -6.2330  -14.5717 N.ar    1  UNL1       -0.1479
     12 C         -28.5928   -5.2297  -15.2036 C.ar    1  UNL1        0.1026
     13 C         -29.2766   -4.3591  -16.0582 C.ar    1  UNL1        0.0166
     14 C         -30.8479   -2.6656  -17.6098 C.3     1  UNL1        0.0047
     15 C         -29.3419   -2.3794  -17.6359 C.3     1  UNL1        0.0224
     16 C         -28.7904   -2.4543  -19.0645 C.3     1  UNL1        0.0047
     17 C         -24.1984   -7.3281  -13.3338 C.3     1  UNL1        0.0986
     18 C         -23.4917   -8.1669  -14.4162 C.3     1  UNL1        0.0264
     19 C         -23.2344   -6.5392  -12.4502 C.ar    1  UNL1       -0.0041
     20 C         -21.8685   -6.8874  -12.4362 C.ar    1  UNL1       -0.0004
     21 C         -20.9475   -6.1428  -11.6940 C.ar    1  UNL1        0.0294
     22 C         -21.3690   -5.0260  -10.9711 C.ar    1  UNL1        0.1401
     23 F         -20.4730   -4.3027  -10.2556 F       1  UNL1       -0.2042
     24 C         -22.7121   -4.6493  -10.9937 C.ar    1  UNL1        0.0294
     25 C         -23.6376   -5.3917  -11.7320 C.ar    1  UNL1       -0.0004
     26 C         -24.6365   -9.1724  -11.6522 C.3     1  UNL1        0.1207
     27 C         -24.0968  -10.3378  -12.4342 C.ar    1  UNL1       -0.0021
     28 C         -22.7382  -10.6742  -12.3510 C.ar    1  UNL1       -0.0026
     29 C         -22.2545  -11.8078  -13.0054 C.ar    1  UNL1       -0.0001
     30 C         -23.1218  -12.6182  -13.7414 C.ar    1  UNL1        0.0064
     31 C         -24.4874  -12.2972  -13.8406 C.ar    1  UNL1        0.0752
     32 C         -24.9673  -11.1533  -13.1767 C.ar    1  UNL1        0.0038
     33 C         -25.4021  -13.1802  -14.6044 C.2     1  UNL1        0.3380
     34 O         -25.1285  -13.4813  -15.7968 O.2     1  UNL1       -0.2451
     35 O         -26.5756  -13.6837  -14.0442 O.3     1  UNL1       -0.4771
     36 H         -26.9094  -13.4018  -13.1319 H       1  UNL1        0.2954
@<TRIPOS>BOND
     1    14    15    1
     2    15    16    1
     3    15     4    1
     4     4     5   ar
     5     5     6   ar
     6     6     7   ar
     7     7     8   ar
     8     8     9   ar
     9     9     1    1
    10     1     2    2
    11     1     3   am
    12     3    26    1
    13    26    27    1
    14    27    28   ar
    15    28    29   ar
    16    29    30   ar
    17    30    31   ar
    18    31    33    1
    19    33    34    2
    20    33    35    1
    21    31    32   ar
    22     3    17    1
    23    17    18    1
    24    17    19    1
    25    19    20   ar
    26    20    21   ar
    27    21    22   ar
    28    22    23    1
    29    22    24   ar
    30    24    25   ar
    31     9    10   ar
    32    10    11   ar
    33    11    12   ar
    34    12    13   ar
    35    13     4   ar
    36    12     7   ar
    37    32    27   ar
    38    25    19   ar
    39    35    36    1
@<TRIPOS>MOLECULE
*****
 36 39 0 0 0
SMALL
GASTEIGER

@<TRIPOS>ATOM
      1 C         -24.1407   -9.6531  -12.3535 C.2     1  UNL1        0.2690
      2 O         -24.6659  -10.3475  -11.4402 O.2     1  UNL1       -0.2682
      3 N         -22.8152  -10.0062  -12.8465 N.am    1  UNL1       -0.2686
      4 C         -28.3181   -5.2596  -14.6589 C.ar    1  UNL1       -0.0210
      5 C         -28.9718   -6.5047  -14.5688 C.ar    1  UNL1       -0.0042
      6 C         -28.2939   -7.6327  -14.0969 C.ar    1  UNL1        0.0013
      7 C         -26.9522   -7.5324  -13.7074 C.ar    1  UNL1        0.0211
      8 C         -26.2468   -8.6405  -13.2303 C.ar    1  UNL1        0.0271
      9 C         -24.9111   -8.4869  -12.8371 C.ar    1  UNL1        0.1562
     10 N         -24.3243   -7.2670  -12.9614 N.ar    1  UNL1       -0.1434
     11 N         -24.9896   -6.2052  -13.4190 N.ar    1  UNL1       -0.1479
     12 C         -26.2915   -6.2938  -13.7944 C.ar    1  UNL1        0.1026
     13 C         -26.9701   -5.1660  -14.2671 C.ar    1  UNL1        0.0166
     14 C         -30.5535   -4.2843  -15.2770 C.3     1  UNL1        0.0047
     15 C         -29.0455   -4.0296  -15.1693 C.3     1  UNL1        0.0224
     16 C         -28.4674   -3.5626  -16.5104 C.3     1  UNL1        0.0047
     17 C         -22.0051   -9.1369  -13.7397 C.3     1  UNL1        0.0986
     18 C         -21.6788   -7.7890  -13.0679 C.3     1  UNL1        0.0264
     19 C         -22.5885   -8.9911  -15.1436 C.ar    1  UNL1       -0.0041
     20 C         -22.7052   -7.7068  -15.7127 C.ar    1  UNL1       -0.0004
     21 C         -23.1685   -7.5431  -17.0212 C.ar    1  UNL1        0.0294
     22 C         -23.5026   -8.6579  -17.7913 C.ar    1  UNL1        0.1401
     23 F         -23.9476   -8.4968  -19.0617 F       1  UNL1       -0.2042
     24 C         -23.3686   -9.9389  -17.2552 C.ar    1  UNL1        0.0294
     25 C         -22.9082  -10.1082  -15.9467 C.ar    1  UNL1       -0.0004
     26 C         -22.1879  -11.2494  -12.3521 C.3     1  UNL1        0.1207
     27 C         -22.2864  -12.3337  -13.3892 C.ar    1  UNL1       -0.0021
     28 C         -21.1249  -12.9434  -13.8841 C.ar    1  UNL1       -0.0026
     29 C         -21.2189  -14.0096  -14.7795 C.ar    1  UNL1       -0.0001
     30 C         -22.4705  -14.4805  -15.1827 C.ar    1  UNL1        0.0064
     31 C         -23.6480  -13.8812  -14.7010 C.ar    1  UNL1        0.0752
     32 C         -23.5445  -12.8077  -13.7975 C.ar    1  UNL1        0.0038
     33 C         -24.9706  -14.4074  -15.1175 C.2     1  UNL1        0.3380
     34 O         -25.9982  -14.1129  -14.4508 O.2     1  UNL1       -0.2451
     35 O         -25.1146  -15.2379  -16.2285 O.3     1  UNL1       -0.4771
     36 H         -24.3240  -15.5976  -16.7469 H       1  UNL1        0.2954
@<TRIPOS>BOND
     1    14    15    1
     2    15    16    1
     3    15     4    1
     4     4     5   ar
     5     5     6   ar
     6     6     7   ar
     7     7     8   ar
     8     8     9   ar
     9     9     1    1
    10     1     2    2
    11     1     3   am
    12     3    26    1
    13    26    27    1
    14    27    28   ar
    15    28    29   ar
    16    29    30   ar
    17    30    31   ar
    18    31    33    1
    19    33    34    2
    20    33    35    1
    21    31    32   ar
    22     3    17    1
    23    17    18    1
    24    17    19    1
    25    19    20   ar
    26    20    21   ar
    27    21    22   ar
    28    22    23    1
    29    22    24   ar
    30    24    25   ar
    31     9    10   ar
    32    10    11   ar
    33    11    12   ar
    34    12    13   ar
    35    13     4   ar
    36    12     7   ar
    37    32    27   ar
    38    25    19   ar
    39    35    36    1
@<TRIPOS>MOLECULE
*****
 36 39 0 0 0
SMALL
GASTEIGER

@<TRIPOS>ATOM
      1 C         -22.6310   -8.7940  -14.3668 C.2     1  UNL1        0.2690
      2 O         -21.3931   -8.5677  -14.2745 O.2     1  UNL1       -0.2682
      3 N         -23.1677  -10.0490  -13.8556 N.am    1  UNL1       -0.2686
      4 C         -26.8518   -4.3062  -16.3951 C.ar    1  UNL1       -0.0210
      5 C         -27.1611   -4.6527  -15.0646 C.ar    1  UNL1       -0.0042
      6 C         -26.4000   -5.6058  -14.3813 C.ar    1  UNL1        0.0013
      7 C         -25.3176   -6.2263  -15.0179 C.ar    1  UNL1        0.0211
      8 C         -24.5364   -7.1818  -14.3623 C.ar    1  UNL1        0.0271
      9 C         -23.4539   -7.7626  -15.0352 C.ar    1  UNL1        0.1562
     10 N         -23.2108   -7.4045  -16.3240 N.ar    1  UNL1       -0.1434
     11 N         -23.9538   -6.4960  -16.9579 N.ar    1  UNL1       -0.1479
     12 C         -25.0018   -5.8872  -16.3459 C.ar    1  UNL1        0.1026
     13 C         -25.7640   -4.9341  -17.0290 C.ar    1  UNL1        0.0166
     14 C         -29.1338   -3.2868  -16.6839 C.3     1  UNL1        0.0047
     15 C         -27.6716   -3.2727  -17.1449 C.3     1  UNL1        0.0224
     16 C         -27.5687   -3.4795  -18.6606 C.3     1  UNL1        0.0047
     17 C         -24.5515  -10.5254  -14.1163 C.3     1  UNL1        0.0986
     18 C         -25.4419  -10.3773  -12.8673 C.3     1  UNL1        0.0264
     19 C         -24.6106  -11.9166  -14.7437 C.ar    1  UNL1       -0.0041
     20 C         -25.2801  -12.9533  -14.0625 C.ar    1  UNL1       -0.0004
     21 C         -25.4141  -14.2192  -14.6395 C.ar    1  UNL1        0.0294
     22 C         -24.9023  -14.4666  -15.9140 C.ar    1  UNL1        0.1401
     23 F         -25.0374  -15.6941  -16.4734 F       1  UNL1       -0.2042
     24 C         -24.2598  -13.4460  -16.6155 C.ar    1  UNL1        0.0294
     25 C         -24.1208  -12.1792  -16.0423 C.ar    1  UNL1       -0.0004
     26 C         -22.2605  -10.9566  -13.1231 C.3     1  UNL1        0.1207
     27 C         -21.9407  -10.3941  -11.7658 C.ar    1  UNL1       -0.0021
     28 C         -20.6074  -10.1864  -11.3850 C.ar    1  UNL1       -0.0026
     29 C         -20.3128   -9.5823  -10.1621 C.ar    1  UNL1       -0.0001
     30 C         -21.3441   -9.1743   -9.3132 C.ar    1  UNL1        0.0064
     31 C         -22.6882   -9.3761   -9.6743 C.ar    1  UNL1        0.0752
     32 C         -22.9767   -9.9847  -10.9095 C.ar    1  UNL1        0.0038
     33 C         -23.7738   -8.9153   -8.7750 C.2     1  UNL1        0.3380
     34 O         -24.9742   -9.1621   -9.0674 O.2     1  UNL1       -0.2451
     35 O         -23.5078   -8.1979   -7.6091 O.3     1  UNL1       -0.4771
     36 H         -22.5800   -7.8761   -7.3663 H       1  UNL1        0.2954
@<TRIPOS>BOND
     1    14    15    1
     2    15    16    1
     3    15     4    1
     4     4     5   ar
     5     5     6   ar
     6     6     7   ar
     7     7     8   ar
     8     8     9   ar
     9     9     1    1
    10     1     2    2
    11     1     3   am
    12     3    26    1
    13    26    27    1
    14    27    28   ar
    15    28    29   ar
    16    29    30   ar
    17    30    31   ar
    18    31    33    1
    19    33    34    2
    20    33    35    1
    21    31    32   ar
    22     3    17    1
    23    17    18    1
    24    17    19    1
    25    19    20   ar
    26    20    21   ar
    27    21    22   ar
    28    22    23    1
    29    22    24   ar
    30    24    25   ar
    31     9    10   ar
    32    10    11   ar
    33    11    12   ar
    34    12    13   ar
    35    13     4   ar
    36    12     7   ar
    37    32    27   ar
    38    25    19   ar
    39    35    36    1
@<TRIPOS>MOLECULE
*****
 36 39 0 0 0
SMALL
GASTEIGER

@<TRIPOS>ATOM
      1 C         -20.3585   -8.6019  -11.6529 C.2     1  UNL1        0.2690
      2 O         -19.3127   -7.9291  -11.8666 O.2     1  UNL1       -0.2682
      3 N         -20.2733   -9.8221  -10.8602 N.am    1  UNL1       -0.2686
      4 C         -25.9530   -5.8507  -13.4423 C.ar    1  UNL1       -0.0210
      5 C         -25.5298   -5.2724  -12.2289 C.ar    1  UNL1       -0.0042
      6 C         -24.3424   -5.6867  -11.6182 C.ar    1  UNL1        0.0013
      7 C         -23.5598   -6.6851  -12.2121 C.ar    1  UNL1        0.0211
      8 C         -22.3672   -7.1206  -11.6279 C.ar    1  UNL1        0.0271
      9 C         -21.6104   -8.1102  -12.2682 C.ar    1  UNL1        0.1562
     10 N         -22.0741   -8.6463  -13.4282 N.ar    1  UNL1       -0.1434
     11 N         -23.2130   -8.2387  -13.9904 N.ar    1  UNL1       -0.1479
     12 C         -23.9746   -7.2684  -13.4228 C.ar    1  UNL1        0.1026
     13 C         -25.1629   -6.8539  -14.0329 C.ar    1  UNL1        0.0166
     14 C         -28.2221   -6.5767  -14.2514 C.3     1  UNL1        0.0047
     15 C         -27.2400   -5.4075  -14.1129 C.3     1  UNL1        0.0224
     16 C         -26.9591   -4.7585  -15.4733 C.3     1  UNL1        0.0047
     17 C         -21.3767  -10.8110  -10.7408 C.3     1  UNL1        0.0986
     18 C         -21.4510  -11.7231  -11.9806 C.3     1  UNL1        0.0264
     19 C         -22.7186  -10.1866  -10.3640 C.ar    1  UNL1       -0.0041
     20 C         -23.8294  -10.3741  -11.2113 C.ar    1  UNL1       -0.0004
     21 C         -25.0881   -9.8767  -10.8620 C.ar    1  UNL1        0.0294
     22 C         -25.2650   -9.2034   -9.6526 C.ar    1  UNL1        0.1401
     23 F         -26.4878   -8.7258   -9.3140 F       1  UNL1       -0.2042
     24 C         -24.1837   -9.0310   -8.7880 C.ar    1  UNL1        0.0294
     25 C         -22.9226   -9.5240   -9.1333 C.ar    1  UNL1       -0.0004
     26 C         -18.9847  -10.1571  -10.2193 C.3     1  UNL1        0.1207
     27 C         -18.9302   -9.5929   -8.8266 C.ar    1  UNL1       -0.0021
     28 C         -19.7104   -8.4789   -8.4862 C.ar    1  UNL1       -0.0026
     29 C         -19.7281   -8.0096   -7.1722 C.ar    1  UNL1       -0.0001
     30 C         -18.9744   -8.6509   -6.1866 C.ar    1  UNL1        0.0064
     31 C         -18.1824   -9.7678   -6.5072 C.ar    1  UNL1        0.0752
     32 C         -18.1711  -10.2355   -7.8341 C.ar    1  UNL1        0.0038
     33 C         -17.4067  -10.4547   -5.4460 C.2     1  UNL1        0.3380
     34 O         -17.9434  -10.6847   -4.3295 O.2     1  UNL1       -0.2451
     35 O         -16.0830  -10.8477   -5.6406 O.3     1  UNL1       -0.4771
     36 H         -15.5581  -10.6047   -6.4705 H       1  UNL1        0.2954
@<TRIPOS>BOND
     1    14    15    1
     2    15    16    1
     3    15     4    1
     4     4     5   ar
     5     5     6   ar
     6     6     7   ar
     7     7     8   ar
     8     8     9   ar
     9     9     1    1
    10     1     2    2
    11     1     3   am
    12     3    26    1
    13    26    27    1
    14    27    28   ar
    15    28    29   ar
    16    29    30   ar
    17    30    31   ar
    18    31    33    1
    19    33    34    2
    20    33    35    1
    21    31    32   ar
    22     3    17    1
    23    17    18    1
    24    17    19    1
    25    19    20   ar
    26    20    21   ar
    27    21    22   ar
    28    22    23    1
    29    22    24   ar
    30    24    25   ar
    31     9    10   ar
    32    10    11   ar
    33    11    12   ar
    34    12    13   ar
    35    13     4   ar
    36    12     7   ar
    37    32    27   ar
    38    25    19   ar
    39    35    36    1
