@<TRIPOS>MOLECULE
*****
 45 50 0 0 0
SMALL
GASTEIGER

@<TRIPOS>ATOM
      1 C          11.8364   80.4102   25.0928 C.ar    1  UNL1        0.0702
      2 C          13.2371   80.3635   25.0157 C.ar    1  UNL1        0.0191
      3 C          13.9625   81.5193   24.7223 C.ar    1  UNL1        0.0356
      4 C          13.2842   82.7345   24.5246 C.ar    1  UNL1        0.1318
      5 N          11.9247   82.7538   24.6121 N.ar    1  UNL1       -0.2279
      6 C          11.1981   81.6409   24.8958 C.ar    1  UNL1        0.1149
      7 N          13.9932   83.9509   24.2078 N.pl3   1  UNL1       -0.2932
      8 C          13.9331   85.1167   25.1068 C.3     1  UNL1        0.0923
      9 C          13.9244   86.4599   24.3449 C.3     1  UNL1        0.0252
     10 C          14.5272   86.3924   22.9227 C.3     1  UNL1        0.0472
     11 C          15.5918   85.2902   22.8449 C.3     1  UNL1        0.0252
     12 C          14.9298   83.9283   23.0726 C.3     1  UNL1        0.0923
     13 C          15.1040   87.7479   22.4683 C.3     1  UNL1        0.2054
     14 O          15.0123   87.8894   21.0481 O.3     1  UNL1       -0.4755
     15 C          14.4418   86.9710   20.1511 C.ar    1  UNL1        0.1388
     16 C          13.1118   87.0639   19.6993 C.ar    1  UNL1        0.0369
     17 C          12.6049   86.1160   18.8080 C.ar    1  UNL1        0.0033
     18 C          13.4146   85.0748   18.3507 C.ar    1  UNL1        0.0066
     19 C          14.7495   84.9737   18.7780 C.ar    1  UNL1        0.0785
     20 C          15.2526   85.9321   19.6755 C.ar    1  UNL1        0.0433
     21 C          15.6158   83.8764   18.2933 C.2     1  UNL1        0.3381
     22 O          15.9343   83.8046   17.0754 O.2     1  UNL1       -0.2451
     23 O          16.0880   82.9110   19.1790 O.3     1  UNL1       -0.4771
     24 H          16.6815   82.1556   18.8574 H       1  UNL1        0.2954
     25 C          11.4966   78.2142   26.3119 C.2     1  UNL1        0.2839
     26 O          12.7289   78.0107   26.4815 O.2     1  UNL1       -0.2665
     27 N          11.0565   79.2464   25.4168 N.am    1  UNL1       -0.2766
     28 H          10.1683   79.0879   24.8905 H       1  UNL1        0.1553
     29 C           7.3205   74.7205   28.8576 C.ar    1  UNL1        0.0002
     30 C           8.4966   74.1538   29.4197 C.ar    1  UNL1        0.0031
     31 C           9.7664   74.6676   29.1034 C.ar    1  UNL1        0.0375
     32 C           9.8349   75.7446   28.2265 C.ar    1  UNL1        0.1452
     33 O          10.9114   76.3630   27.8064 O.2     1  UNL1       -0.4492
     34 C          10.5326   77.3229   26.9808 C.ar    1  UNL1        0.1946
     35 C           9.1358   77.3422   26.8782 C.ar    1  UNL1        0.0202
     36 C           8.2710   78.2749   26.0850 C.3     1  UNL1        0.0345
     37 C           8.7109   76.3012   27.6794 C.ar    1  UNL1        0.0337
     38 C           7.4351   75.8173   27.9699 C.ar    1  UNL1        0.0028
     39 C           3.8345   71.1305   28.3580 C.3     1  UNL1        0.0310
     40 C           4.2962   72.4175   28.9754 C.ar    1  UNL1       -0.0218
     41 C           3.4477   73.1340   29.8313 C.ar    1  UNL1       -0.0043
     42 C           3.8658   74.3478   30.3801 C.ar    1  UNL1       -0.0003
     43 C           5.1267   74.8625   30.0696 C.ar    1  UNL1       -0.0000
     44 C           5.9847   74.1684   29.1977 C.ar    1  UNL1       -0.0003
     45 C           5.5555   72.9452   28.6492 C.ar    1  UNL1       -0.0043
@<TRIPOS>BOND
     1    39    40    1
     2    40    41   ar
     3    41    42   ar
     4    42    43   ar
     5    43    44   ar
     6    44    29    1
     7    29    30   ar
     8    30    31   ar
     9    31    32   ar
    10    32    33   ar
    11    33    34   ar
    12    34    25    1
    13    25    26    2
    14    25    27   am
    15    27     1    1
    16     1     2   ar
    17     2     3   ar
    18     3     4   ar
    19     4     7    1
    20     7     8    1
    21     8     9    1
    22     9    10    1
    23    10    13    1
    24    13    14    1
    25    14    15    1
    26    15    16   ar
    27    16    17   ar
    28    17    18   ar
    29    18    19   ar
    30    19    21    1
    31    21    22    2
    32    21    23    1
    33    19    20   ar
    34    10    11    1
    35    11    12    1
    36     4     5   ar
    37     5     6   ar
    38    34    35   ar
    39    35    36    1
    40    35    37   ar
    41    37    38   ar
    42    44    45   ar
    43    45    40   ar
    44    38    29   ar
    45    37    32   ar
    46     6     1   ar
    47    12     7    1
    48    20    15   ar
    49    27    28    1
    50    23    24    1
@<TRIPOS>MOLECULE
*****
 45 50 0 0 0
SMALL
GASTEIGER

@<TRIPOS>ATOM
      1 C          11.9972   80.9245   25.4176 C.ar    1  UNL1        0.0702
      2 C          13.4003   80.9320   25.3857 C.ar    1  UNL1        0.0191
      3 C          14.0859   82.0633   24.9402 C.ar    1  UNL1        0.0356
      4 C          13.3641   83.2021   24.5429 C.ar    1  UNL1        0.1318
      5 N          12.0028   83.1710   24.5902 N.ar    1  UNL1       -0.2279
      6 C          11.3146   82.0806   25.0196 C.ar    1  UNL1        0.1149
      7 N          14.0315   84.3889   24.0646 N.pl3   1  UNL1       -0.2932
      8 C          14.0308   85.6289   24.8603 C.3     1  UNL1        0.0923
      9 C          13.9456   86.9000   23.9874 C.3     1  UNL1        0.0252
     10 C          14.4327   86.7102   22.5322 C.3     1  UNL1        0.0472
     11 C          15.4999   85.6100   22.4647 C.3     1  UNL1        0.0252
     12 C          14.8739   84.2705   22.8634 C.3     1  UNL1        0.0923
     13 C          14.9556   88.0229   21.9160 C.3     1  UNL1        0.2054
     14 O          14.8482   87.9938   20.4901 O.3     1  UNL1       -0.4755
     15 C          14.3920   86.9201   19.7075 C.ar    1  UNL1        0.1388
     16 C          13.0270   86.6581   19.4842 C.ar    1  UNL1        0.0369
     17 C          12.6399   85.5719   18.6968 C.ar    1  UNL1        0.0033
     18 C          13.6022   84.7431   18.1172 C.ar    1  UNL1        0.0066
     19 C          14.9700   84.9972   18.3155 C.ar    1  UNL1        0.0785
     20 C          15.3518   86.0929   19.1096 C.ar    1  UNL1        0.0433
     21 C          15.9961   84.1269   17.6997 C.2     1  UNL1        0.3381
     22 O          16.5913   83.2549   18.3892 O.2     1  UNL1       -0.2451
     23 O          16.3148   84.2631   16.3509 O.3     1  UNL1       -0.4771
     24 H          17.0159   83.6725   15.9197 H       1  UNL1        0.2954
     25 C          10.2488   79.8604   26.9126 C.2     1  UNL1        0.2839
     26 O          10.2862   80.7832   27.7703 O.2     1  UNL1       -0.2665
     27 N          11.2565   79.7873   25.8930 N.am    1  UNL1       -0.2766
     28 H          11.5410   78.8401   25.5572 H       1  UNL1        0.1553
     29 C           6.0780   75.6095   27.7250 C.ar    1  UNL1        0.0002
     30 C           5.8152   75.9620   26.3733 C.ar    1  UNL1        0.0031
     31 C           6.5752   76.9517   25.7257 C.ar    1  UNL1        0.0375
     32 C           7.5892   77.5722   26.4471 C.ar    1  UNL1        0.1452
     33 O           8.4029   78.5117   26.0313 O.2     1  UNL1       -0.4492
     34 C           9.2080   78.8241   27.0316 C.ar    1  UNL1        0.1946
     35 C           8.9156   78.0294   28.1473 C.ar    1  UNL1        0.0202
     36 C           9.5897   78.0158   29.4861 C.3     1  UNL1        0.0345
     37 C           7.8544   77.2415   27.7482 C.ar    1  UNL1        0.0337
     38 C           7.1207   76.2653   28.4226 C.ar    1  UNL1        0.0028
     39 C           4.5435   70.8325   28.0657 C.3     1  UNL1        0.0310
     40 C           4.5348   72.2409   28.5826 C.ar    1  UNL1       -0.0218
     41 C           3.7187   72.5893   29.6682 C.ar    1  UNL1       -0.0043
     42 C           3.6867   73.9071   30.1283 C.ar    1  UNL1       -0.0003
     43 C           4.4574   74.8893   29.5019 C.ar    1  UNL1       -0.0000
     44 C           5.2676   74.5638   28.3991 C.ar    1  UNL1       -0.0003
     45 C           5.2942   73.2327   27.9420 C.ar    1  UNL1       -0.0043
@<TRIPOS>BOND
     1    39    40    1
     2    40    41   ar
     3    41    42   ar
     4    42    43   ar
     5    43    44   ar
     6    44    29    1
     7    29    30   ar
     8    30    31   ar
     9    31    32   ar
    10    32    33   ar
    11    33    34   ar
    12    34    25    1
    13    25    26    2
    14    25    27   am
    15    27     1    1
    16     1     2   ar
    17     2     3   ar
    18     3     4   ar
    19     4     7    1
    20     7     8    1
    21     8     9    1
    22     9    10    1
    23    10    13    1
    24    13    14    1
    25    14    15    1
    26    15    16   ar
    27    16    17   ar
    28    17    18   ar
    29    18    19   ar
    30    19    21    1
    31    21    22    2
    32    21    23    1
    33    19    20   ar
    34    10    11    1
    35    11    12    1
    36     4     5   ar
    37     5     6   ar
    38    34    35   ar
    39    35    36    1
    40    35    37   ar
    41    37    38   ar
    42    44    45   ar
    43    45    40   ar
    44    38    29   ar
    45    37    32   ar
    46     6     1   ar
    47    12     7    1
    48    20    15   ar
    49    27    28    1
    50    23    24    1
@<TRIPOS>MOLECULE
*****
 45 50 0 0 0
SMALL
GASTEIGER

@<TRIPOS>ATOM
      1 C          11.9674   80.9932   25.2377 C.ar    1  UNL1        0.0702
      2 C          13.3688   81.0504   25.2887 C.ar    1  UNL1        0.0191
      3 C          14.0424   82.1795   24.8198 C.ar    1  UNL1        0.0356
      4 C          13.3087   83.2671   24.3151 C.ar    1  UNL1        0.1318
      5 N          11.9490   83.1887   24.2834 N.ar    1  UNL1       -0.2279
      6 C          11.2724   82.0995   24.7337 C.ar    1  UNL1        0.1149
      7 N          13.9643   84.4491   23.8093 N.pl3   1  UNL1       -0.2932
      8 C          14.0637   85.6682   24.6306 C.3     1  UNL1        0.0923
      9 C          13.9384   86.9626   23.7977 C.3     1  UNL1        0.0252
     10 C          14.2955   86.7979   22.3024 C.3     1  UNL1        0.0472
     11 C          15.3237   85.6741   22.1188 C.3     1  UNL1        0.0252
     12 C          14.6986   84.3407   22.5382 C.3     1  UNL1        0.0923
     13 C          14.7988   88.1127   21.6744 C.3     1  UNL1        0.2054
     14 O          16.1588   87.9860   21.2503 O.3     1  UNL1       -0.4755
     15 C          17.2984   88.3979   21.9609 C.ar    1  UNL1        0.1388
     16 C          18.4529   88.9039   21.3341 C.ar    1  UNL1        0.0369
     17 C          19.5537   89.2944   22.0993 C.ar    1  UNL1        0.0033
     18 C          19.5152   89.1954   23.4913 C.ar    1  UNL1        0.0066
     19 C          18.3662   88.7073   24.1366 C.ar    1  UNL1        0.0785
     20 C          17.2619   88.3161   23.3591 C.ar    1  UNL1        0.0433
     21 C          18.3155   88.6048   25.6118 C.2     1  UNL1        0.3381
     22 O          17.2084   88.6181   26.2153 O.2     1  UNL1       -0.2451
     23 O          19.4918   88.4928   26.3488 O.3     1  UNL1       -0.4771
     24 H          19.4681   88.4222   27.3592 H       1  UNL1        0.2954
     25 C          10.2392   79.9378   26.7621 C.2     1  UNL1        0.2839
     26 O          10.2804   80.8706   27.6088 O.2     1  UNL1       -0.2665
     27 N          11.2372   79.8579   25.7335 N.am    1  UNL1       -0.2766
     28 H          11.5232   78.9084   25.4057 H       1  UNL1        0.1553
     29 C           6.1026   75.6713   27.6632 C.ar    1  UNL1        0.0002
     30 C           5.8071   76.0256   26.3188 C.ar    1  UNL1        0.0031
     31 C           6.5485   77.0191   25.6556 C.ar    1  UNL1        0.0375
     32 C           7.5771   77.6416   26.3543 C.ar    1  UNL1        0.1452
     33 O           8.3777   78.5846   25.9215 O.2     1  UNL1       -0.4492
     34 C           9.2049   78.8978   26.9034 C.ar    1  UNL1        0.1946
     35 C           8.9413   78.0999   28.0240 C.ar    1  UNL1        0.0202
     36 C           9.6466   78.0859   29.3466 C.3     1  UNL1        0.0345
     37 C           7.8737   77.3093   27.6482 C.ar    1  UNL1        0.0337
     38 C           7.1592   76.3292   28.3376 C.ar    1  UNL1        0.0028
     39 C           4.6386   70.8770   28.0655 C.3     1  UNL1        0.0310
     40 C           4.6133   72.2906   28.5674 C.ar    1  UNL1       -0.0218
     41 C           3.7995   72.6392   29.6547 C.ar    1  UNL1       -0.0043
     42 C           3.7518   73.9613   30.1008 C.ar    1  UNL1       -0.0003
     43 C           4.5043   74.9475   29.4586 C.ar    1  UNL1       -0.0000
     44 C           5.3116   74.6216   28.3540 C.ar    1  UNL1       -0.0003
     45 C           5.3542   73.2861   27.9110 C.ar    1  UNL1       -0.0043
@<TRIPOS>BOND
     1    39    40    1
     2    40    41   ar
     3    41    42   ar
     4    42    43   ar
     5    43    44   ar
     6    44    29    1
     7    29    30   ar
     8    30    31   ar
     9    31    32   ar
    10    32    33   ar
    11    33    34   ar
    12    34    25    1
    13    25    26    2
    14    25    27   am
    15    27     1    1
    16     1     2   ar
    17     2     3   ar
    18     3     4   ar
    19     4     7    1
    20     7     8    1
    21     8     9    1
    22     9    10    1
    23    10    13    1
    24    13    14    1
    25    14    15    1
    26    15    16   ar
    27    16    17   ar
    28    17    18   ar
    29    18    19   ar
    30    19    21    1
    31    21    22    2
    32    21    23    1
    33    19    20   ar
    34    10    11    1
    35    11    12    1
    36     4     5   ar
    37     5     6   ar
    38    34    35   ar
    39    35    36    1
    40    35    37   ar
    41    37    38   ar
    42    44    45   ar
    43    45    40   ar
    44    38    29   ar
    45    37    32   ar
    46     6     1   ar
    47    12     7    1
    48    20    15   ar
    49    27    28    1
    50    23    24    1
@<TRIPOS>MOLECULE
*****
 45 50 0 0 0
SMALL
GASTEIGER

@<TRIPOS>ATOM
      1 C           9.7908   79.8512   24.3582 C.ar    1  UNL1        0.0702
      2 C           9.2906   78.9660   25.3257 C.ar    1  UNL1        0.0191
      3 C           8.6196   77.8060   24.9351 C.ar    1  UNL1        0.0356
      4 C           8.4655   77.5189   23.5677 C.ar    1  UNL1        0.1318
      5 N           8.9668   78.3913   22.6491 N.ar    1  UNL1       -0.2279
      6 C           9.6226   79.5267   23.0064 C.ar    1  UNL1        0.1149
      7 N           7.7687   76.3373   23.1192 N.pl3   1  UNL1       -0.2932
      8 C           8.4970   75.2272   22.4805 C.3     1  UNL1        0.0923
      9 C           7.6873   74.5509   21.3527 C.3     1  UNL1        0.0252
     10 C           6.1565   74.7378   21.4640 C.3     1  UNL1        0.0472
     11 C           5.7428   74.8994   22.9325 C.3     1  UNL1        0.0252
     12 C           6.3529   76.1872   23.4930 C.3     1  UNL1        0.0923
     13 C           5.3780   73.5870   20.7961 C.3     1  UNL1        0.2054
     14 O           4.9737   73.9474   19.4724 O.3     1  UNL1       -0.4755
     15 C           4.2246   75.0776   19.1051 C.ar    1  UNL1        0.1388
     16 C           2.8195   75.0725   19.0186 C.ar    1  UNL1        0.0369
     17 C           2.1346   76.2307   18.6453 C.ar    1  UNL1        0.0033
     18 C           2.8359   77.4046   18.3643 C.ar    1  UNL1        0.0066
     19 C           4.2376   77.4340   18.4600 C.ar    1  UNL1        0.0785
     20 C           4.9201   76.2638   18.8366 C.ar    1  UNL1        0.0433
     21 C           4.9878   78.6759   18.1695 C.2     1  UNL1        0.3381
     22 O           6.1992   78.7831   18.5026 O.2     1  UNL1       -0.2451
     23 O           4.3619   79.7398   17.5247 O.3     1  UNL1       -0.4771
     24 H           4.8663   80.5945   17.3214 H       1  UNL1        0.2954
     25 C          11.9336   81.0987   24.8838 C.2     1  UNL1        0.2839
     26 O          12.5734   80.0578   25.1933 O.2     1  UNL1       -0.2665
     27 N          10.5085   81.0432   24.7213 N.am    1  UNL1       -0.2766
     28 H           9.9552   81.8883   24.9869 H       1  UNL1        0.1553
     29 C          15.0272   86.2506   24.7630 C.ar    1  UNL1        0.0002
     30 C          14.5628   86.2066   23.4203 C.ar    1  UNL1        0.0031
     31 C          13.7632   85.1421   22.9687 C.ar    1  UNL1        0.0375
     32 C          13.4418   84.1372   23.8745 C.ar    1  UNL1        0.1452
     33 O          12.7167   83.0679   23.6542 O.2     1  UNL1       -0.4492
     34 C          12.6640   82.3741   24.7777 C.ar    1  UNL1        0.1946
     35 C          13.3734   83.0401   25.7852 C.ar    1  UNL1        0.0202
     36 C          13.5553   82.6412   27.2186 C.3     1  UNL1        0.0345
     37 C          13.8804   84.1676   25.1703 C.ar    1  UNL1        0.0337
     38 C          14.6755   85.2073   25.6529 C.ar    1  UNL1        0.0028
     39 C          19.0061   89.2612   24.1345 C.3     1  UNL1        0.0310
     40 C          17.7915   88.8581   24.9175 C.ar    1  UNL1       -0.0218
     41 C          17.4805   89.5064   26.1212 C.ar    1  UNL1       -0.0043
     42 C          16.3682   89.1092   26.8658 C.ar    1  UNL1       -0.0003
     43 C          15.5659   88.0550   26.4231 C.ar    1  UNL1       -0.0000
     44 C          15.8725   87.3792   25.2283 C.ar    1  UNL1       -0.0003
     45 C          16.9954   87.7863   24.4835 C.ar    1  UNL1       -0.0043
@<TRIPOS>BOND
     1    39    40    1
     2    40    41   ar
     3    41    42   ar
     4    42    43   ar
     5    43    44   ar
     6    44    29    1
     7    29    30   ar
     8    30    31   ar
     9    31    32   ar
    10    32    33   ar
    11    33    34   ar
    12    34    25    1
    13    25    26    2
    14    25    27   am
    15    27     1    1
    16     1     2   ar
    17     2     3   ar
    18     3     4   ar
    19     4     7    1
    20     7     8    1
    21     8     9    1
    22     9    10    1
    23    10    13    1
    24    13    14    1
    25    14    15    1
    26    15    16   ar
    27    16    17   ar
    28    17    18   ar
    29    18    19   ar
    30    19    21    1
    31    21    22    2
    32    21    23    1
    33    19    20   ar
    34    10    11    1
    35    11    12    1
    36     4     5   ar
    37     5     6   ar
    38    34    35   ar
    39    35    36    1
    40    35    37   ar
    41    37    38   ar
    42    44    45   ar
    43    45    40   ar
    44    38    29   ar
    45    37    32   ar
    46     6     1   ar
    47    12     7    1
    48    20    15   ar
    49    27    28    1
    50    23    24    1
@<TRIPOS>MOLECULE
*****
 45 50 0 0 0
SMALL
GASTEIGER

@<TRIPOS>ATOM
      1 C           9.9733   79.7841   24.1424 C.ar    1  UNL1        0.0702
      2 C           9.5889   79.8049   22.7927 C.ar    1  UNL1        0.0191
      3 C           8.8413   78.7534   22.2599 C.ar    1  UNL1        0.0356
      4 C           8.4580   77.6837   23.0873 C.ar    1  UNL1        0.1318
      5 N           8.8382   77.6915   24.3955 N.ar    1  UNL1       -0.2279
      6 C           9.5666   78.7039   24.9353 C.ar    1  UNL1        0.1149
      7 N           7.6951   76.5706   22.5757 N.pl3   1  UNL1       -0.2932
      8 C           7.8016   76.1672   21.1627 C.3     1  UNL1        0.0923
      9 C           6.4591   75.6770   20.5776 C.3     1  UNL1        0.0252
     10 C           5.4491   75.1694   21.6325 C.3     1  UNL1        0.0472
     11 C           6.1885   74.6059   22.8531 C.3     1  UNL1        0.0252
     12 C           6.9651   75.7324   23.5407 C.3     1  UNL1        0.0923
     13 C           4.4722   74.1280   21.0515 C.3     1  UNL1        0.2054
     14 O           3.1185   74.5696   21.1862 O.3     1  UNL1       -0.4755
     15 C           2.6898   75.8176   21.6681 C.ar    1  UNL1        0.1388
     16 C           2.0867   76.7909   20.8492 C.ar    1  UNL1        0.0369
     17 C           1.6846   78.0135   21.3910 C.ar    1  UNL1        0.0033
     18 C           1.8686   78.2769   22.7496 C.ar    1  UNL1        0.0066
     19 C           2.4547   77.3121   23.5865 C.ar    1  UNL1        0.0785
     20 C           2.8568   76.0835   23.0335 C.ar    1  UNL1        0.0433
     21 C           2.6477   77.5815   25.0286 C.2     1  UNL1        0.3381
     22 O           3.3576   76.8130   25.7325 O.2     1  UNL1       -0.2451
     23 O           2.0459   78.6878   25.6231 O.3     1  UNL1       -0.4771
     24 H           2.1715   78.8811   26.6096 H       1  UNL1        0.2954
     25 C          12.1380   81.0315   24.5691 C.2     1  UNL1        0.2839
     26 O          12.8692   80.0344   24.3250 O.2     1  UNL1       -0.2665
     27 N          10.7224   80.8600   24.7332 N.am    1  UNL1       -0.2766
     28 H          10.2308   81.4895   25.4062 H       1  UNL1        0.1553
     29 C          14.7887   86.3101   25.6809 C.ar    1  UNL1        0.0002
     30 C          14.5977   86.4176   24.2766 C.ar    1  UNL1        0.0031
     31 C          13.9855   85.3807   23.5510 C.ar    1  UNL1        0.0375
     32 C          13.5735   84.2506   24.2489 C.ar    1  UNL1        0.1452
     33 O          12.9896   83.1827   23.7628 O.2     1  UNL1       -0.4492
     34 C          12.7743   82.3464   24.7631 C.ar    1  UNL1        0.1946
     35 C          13.2216   82.9115   25.9641 C.ar    1  UNL1        0.0202
     36 C          13.1529   82.3390   27.3477 C.3     1  UNL1        0.0345
     37 C          13.7493   84.1346   25.6009 C.ar    1  UNL1        0.0337
     38 C          14.3532   85.1427   26.3528 C.ar    1  UNL1        0.0028
     39 C          15.0053   89.2730   29.7387 C.3     1  UNL1        0.0310
     40 C          15.5612   88.8392   28.4144 C.ar    1  UNL1       -0.0218
     41 C          16.6606   89.5076   27.8573 C.ar    1  UNL1       -0.0043
     42 C          17.1572   89.1242   26.6100 C.ar    1  UNL1       -0.0003
     43 C          16.5539   88.0812   25.9034 C.ar    1  UNL1       -0.0000
     44 C          15.4381   87.4111   26.4365 C.ar    1  UNL1       -0.0003
     45 C          14.9440   87.8037   27.6948 C.ar    1  UNL1       -0.0043
@<TRIPOS>BOND
     1    39    40    1
     2    40    41   ar
     3    41    42   ar
     4    42    43   ar
     5    43    44   ar
     6    44    29    1
     7    29    30   ar
     8    30    31   ar
     9    31    32   ar
    10    32    33   ar
    11    33    34   ar
    12    34    25    1
    13    25    26    2
    14    25    27   am
    15    27     1    1
    16     1     2   ar
    17     2     3   ar
    18     3     4   ar
    19     4     7    1
    20     7     8    1
    21     8     9    1
    22     9    10    1
    23    10    13    1
    24    13    14    1
    25    14    15    1
    26    15    16   ar
    27    16    17   ar
    28    17    18   ar
    29    18    19   ar
    30    19    21    1
    31    21    22    2
    32    21    23    1
    33    19    20   ar
    34    10    11    1
    35    11    12    1
    36     4     5   ar
    37     5     6   ar
    38    34    35   ar
    39    35    36    1
    40    35    37   ar
    41    37    38   ar
    42    44    45   ar
    43    45    40   ar
    44    38    29   ar
    45    37    32   ar
    46     6     1   ar
    47    12     7    1
    48    20    15   ar
    49    27    28    1
    50    23    24    1
@<TRIPOS>MOLECULE
*****
 45 50 0 0 0
SMALL
GASTEIGER

@<TRIPOS>ATOM
      1 C          11.7724   80.8408   25.0319 C.ar    1  UNL1        0.0702
      2 C          13.1726   80.7925   25.1159 C.ar    1  UNL1        0.0191
      3 C          13.9319   81.9295   24.8350 C.ar    1  UNL1        0.0356
      4 C          13.2859   83.1286   24.4874 C.ar    1  UNL1        0.1318
      5 N          11.9253   83.1503   24.4201 N.ar    1  UNL1       -0.2279
      6 C          11.1661   82.0555   24.6885 C.ar    1  UNL1        0.1149
      7 N          14.0318   84.3246   24.1778 N.pl3   1  UNL1       -0.2932
      8 C          14.2672   85.3554   25.2038 C.3     1  UNL1        0.0923
      9 C          14.2364   86.7888   24.6300 C.3     1  UNL1        0.0252
     10 C          14.5320   86.8775   23.1149 C.3     1  UNL1        0.0472
     11 C          15.4468   85.7251   22.6801 C.3     1  UNL1        0.0252
     12 C          14.7147   84.3944   22.8757 C.3     1  UNL1        0.0923
     13 C          15.1349   88.2393   22.7167 C.3     1  UNL1        0.2054
     14 O          14.1596   89.0557   22.0627 O.3     1  UNL1       -0.4755
     15 C          13.9279   89.1361   20.6795 C.ar    1  UNL1        0.1388
     16 C          14.9641   89.2377   19.7320 C.ar    1  UNL1        0.0369
     17 C          14.6655   89.3161   18.3702 C.ar    1  UNL1        0.0033
     18 C          13.3388   89.2850   17.9366 C.ar    1  UNL1        0.0066
     19 C          12.2911   89.1684   18.8658 C.ar    1  UNL1        0.0785
     20 C          12.5999   89.0899   20.2353 C.ar    1  UNL1        0.0433
     21 C          10.8827   89.1289   18.4139 C.2     1  UNL1        0.3381
     22 O          10.5743   89.5062   17.2509 O.2     1  UNL1       -0.2451
     23 O           9.8830   88.6741   19.2701 O.3     1  UNL1       -0.4771
     24 H           8.9157   88.6432   18.9706 H       1  UNL1        0.2954
     25 C          11.4516   78.5073   25.9679 C.2     1  UNL1        0.2839
     26 O          12.6670   78.1937   25.8536 O.2     1  UNL1       -0.2665
     27 N          10.9554   79.6975   25.3374 N.am    1  UNL1       -0.2766
     28 H           9.9723   79.6877   24.9848 H       1  UNL1        0.1553
     29 C           7.5115   74.8817   28.6985 C.ar    1  UNL1        0.0002
     30 C           8.7213   74.4255   29.2890 C.ar    1  UNL1        0.0031
     31 C           9.9548   75.0057   28.9449 C.ar    1  UNL1        0.0375
     32 C           9.9535   76.0369   28.0121 C.ar    1  UNL1        0.1452
     33 O          10.9873   76.7028   27.5589 O.2     1  UNL1       -0.4492
     34 C          10.5475   77.5902   26.6839 C.ar    1  UNL1        0.1946
     35 C           9.1528   77.5105   26.5815 C.ar    1  UNL1        0.0202
     36 C           8.2298   78.3399   25.7407 C.3     1  UNL1        0.0345
     37 C           8.7963   76.4873   27.4371 C.ar    1  UNL1        0.0337
     38 C           7.5549   75.9351   27.7539 C.ar    1  UNL1        0.0028
     39 C           4.1659   71.1597   28.2039 C.3     1  UNL1        0.0310
     40 C           4.5954   72.4447   28.8482 C.ar    1  UNL1       -0.0218
     41 C           3.7506   73.0943   29.7593 C.ar    1  UNL1       -0.0043
     42 C           4.1371   74.3066   30.3340 C.ar    1  UNL1       -0.0003
     43 C           5.3618   74.8865   29.9951 C.ar    1  UNL1       -0.0000
     44 C           6.2147   74.2602   29.0685 C.ar    1  UNL1       -0.0003
     45 C           5.8175   73.0380   28.4941 C.ar    1  UNL1       -0.0043
@<TRIPOS>BOND
     1    39    40    1
     2    40    41   ar
     3    41    42   ar
     4    42    43   ar
     5    43    44   ar
     6    44    29    1
     7    29    30   ar
     8    30    31   ar
     9    31    32   ar
    10    32    33   ar
    11    33    34   ar
    12    34    25    1
    13    25    26    2
    14    25    27   am
    15    27     1    1
    16     1     2   ar
    17     2     3   ar
    18     3     4   ar
    19     4     7    1
    20     7     8    1
    21     8     9    1
    22     9    10    1
    23    10    13    1
    24    13    14    1
    25    14    15    1
    26    15    16   ar
    27    16    17   ar
    28    17    18   ar
    29    18    19   ar
    30    19    21    1
    31    21    22    2
    32    21    23    1
    33    19    20   ar
    34    10    11    1
    35    11    12    1
    36     4     5   ar
    37     5     6   ar
    38    34    35   ar
    39    35    36    1
    40    35    37   ar
    41    37    38   ar
    42    44    45   ar
    43    45    40   ar
    44    38    29   ar
    45    37    32   ar
    46     6     1   ar
    47    12     7    1
    48    20    15   ar
    49    27    28    1
    50    23    24    1
@<TRIPOS>MOLECULE
*****
 45 50 0 0 0
SMALL
GASTEIGER

@<TRIPOS>ATOM
      1 C          11.9490   81.1484   25.2601 C.ar    1  UNL1        0.0702
      2 C          11.2866   82.3525   24.9748 C.ar    1  UNL1        0.0191
      3 C          12.0053   83.4558   24.5116 C.ar    1  UNL1        0.0356
      4 C          13.3927   83.3484   24.3129 C.ar    1  UNL1        0.1318
      5 N          14.0100   82.1661   24.5908 N.ar    1  UNL1       -0.2279
      6 C          13.3307   81.0795   25.0433 C.ar    1  UNL1        0.1149
      7 N          14.1765   84.4669   23.8468 N.pl3   1  UNL1       -0.2932
      8 C          14.2816   85.7009   24.6448 C.3     1  UNL1        0.0923
      9 C          14.3299   86.9748   23.7732 C.3     1  UNL1        0.0252
     10 C          14.8182   86.7406   22.3249 C.3     1  UNL1        0.0472
     11 C          15.7773   85.5442   22.2708 C.3     1  UNL1        0.0252
     12 C          15.0214   84.2699   22.6577 C.3     1  UNL1        0.0923
     13 C          15.4722   87.9982   21.7190 C.3     1  UNL1        0.2054
     14 O          14.4814   88.9690   21.3704 O.3     1  UNL1       -0.4755
     15 C          13.5401   88.8679   20.3325 C.ar    1  UNL1        0.1388
     16 C          12.1598   88.7102   20.5604 C.ar    1  UNL1        0.0369
     17 C          11.2766   88.6139   19.4832 C.ar    1  UNL1        0.0033
     18 C          11.7531   88.6826   18.1728 C.ar    1  UNL1        0.0066
     19 C          13.1254   88.8553   17.9248 C.ar    1  UNL1        0.0785
     20 C          14.0085   88.9515   19.0148 C.ar    1  UNL1        0.0433
     21 C          13.6375   88.9350   16.5388 C.2     1  UNL1        0.3381
     22 O          12.8779   88.6918   15.5622 O.2     1  UNL1       -0.2451
     23 O          14.9655   89.2794   16.2996 O.3     1  UNL1       -0.4771
     24 H          15.3261   89.3366   15.3546 H       1  UNL1        0.2954
     25 C          10.2779   79.9998   26.7807 C.2     1  UNL1        0.2839
     26 O          10.3458   80.8832   27.6771 O.2     1  UNL1       -0.2665
     27 N          11.2398   79.9833   25.7154 N.am    1  UNL1       -0.2766
     28 H          11.5169   79.0553   25.3244 H       1  UNL1        0.1553
     29 C           6.1752   75.6815   27.5845 C.ar    1  UNL1        0.0002
     30 C           5.8812   76.0591   26.2461 C.ar    1  UNL1        0.0031
     31 C           6.6163   77.0715   25.6048 C.ar    1  UNL1        0.0375
     32 C           7.6371   77.6892   26.3191 C.ar    1  UNL1        0.1452
     33 O           8.4310   78.6472   25.9074 O.2     1  UNL1       -0.4492
     34 C           9.2521   78.9485   26.8981 C.ar    1  UNL1        0.1946
     35 C           8.9916   78.1270   28.0022 C.ar    1  UNL1        0.0202
     36 C           9.6924   78.0935   29.3269 C.3     1  UNL1        0.0345
     37 C           7.9321   77.3346   27.6074 C.ar    1  UNL1        0.0337
     38 C           7.2237   76.3353   28.2752 C.ar    1  UNL1        0.0028
     39 C           4.8333   70.8491   27.9553 C.3     1  UNL1        0.0310
     40 C           4.7513   72.2629   28.4506 C.ar    1  UNL1       -0.0218
     41 C           3.8915   72.5915   29.5083 C.ar    1  UNL1       -0.0043
     42 C           3.7916   73.9131   29.9474 C.ar    1  UNL1       -0.0003
     43 C           4.5375   74.9182   29.3274 C.ar    1  UNL1       -0.0000
     44 C           5.3909   74.6119   28.2521 C.ar    1  UNL1       -0.0003
     45 C           5.4859   73.2769   27.8159 C.ar    1  UNL1       -0.0043
@<TRIPOS>BOND
     1    39    40    1
     2    40    41   ar
     3    41    42   ar
     4    42    43   ar
     5    43    44   ar
     6    44    29    1
     7    29    30   ar
     8    30    31   ar
     9    31    32   ar
    10    32    33   ar
    11    33    34   ar
    12    34    25    1
    13    25    26    2
    14    25    27   am
    15    27     1    1
    16     1     2   ar
    17     2     3   ar
    18     3     4   ar
    19     4     7    1
    20     7     8    1
    21     8     9    1
    22     9    10    1
    23    10    13    1
    24    13    14    1
    25    14    15    1
    26    15    16   ar
    27    16    17   ar
    28    17    18   ar
    29    18    19   ar
    30    19    21    1
    31    21    22    2
    32    21    23    1
    33    19    20   ar
    34    10    11    1
    35    11    12    1
    36     4     5   ar
    37     5     6   ar
    38    34    35   ar
    39    35    36    1
    40    35    37   ar
    41    37    38   ar
    42    44    45   ar
    43    45    40   ar
    44    38    29   ar
    45    37    32   ar
    46     6     1   ar
    47    12     7    1
    48    20    15   ar
    49    27    28    1
    50    23    24    1
@<TRIPOS>MOLECULE
*****
 45 50 0 0 0
SMALL
GASTEIGER

@<TRIPOS>ATOM
      1 C           8.6880   77.7227   22.8043 C.ar    1  UNL1        0.0702
      2 C           9.4572   77.2478   23.8779 C.ar    1  UNL1        0.0191
      3 C          10.3737   78.0892   24.5106 C.ar    1  UNL1        0.0356
      4 C          10.5074   79.4206   24.0801 C.ar    1  UNL1        0.1318
      5 N           9.7436   79.8584   23.0404 N.ar    1  UNL1       -0.2279
      6 C           8.8458   79.0568   22.4092 C.ar    1  UNL1        0.1149
      7 N          11.4505   80.3217   24.6977 N.pl3   1  UNL1       -0.2932
      8 C          10.9881   81.4408   25.5370 C.3     1  UNL1        0.0923
      9 C          11.8628   82.7043   25.3844 C.3     1  UNL1        0.0252
     10 C          13.2984   82.4311   24.8794 C.3     1  UNL1        0.0472
     11 C          13.7590   81.0319   25.3085 C.3     1  UNL1        0.0252
     12 C          12.8801   79.9777   24.6294 C.3     1  UNL1        0.0923
     13 C          14.2970   83.5075   25.3490 C.3     1  UNL1        0.2054
     14 O          13.9295   84.7956   24.8477 O.3     1  UNL1       -0.4755
     15 C          14.0233   85.2328   23.5160 C.ar    1  UNL1        0.1388
     16 C          15.0095   84.7710   22.6238 C.ar    1  UNL1        0.0369
     17 C          15.0486   85.2479   21.3120 C.ar    1  UNL1        0.0033
     18 C          14.1055   86.1784   20.8718 C.ar    1  UNL1        0.0066
     19 C          13.1038   86.6398   21.7428 C.ar    1  UNL1        0.0785
     20 C          13.0710   86.1549   23.0622 C.ar    1  UNL1        0.0433
     21 C          12.0971   87.6215   21.2821 C.2     1  UNL1        0.3381
     22 O          12.2302   88.8465   21.5499 O.2     1  UNL1       -0.2451
     23 O          10.9911   87.2011   20.5476 O.3     1  UNL1       -0.4771
     24 H          10.2960   87.8650   20.2276 H       1  UNL1        0.2954
     25 C           6.4367   76.5627   22.7028 C.2     1  UNL1        0.2839
     26 O           6.2773   76.5602   23.9531 O.2     1  UNL1       -0.2665
     27 N           7.7165   76.8936   22.1434 N.am    1  UNL1       -0.2766
     28 H           7.9980   76.4176   21.2574 H       1  UNL1        0.1553
     29 C           1.6555   74.9083   19.4579 C.ar    1  UNL1        0.0002
     30 C           2.6697   74.8319   18.4650 C.ar    1  UNL1        0.0031
     31 C           4.0063   75.1383   18.7749 C.ar    1  UNL1        0.0375
     32 C           4.3036   75.5167   20.0795 C.ar    1  UNL1        0.1452
     33 O           5.4758   75.8415   20.5675 O.2     1  UNL1       -0.4492
     34 C           5.3155   76.1409   21.8447 C.ar    1  UNL1        0.1946
     35 C           3.9728   75.9798   22.2091 C.ar    1  UNL1        0.0202
     36 C           3.3407   76.1752   23.5542 C.3     1  UNL1        0.0345
     37 C           3.3377   75.5927   21.0458 C.ar    1  UNL1        0.0337
     38 C           2.0017   75.2967   20.7745 C.ar    1  UNL1        0.0028
     39 C          -3.2134   76.1658   19.4053 C.3     1  UNL1        0.0310
     40 C          -2.1169   75.1979   19.0711 C.ar    1  UNL1       -0.0218
     41 C          -2.4219   73.9592   18.4893 C.ar    1  UNL1       -0.0043
     42 C          -1.4041   73.0457   18.2083 C.ar    1  UNL1       -0.0003
     43 C          -0.0773   73.3546   18.5169 C.ar    1  UNL1       -0.0000
     44 C           0.2468   74.5839   19.1186 C.ar    1  UNL1       -0.0003
     45 C          -0.7854   75.4993   19.3982 C.ar    1  UNL1       -0.0043
@<TRIPOS>BOND
     1    39    40    1
     2    40    41   ar
     3    41    42   ar
     4    42    43   ar
     5    43    44   ar
     6    44    29    1
     7    29    30   ar
     8    30    31   ar
     9    31    32   ar
    10    32    33   ar
    11    33    34   ar
    12    34    25    1
    13    25    26    2
    14    25    27   am
    15    27     1    1
    16     1     2   ar
    17     2     3   ar
    18     3     4   ar
    19     4     7    1
    20     7     8    1
    21     8     9    1
    22     9    10    1
    23    10    13    1
    24    13    14    1
    25    14    15    1
    26    15    16   ar
    27    16    17   ar
    28    17    18   ar
    29    18    19   ar
    30    19    21    1
    31    21    22    2
    32    21    23    1
    33    19    20   ar
    34    10    11    1
    35    11    12    1
    36     4     5   ar
    37     5     6   ar
    38    34    35   ar
    39    35    36    1
    40    35    37   ar
    41    37    38   ar
    42    44    45   ar
    43    45    40   ar
    44    38    29   ar
    45    37    32   ar
    46     6     1   ar
    47    12     7    1
    48    20    15   ar
    49    27    28    1
    50    23    24    1
@<TRIPOS>MOLECULE
*****
 45 50 0 0 0
SMALL
GASTEIGER

@<TRIPOS>ATOM
      1 C           8.6908   77.6289   22.8504 C.ar    1  UNL1        0.0702
      2 C           9.5183   77.1242   23.8654 C.ar    1  UNL1        0.0191
      3 C          10.4419   77.9584   24.4974 C.ar    1  UNL1        0.0356
      4 C          10.5245   79.3116   24.1261 C.ar    1  UNL1        0.1318
      5 N           9.7048   79.7778   23.1428 N.ar    1  UNL1       -0.2279
      6 C           8.7990   78.9838   22.5134 C.ar    1  UNL1        0.1149
      7 N          11.4725   80.2067   24.7447 N.pl3   1  UNL1       -0.2932
      8 C          11.0205   81.2809   25.6461 C.3     1  UNL1        0.0923
      9 C          11.8637   82.5679   25.5131 C.3     1  UNL1        0.0252
     10 C          13.2841   82.3459   24.9440 C.3     1  UNL1        0.0472
     11 C          13.7882   80.9406   25.2976 C.3     1  UNL1        0.0252
     12 C          12.9050   79.8963   24.6089 C.3     1  UNL1        0.0923
     13 C          14.2785   83.4234   25.4201 C.3     1  UNL1        0.2054
     14 O          13.7951   84.7336   25.1113 O.3     1  UNL1       -0.4755
     15 C          13.7319   85.3233   23.8378 C.ar    1  UNL1        0.1388
     16 C          12.9590   86.4662   23.5584 C.ar    1  UNL1        0.0369
     17 C          12.9383   87.0021   22.2691 C.ar    1  UNL1        0.0033
     18 C          13.6904   86.4154   21.2498 C.ar    1  UNL1        0.0066
     19 C          14.4805   85.2833   21.5124 C.ar    1  UNL1        0.0785
     20 C          14.4961   84.7496   22.8132 C.ar    1  UNL1        0.0433
     21 C          15.2851   84.6591   20.4389 C.2     1  UNL1        0.3381
     22 O          15.7131   85.3522   19.4764 O.2     1  UNL1       -0.2451
     23 O          15.5774   83.2982   20.4813 O.3     1  UNL1       -0.4771
     24 H          16.1272   82.8611   19.7513 H       1  UNL1        0.2954
     25 C           6.4221   76.5034   22.7479 C.2     1  UNL1        0.2839
     26 O           6.2542   76.5194   23.9970 O.2     1  UNL1       -0.2665
     27 N           7.7108   76.8069   22.1933 N.am    1  UNL1       -0.2766
     28 H           7.9908   76.3152   21.3154 H       1  UNL1        0.1553
     29 C           1.6371   74.8870   19.4897 C.ar    1  UNL1        0.0002
     30 C           2.6590   74.7667   18.5091 C.ar    1  UNL1        0.0031
     31 C           3.9990   75.0497   18.8262 C.ar    1  UNL1        0.0375
     32 C           4.2920   75.4493   20.1255 C.ar    1  UNL1        0.1452
     33 O           5.4663   75.7581   20.6186 O.2     1  UNL1       -0.4492
     34 C           5.3003   76.0884   21.8874 C.ar    1  UNL1        0.1946
     35 C           3.9507   75.9652   22.2412 C.ar    1  UNL1        0.0202
     36 C           3.3100   76.2035   23.5753 C.3     1  UNL1        0.0345
     37 C           3.3186   75.5676   21.0800 C.ar    1  UNL1        0.0337
     38 C           1.9790   75.2957   20.8012 C.ar    1  UNL1        0.0028
     39 C          -3.2130   76.2153   19.4383 C.3     1  UNL1        0.0310
     40 C          -2.1297   75.2356   19.0959 C.ar    1  UNL1       -0.0218
     41 C          -2.4508   74.0082   18.4990 C.ar    1  UNL1       -0.0043
     42 C          -1.4455   73.0834   18.2102 C.ar    1  UNL1       -0.0003
     43 C          -0.1152   73.3695   18.5259 C.ar    1  UNL1       -0.0000
     44 C           0.2248   74.5869   19.1427 C.ar    1  UNL1       -0.0003
     45 C          -0.7948   75.5139   19.4301 C.ar    1  UNL1       -0.0043
@<TRIPOS>BOND
     1    39    40    1
     2    40    41   ar
     3    41    42   ar
     4    42    43   ar
     5    43    44   ar
     6    44    29    1
     7    29    30   ar
     8    30    31   ar
     9    31    32   ar
    10    32    33   ar
    11    33    34   ar
    12    34    25    1
    13    25    26    2
    14    25    27   am
    15    27     1    1
    16     1     2   ar
    17     2     3   ar
    18     3     4   ar
    19     4     7    1
    20     7     8    1
    21     8     9    1
    22     9    10    1
    23    10    13    1
    24    13    14    1
    25    14    15    1
    26    15    16   ar
    27    16    17   ar
    28    17    18   ar
    29    18    19   ar
    30    19    21    1
    31    21    22    2
    32    21    23    1
    33    19    20   ar
    34    10    11    1
    35    11    12    1
    36     4     5   ar
    37     5     6   ar
    38    34    35   ar
    39    35    36    1
    40    35    37   ar
    41    37    38   ar
    42    44    45   ar
    43    45    40   ar
    44    38    29   ar
    45    37    32   ar
    46     6     1   ar
    47    12     7    1
    48    20    15   ar
    49    27    28    1
    50    23    24    1
