@<TRIPOS>MOLECULE
*****
 45 50 0 0 0
SMALL
GASTEIGER

@<TRIPOS>ATOM
      1 C          61.1753   88.2603    9.0257 C.ar    1  UNL1        0.0702
      2 C          61.8976   88.7210   10.1360 C.ar    1  UNL1        0.0191
      3 C          61.9039   87.9862   11.3229 C.ar    1  UNL1        0.0356
      4 C          61.1947   86.7728   11.3968 C.ar    1  UNL1        0.1318
      5 N          60.5227   86.3389   10.2931 N.ar    1  UNL1       -0.2279
      6 C          60.5031   87.0376    9.1279 C.ar    1  UNL1        0.1149
      7 N          61.1828   85.9770   12.6059 N.pl3   1  UNL1       -0.2932
      8 C          62.3081   86.0353   13.5566 C.3     1  UNL1        0.0923
      9 C          62.2570   84.8873   14.5758 C.3     1  UNL1        0.0252
     10 C          61.8895   83.5716   13.8683 C.3     1  UNL1        0.0472
     11 C          60.5007   83.6621   13.1793 C.3     1  UNL1        0.0252
     12 C          60.0386   85.1056   12.9183 C.3     1  UNL1        0.0923
     13 C          61.9513   82.3908   14.8556 C.3     1  UNL1        0.2054
     14 O          62.5132   81.2329   14.2350 O.3     1  UNL1       -0.4750
     15 C          62.8648   81.1148   12.8792 C.ar    1  UNL1        0.1440
     16 C          63.9949   81.7586   12.3414 C.ar    1  UNL1        0.0373
     17 C          64.3043   81.6261   10.9895 C.ar    1  UNL1        0.0033
     18 C          63.5029   80.8452   10.1590 C.ar    1  UNL1        0.0071
     19 C          62.3776   80.1799   10.6709 C.ar    1  UNL1        0.0837
     20 C          62.0560   80.3220   12.0428 C.ar    1  UNL1        0.0702
     21 I          60.3011   79.4580   12.8920 I       1  UNL1       -0.0392
     22 C          61.5742   79.3386    9.7557 C.2     1  UNL1        0.3385
     23 O          60.5966   79.8311    9.1338 O.2     1  UNL1       -0.2451
     24 O          61.8594   77.9842    9.5954 O.3     1  UNL1       -0.4771
     25 H          62.6591   77.5518   10.0419 H       1  UNL1        0.2954
     26 C          60.1078   88.8840    6.8065 C.2     1  UNL1        0.2839
     27 O          59.0727   88.2081    7.0495 O.2     1  UNL1       -0.2665
     28 N          61.1658   88.9722    7.7772 N.am    1  UNL1       -0.2766
     29 H          62.0094   89.5425    7.5505 H       1  UNL1        0.1553
     30 C          57.6743   90.1347    5.0751 C.3     1  UNL1        0.0345
     31 C          59.1394   90.1206    4.7597 C.ar    1  UNL1        0.0202
     32 C          60.1924   89.5958    5.5195 C.ar    1  UNL1        0.1946
     33 O          61.3459   89.8432    4.9241 O.2     1  UNL1       -0.4492
     34 C          61.0940   90.4786    3.8058 C.ar    1  UNL1        0.1452
     35 C          62.0119   90.9287    2.8633 C.ar    1  UNL1        0.0375
     36 C          61.5188   91.5957    1.7281 C.ar    1  UNL1        0.0031
     37 C          60.1234   91.8021    1.5528 C.ar    1  UNL1        0.0002
     38 C          59.2233   91.3283    2.5372 C.ar    1  UNL1        0.0028
     39 C          59.7482   90.6696    3.6492 C.ar    1  UNL1        0.0337
     40 C          59.6139   92.5079    0.3496 C.ar    1  UNL1        0.0000
     41 C          60.4987   93.1832   -0.5125 C.ar    1  UNL1        0.0000
     42 C          60.0158   93.8478   -1.6441 C.ar    1  UNL1        0.0000
     43 C          58.6485   93.8456   -1.9282 C.ar    1  UNL1        0.0000
     44 C          57.7606   93.1792   -1.0809 C.ar    1  UNL1        0.0000
     45 C          58.2376   92.5137    0.0525 C.ar    1  UNL1        0.0000
@<TRIPOS>BOND
     1    30    31    1
     2    31    32   ar
     3    32    26    1
     4    26    27    2
     5    26    28   am
     6    28     1    1
     7     1     2   ar
     8     2     3   ar
     9     3     4   ar
    10     4     7    1
    11     7     8    1
    12     8     9    1
    13     9    10    1
    14    10    13    1
    15    13    14    1
    16    14    15    1
    17    15    16   ar
    18    16    17   ar
    19    17    18   ar
    20    18    19   ar
    21    19    22    1
    22    22    23    2
    23    22    24    1
    24    19    20   ar
    25    20    21    1
    26    10    11    1
    27    11    12    1
    28     4     5   ar
    29     5     6   ar
    30    32    33   ar
    31    33    34   ar
    32    34    35   ar
    33    35    36   ar
    34    36    37   ar
    35    37    40    1
    36    40    41   ar
    37    41    42   ar
    38    42    43   ar
    39    43    44   ar
    40    44    45   ar
    41    37    38   ar
    42    38    39   ar
    43    39    31   ar
    44     6     1   ar
    45    39    34   ar
    46    12     7    1
    47    45    40   ar
    48    20    15   ar
    49    28    29    1
    50    24    25    1
@<TRIPOS>MOLECULE
*****
 45 50 0 0 0
SMALL
GASTEIGER

@<TRIPOS>ATOM
      1 C          61.2203   87.8217    8.8613 C.ar    1  UNL1        0.0702
      2 C          60.5531   86.5939    8.9818 C.ar    1  UNL1        0.0191
      3 C          60.5677   85.9038   10.1951 C.ar    1  UNL1        0.0356
      4 C          61.2420   86.4518   11.3022 C.ar    1  UNL1        0.1318
      5 N          61.8599   87.6585   11.1609 N.ar    1  UNL1       -0.2279
      6 C          61.8584   88.3476    9.9898 C.ar    1  UNL1        0.1149
      7 N          61.2737   85.7721   12.5799 N.pl3   1  UNL1       -0.2932
      8 C          62.4854   85.8032   13.4192 C.3     1  UNL1        0.0923
      9 C          62.4282   84.7616   14.5466 C.3     1  UNL1        0.0252
     10 C          61.8771   83.4309   14.0060 C.3     1  UNL1        0.0472
     11 C          60.4428   83.5967   13.4343 C.3     1  UNL1        0.0252
     12 C          60.0904   85.0499   13.0741 C.3     1  UNL1        0.0923
     13 C          61.9259   82.3426   15.0951 C.3     1  UNL1        0.2054
     14 O          62.2359   81.0670   14.5312 O.3     1  UNL1       -0.4750
     15 C          61.4349   80.3514   13.6245 C.ar    1  UNL1        0.1440
     16 C          60.2727   79.6695   14.0307 C.ar    1  UNL1        0.0373
     17 C          59.5108   78.9618   13.1035 C.ar    1  UNL1        0.0033
     18 C          59.8870   78.9318   11.7622 C.ar    1  UNL1        0.0071
     19 C          61.0335   79.6146   11.3258 C.ar    1  UNL1        0.0837
     20 C          61.8147   80.3259   12.2690 C.ar    1  UNL1        0.0702
     21 I          63.6401   81.2896   11.7337 I       1  UNL1       -0.0392
     22 C          61.3759   79.5772    9.8863 C.2     1  UNL1        0.3385
     23 O          61.0201   80.5139    9.1241 O.2     1  UNL1       -0.2451
     24 O          62.0610   78.4923    9.3432 O.3     1  UNL1       -0.4771
     25 H          62.4036   77.7349    9.9217 H       1  UNL1        0.2954
     26 C          60.0582   88.7002    6.7802 C.2     1  UNL1        0.2839
     27 O          58.9549   88.1901    7.1116 O.2     1  UNL1       -0.2665
     28 N          61.2060   88.5769    7.6386 N.am    1  UNL1       -0.2766
     29 H          62.1055   89.0130    7.3405 H       1  UNL1        0.1553
     30 C          57.6068   89.9540    5.0765 C.3     1  UNL1        0.0345
     31 C          59.0719   89.9681    4.7613 C.ar    1  UNL1        0.0202
     32 C          60.1324   89.4418    5.5094 C.ar    1  UNL1        0.1946
     33 O          61.2822   89.7191    4.9201 O.2     1  UNL1       -0.4492
     34 C          61.0211   90.3757    3.8163 C.ar    1  UNL1        0.1452
     35 C          61.9323   90.8601    2.8843 C.ar    1  UNL1        0.0375
     36 C          61.4297   91.5451    1.7642 C.ar    1  UNL1        0.0031
     37 C          60.0314   91.7352    1.5931 C.ar    1  UNL1        0.0002
     38 C          59.1382   91.2265    2.5665 C.ar    1  UNL1        0.0028
     39 C          59.6727   90.5507    3.6636 C.ar    1  UNL1        0.0337
     40 C          59.5117   92.4603    0.4059 C.ar    1  UNL1        0.0000
     41 C          60.3876   93.1607   -0.4452 C.ar    1  UNL1        0.0000
     42 C          59.8951   93.8434   -1.5617 C.ar    1  UNL1        0.0000
     43 C          58.5270   93.8346   -1.8417 C.ar    1  UNL1        0.0000
     44 C          57.6478   93.1433   -1.0052 C.ar    1  UNL1        0.0000
     45 C          58.1345   92.4596    0.1132 C.ar    1  UNL1        0.0000
@<TRIPOS>BOND
     1    30    31    1
     2    31    32   ar
     3    32    26    1
     4    26    27    2
     5    26    28   am
     6    28     1    1
     7     1     2   ar
     8     2     3   ar
     9     3     4   ar
    10     4     7    1
    11     7     8    1
    12     8     9    1
    13     9    10    1
    14    10    13    1
    15    13    14    1
    16    14    15    1
    17    15    16   ar
    18    16    17   ar
    19    17    18   ar
    20    18    19   ar
    21    19    22    1
    22    22    23    2
    23    22    24    1
    24    19    20   ar
    25    20    21    1
    26    10    11    1
    27    11    12    1
    28     4     5   ar
    29     5     6   ar
    30    32    33   ar
    31    33    34   ar
    32    34    35   ar
    33    35    36   ar
    34    36    37   ar
    35    37    40    1
    36    40    41   ar
    37    41    42   ar
    38    42    43   ar
    39    43    44   ar
    40    44    45   ar
    41    37    38   ar
    42    38    39   ar
    43    39    31   ar
    44     6     1   ar
    45    39    34   ar
    46    12     7    1
    47    45    40   ar
    48    20    15   ar
    49    28    29    1
    50    24    25    1
