@<TRIPOS>MOLECULE
*****
 38 42 0 0 0
SMALL
GASTEIGER

@<TRIPOS>ATOM
      1 C         -30.5351   49.2881  -10.6854 C.ar    1  UNL1        0.0672
      2 C         -31.5840   48.9409   -9.8072 C.ar    1  UNL1        0.0159
      3 C         -31.4256   49.0728   -8.4101 C.ar    1  UNL1        0.0009
      4 C         -30.2155   49.5541   -7.8646 C.ar    1  UNL1        0.0245
      5 C         -29.1929   49.8771   -8.7646 C.ar    1  UNL1        0.0751
      6 N         -27.9516   50.3117   -8.5009 N.ar    1  UNL1       -0.3375
      7 C         -27.3729   50.4258   -9.7242 C.ar    1  UNL1        0.1405
      8 N         -28.2025   50.0778  -10.7436 N.ar    1  UNL1       -0.2258
      9 C         -29.3440   49.7468  -10.1142 C.ar    1  UNL1        0.1114
     10 H         -27.5270   50.4855   -7.5634 H       1  UNL1        0.1674
     11 N         -29.8469   49.0227  -14.6450 N.3     1  UNL1       -0.2647
     12 C         -30.3085   47.7241  -14.1116 C.3     1  UNL1        0.0941
     13 C         -30.9417   47.8504  -12.7065 C.3     1  UNL1        0.1082
     14 N         -30.6869   49.1691  -12.1100 N.pl3   1  UNL1       -0.3034
     15 C         -30.8720   50.3879  -12.9107 C.3     1  UNL1        0.1082
     16 C         -30.8567   50.0673  -14.4047 C.3     1  UNL1        0.0941
     17 C         -29.4999   48.9160  -16.0748 C.3     1  UNL1        0.1200
     18 N         -26.3678   50.3603  -17.3068 N.ar    1  UNL1       -0.3128
     19 C         -26.5165   50.9029  -16.0802 C.ar    1  UNL1        0.1780
     20 N         -27.6529   50.5080  -15.4668 N.ar    1  UNL1       -0.2273
     21 C         -28.2383   49.6793  -16.3551 C.ar    1  UNL1        0.0885
     22 C         -27.4576   49.5876  -17.4923 C.ar    1  UNL1        0.0537
     23 C         -27.6959   48.6628  -18.6500 C.3     1  UNL1        0.0514
     24 C         -24.3307   49.2318  -18.0811 C.3     1  UNL1        0.0265
     25 C         -25.1866   50.4906  -18.1618 C.3     1  UNL1        0.1073
     26 C         -25.9776   50.8719   -9.9468 C.ar    1  UNL1        0.0339
     27 C         -25.1215   51.1521   -8.8722 C.ar    1  UNL1        0.0027
     28 C         -23.8168   51.5973   -9.1017 C.ar    1  UNL1       -0.0042
     29 C         -23.3238   51.7778  -10.4130 C.ar    1  UNL1       -0.0228
     30 C         -24.1952   51.4841  -11.4865 C.ar    1  UNL1       -0.0042
     31 C         -25.4986   51.0410  -11.2527 C.ar    1  UNL1        0.0027
     32 C         -21.8818   52.2834  -10.6241 C.3     1  UNL1        0.0189
     33 C         -21.2907   52.7332   -9.2705 C.3     1  UNL1        0.0044
     34 C         -21.8936   53.4788  -11.6016 C.3     1  UNL1        0.0044
     35 C         -20.9407   51.2049  -11.2137 C.3     1  UNL1        0.0044
     36 C         -30.0261   49.6742   -6.3753 C.3     1  UNL1        0.1702
     37 O         -29.2474   50.8129   -6.0624 O.3     1  UNL1       -0.3463
     38 C         -30.0488   51.7980   -5.4473 C.3     1  UNL1        0.1746
@<TRIPOS>BOND
     1    24    25    1
     2    25    18    1
     3    18    19   ar
     4    19    20   ar
     5    20    21   ar
     6    21    17    1
     7    17    11    1
     8    11    12    1
     9    12    13    1
    10    13    14    1
    11    14     1    1
    12     1     2   ar
    13     2     3   ar
    14     3     4   ar
    15     4    36    1
    16    36    37    1
    17    37    38    1
    18     4     5   ar
    19     5     6   ar
    20     6     7   ar
    21     7    26    1
    22    26    27   ar
    23    27    28   ar
    24    28    29   ar
    25    29    32    1
    26    32    33    1
    27    32    34    1
    28    32    35    1
    29    29    30   ar
    30    30    31   ar
    31     7     8   ar
    32     8     9   ar
    33    14    15    1
    34    15    16    1
    35    21    22   ar
    36    22    23    1
    37    22    18   ar
    38    16    11    1
    39     9     1   ar
    40     9     5   ar
    41    31    26   ar
    42     6    10    1
@<TRIPOS>MOLECULE
*****
 38 42 0 0 0
SMALL
GASTEIGER

@<TRIPOS>ATOM
      1 C         -28.7644   50.8220   -7.8967 C.ar    1  UNL1        0.0672
      2 C         -30.0692   50.7464   -8.4292 C.ar    1  UNL1        0.0159
      3 C         -30.2948   50.9395   -9.8098 C.ar    1  UNL1        0.0009
      4 C         -29.2202   51.2120  -10.6842 C.ar    1  UNL1        0.0245
      5 C         -27.9417   51.2918  -10.1194 C.ar    1  UNL1        0.0751
      6 N         -26.7765   51.5738  -10.7212 N.ar    1  UNL1       -0.3375
      7 C         -25.8694   51.5611   -9.7106 C.ar    1  UNL1        0.1405
      8 N         -26.4211   51.2844   -8.4991 N.ar    1  UNL1       -0.2258
      9 C         -27.7234   51.1087   -8.7852 C.ar    1  UNL1        0.1114
     10 H         -26.6202   51.7869  -11.7309 H       1  UNL1        0.1674
     11 N         -27.3896   49.4615   -4.3637 N.3     1  UNL1       -0.2647
     12 C         -26.8578   50.8122   -4.6407 C.3     1  UNL1        0.0941
     13 C         -27.6285   51.5338   -5.7706 C.3     1  UNL1        0.1082
     14 N         -28.5193   50.6167   -6.4951 N.pl3   1  UNL1       -0.3034
     15 C         -29.3763   49.6818   -5.7519 C.3     1  UNL1        0.1082
     16 C         -28.8615   49.4844   -4.3267 C.3     1  UNL1        0.0941
     17 C         -26.8196   48.9117   -3.1192 C.3     1  UNL1        0.1200
     18 N         -28.0835   45.4743   -3.0985 N.ar    1  UNL1       -0.3128
     19 C         -28.5385   45.9957   -1.9400 C.ar    1  UNL1        0.1780
     20 N         -28.1417   47.2722   -1.7482 N.ar    1  UNL1       -0.2273
     21 C         -27.4049   47.5579   -2.8409 C.ar    1  UNL1        0.0885
     22 C         -27.3588   46.4556   -3.6739 C.ar    1  UNL1        0.0537
     23 C         -26.7551   46.4161   -5.0474 C.3     1  UNL1        0.0514
     24 C         -29.9360   44.1195   -3.9679 C.3     1  UNL1        0.0265
     25 C         -28.4463   44.1669   -3.6484 C.3     1  UNL1        0.1073
     26 C         -24.4229   51.8295   -9.8868 C.ar    1  UNL1        0.0339
     27 C         -23.5083   51.6081   -8.8472 C.ar    1  UNL1        0.0027
     28 C         -22.1513   51.8921   -9.0234 C.ar    1  UNL1       -0.0042
     29 C         -21.6626   52.4075  -10.2442 C.ar    1  UNL1       -0.0228
     30 C         -22.5946   52.6184  -11.2859 C.ar    1  UNL1       -0.0042
     31 C         -23.9498   52.3347  -11.1051 C.ar    1  UNL1        0.0027
     32 C         -20.1596   52.7203  -10.3944 C.3     1  UNL1        0.0189
     33 C         -19.5691   51.8710  -11.5406 C.3     1  UNL1        0.0044
     34 C         -19.4294   52.3824   -9.0763 C.3     1  UNL1        0.0044
     35 C         -19.8786   54.2080  -10.7179 C.3     1  UNL1        0.0044
     36 C         -29.4521   51.4456  -12.1538 C.3     1  UNL1        0.1702
     37 O         -29.1713   52.7893  -12.4951 O.3     1  UNL1       -0.3463
     38 C         -30.3329   53.5794  -12.3625 C.3     1  UNL1        0.1746
@<TRIPOS>BOND
     1    24    25    1
     2    25    18    1
     3    18    19   ar
     4    19    20   ar
     5    20    21   ar
     6    21    17    1
     7    17    11    1
     8    11    12    1
     9    12    13    1
    10    13    14    1
    11    14     1    1
    12     1     2   ar
    13     2     3   ar
    14     3     4   ar
    15     4    36    1
    16    36    37    1
    17    37    38    1
    18     4     5   ar
    19     5     6   ar
    20     6     7   ar
    21     7    26    1
    22    26    27   ar
    23    27    28   ar
    24    28    29   ar
    25    29    32    1
    26    32    33    1
    27    32    34    1
    28    32    35    1
    29    29    30   ar
    30    30    31   ar
    31     7     8   ar
    32     8     9   ar
    33    14    15    1
    34    15    16    1
    35    21    22   ar
    36    22    23    1
    37    22    18   ar
    38    16    11    1
    39     9     1   ar
    40     9     5   ar
    41    31    26   ar
    42     6    10    1
@<TRIPOS>MOLECULE
*****
 38 42 0 0 0
SMALL
GASTEIGER

@<TRIPOS>ATOM
      1 C         -29.9732   48.0637  -10.4755 C.ar    1  UNL1        0.0672
      2 C         -30.7135   47.1180   -9.7340 C.ar    1  UNL1        0.0159
      3 C         -30.2378   46.6474   -8.4904 C.ar    1  UNL1        0.0009
      4 C         -29.0130   47.1132   -7.9646 C.ar    1  UNL1        0.0245
      5 C         -28.2998   48.0413   -8.7327 C.ar    1  UNL1        0.0751
      6 N         -27.1075   48.5999   -8.4768 N.ar    1  UNL1       -0.3375
      7 C         -26.8692   49.3843   -9.5596 C.ar    1  UNL1        0.1405
      8 N         -27.8647   49.3372  -10.4845 N.ar    1  UNL1       -0.2258
      9 C         -28.7571   48.4939   -9.9357 C.ar    1  UNL1        0.1114
     10 H         -26.4955   48.4350   -7.6476 H       1  UNL1        0.1674
     11 N         -30.3434   49.0286  -14.3683 N.3     1  UNL1       -0.2647
     12 C         -31.2877   47.9496  -14.0104 C.3     1  UNL1        0.0941
     13 C         -31.4637   47.7974  -12.4816 C.3     1  UNL1        0.1082
     14 N         -30.4511   48.5593  -11.7374 N.pl3   1  UNL1       -0.3034
     15 C         -30.1409   49.9436  -12.1224 C.3     1  UNL1        0.1082
     16 C         -30.5976   50.2280  -13.5526 C.3     1  UNL1        0.0941
     17 C         -30.4007   49.3266  -15.8119 C.3     1  UNL1        0.1200
     18 N         -27.1761   49.3726  -17.5480 N.ar    1  UNL1       -0.3128
     19 C         -26.9797   50.1667  -16.4747 C.ar    1  UNL1        0.1780
     20 N         -28.0867   50.3022  -15.7134 N.ar    1  UNL1       -0.2273
     21 C         -29.0160   49.5556  -16.3440 C.ar    1  UNL1        0.0885
     22 C         -28.4661   48.9851  -17.4768 C.ar    1  UNL1        0.0537
     23 C         -29.1355   47.9810  -18.3690 C.3     1  UNL1        0.0514
     24 C         -24.7945   49.5402  -18.1161 C.3     1  UNL1        0.0265
     25 C         -26.1419   48.9301  -18.4848 C.3     1  UNL1        0.1073
     26 C         -25.6503   50.2072   -9.7395 C.ar    1  UNL1        0.0339
     27 C         -25.2295   50.6184  -11.0123 C.ar    1  UNL1        0.0027
     28 C         -24.0624   51.3720  -11.1648 C.ar    1  UNL1       -0.0042
     29 C         -23.2762   51.7395  -10.0505 C.ar    1  UNL1       -0.0228
     30 C         -23.7165   51.3248   -8.7729 C.ar    1  UNL1       -0.0042
     31 C         -24.8824   50.5706   -8.6252 C.ar    1  UNL1        0.0027
     32 C         -21.9876   52.5607  -10.2622 C.3     1  UNL1        0.0189
     33 C         -21.2484   52.7146   -8.9154 C.3     1  UNL1        0.0044
     34 C         -22.3518   53.9576  -10.8104 C.3     1  UNL1        0.0044
     35 C         -21.0075   51.9044  -11.2648 C.3     1  UNL1        0.0044
     36 C         -28.4834   46.5988   -6.6519 C.3     1  UNL1        0.1702
     37 O         -27.0705   46.5326   -6.6764 O.3     1  UNL1       -0.3463
     38 C         -26.5474   46.7992   -5.3933 C.3     1  UNL1        0.1746
@<TRIPOS>BOND
     1    24    25    1
     2    25    18    1
     3    18    19   ar
     4    19    20   ar
     5    20    21   ar
     6    21    17    1
     7    17    11    1
     8    11    12    1
     9    12    13    1
    10    13    14    1
    11    14     1    1
    12     1     2   ar
    13     2     3   ar
    14     3     4   ar
    15     4    36    1
    16    36    37    1
    17    37    38    1
    18     4     5   ar
    19     5     6   ar
    20     6     7   ar
    21     7    26    1
    22    26    27   ar
    23    27    28   ar
    24    28    29   ar
    25    29    32    1
    26    32    33    1
    27    32    34    1
    28    32    35    1
    29    29    30   ar
    30    30    31   ar
    31     7     8   ar
    32     8     9   ar
    33    14    15    1
    34    15    16    1
    35    21    22   ar
    36    22    23    1
    37    22    18   ar
    38    16    11    1
    39     9     1   ar
    40     9     5   ar
    41    31    26   ar
    42     6    10    1
@<TRIPOS>MOLECULE
*****
 38 42 0 0 0
SMALL
GASTEIGER

@<TRIPOS>ATOM
      1 C         -29.0451   50.2408   -8.3237 C.ar    1  UNL1        0.0672
      2 C         -30.3399   50.2463   -8.8852 C.ar    1  UNL1        0.0159
      3 C         -30.5477   50.6912  -10.2093 C.ar    1  UNL1        0.0009
      4 C         -29.4650   51.1392  -10.9970 C.ar    1  UNL1        0.0245
      5 C         -28.1970   51.1314  -10.4035 C.ar    1  UNL1        0.0751
      6 N         -27.0281   51.5390  -10.9200 N.ar    1  UNL1       -0.3375
      7 C         -26.1366   51.3511   -9.9129 C.ar    1  UNL1        0.1405
      8 N         -26.7017   50.8438   -8.7851 N.ar    1  UNL1       -0.2258
      9 C         -27.9960   50.7049   -9.1233 C.ar    1  UNL1        0.1114
     10 H         -26.8603   51.9400  -11.8689 H       1  UNL1        0.1674
     11 N         -29.5240   48.9692   -4.5320 N.3     1  UNL1       -0.2647
     12 C         -29.0406   47.8676   -5.3903 C.3     1  UNL1        0.0941
     13 C         -28.4836   48.3691   -6.7430 C.3     1  UNL1        0.1082
     14 N         -28.8179   49.7802   -6.9810 N.pl3   1  UNL1       -0.3034
     15 C         -28.6395   50.7703   -5.9092 C.3     1  UNL1        0.1082
     16 C         -28.5679   50.0892   -4.5431 C.3     1  UNL1        0.0941
     17 C         -29.7948   48.4947   -3.1618 C.3     1  UNL1        0.1200
     18 N         -27.4965   45.7116   -2.5404 N.ar    1  UNL1       -0.3128
     19 C         -28.6570   45.1080   -2.8721 C.ar    1  UNL1        0.1780
     20 N         -29.6546   45.9860   -3.1115 N.ar    1  UNL1       -0.2273
     21 C         -29.0863   47.1938   -2.9199 C.ar    1  UNL1        0.0885
     22 C         -27.7605   47.0342   -2.5623 C.ar    1  UNL1        0.0537
     23 C         -26.7557   48.1366   -2.3967 C.3     1  UNL1        0.0514
     24 C         -25.8228   44.2664   -3.6048 C.3     1  UNL1        0.0265
     25 C         -26.2084   45.0423   -2.3507 C.3     1  UNL1        0.1073
     26 C         -24.6928   51.6700  -10.0088 C.ar    1  UNL1        0.0339
     27 C         -24.1161   52.0829  -11.2184 C.ar    1  UNL1        0.0027
     28 C         -22.7473   52.3539  -11.2960 C.ar    1  UNL1       -0.0042
     29 C         -21.9085   52.2208  -10.1674 C.ar    1  UNL1       -0.0228
     30 C         -22.5047   51.8113   -8.9530 C.ar    1  UNL1       -0.0042
     31 C         -23.8726   51.5401   -8.8803 C.ar    1  UNL1        0.0027
     32 C         -20.4002   52.5167  -10.2974 C.3     1  UNL1        0.0189
     33 C         -19.7085   52.2706   -8.9392 C.3     1  UNL1        0.0044
     34 C         -20.1989   53.9893  -10.7165 C.3     1  UNL1        0.0044
     35 C         -19.6961   51.6287  -11.3520 C.3     1  UNL1        0.0044
     36 C         -29.6785   51.6404  -12.4010 C.3     1  UNL1        0.1702
     37 O         -29.3284   53.0074  -12.5006 O.3     1  UNL1       -0.3463
     38 C         -30.4834   53.8139  -12.4207 C.3     1  UNL1        0.1746
@<TRIPOS>BOND
     1    24    25    1
     2    25    18    1
     3    18    19   ar
     4    19    20   ar
     5    20    21   ar
     6    21    17    1
     7    17    11    1
     8    11    12    1
     9    12    13    1
    10    13    14    1
    11    14     1    1
    12     1     2   ar
    13     2     3   ar
    14     3     4   ar
    15     4    36    1
    16    36    37    1
    17    37    38    1
    18     4     5   ar
    19     5     6   ar
    20     6     7   ar
    21     7    26    1
    22    26    27   ar
    23    27    28   ar
    24    28    29   ar
    25    29    32    1
    26    32    33    1
    27    32    34    1
    28    32    35    1
    29    29    30   ar
    30    30    31   ar
    31     7     8   ar
    32     8     9   ar
    33    14    15    1
    34    15    16    1
    35    21    22   ar
    36    22    23    1
    37    22    18   ar
    38    16    11    1
    39     9     1   ar
    40     9     5   ar
    41    31    26   ar
    42     6    10    1
@<TRIPOS>MOLECULE
*****
 38 42 0 0 0
SMALL
GASTEIGER

@<TRIPOS>ATOM
      1 C         -29.6186   49.3305   -8.8976 C.ar    1  UNL1        0.0672
      2 C         -30.9253   49.5249   -9.3941 C.ar    1  UNL1        0.0159
      3 C         -31.1613   50.4051  -10.4729 C.ar    1  UNL1        0.0009
      4 C         -30.0952   51.1078  -11.0757 C.ar    1  UNL1        0.0245
      5 C         -28.8146   50.8999  -10.5495 C.ar    1  UNL1        0.0751
      6 N         -27.6566   51.4701  -10.9145 N.ar    1  UNL1       -0.3375
      7 C         -26.7437   50.9460  -10.0564 C.ar    1  UNL1        0.1405
      8 N         -27.2849   50.0716   -9.1670 N.ar    1  UNL1       -0.2258
      9 C         -28.5864   50.0523   -9.5052 C.ar    1  UNL1        0.1114
     10 H         -27.5089   52.1797  -11.6654 H       1  UNL1        0.1674
     11 N         -30.0149   46.7195   -5.8566 N.3     1  UNL1       -0.2647
     12 C         -29.4226   46.0546   -7.0359 C.3     1  UNL1        0.0941
     13 C         -28.9012   47.0624   -8.0866 C.3     1  UNL1        0.1082
     14 N         -29.3630   48.4293   -7.8072 N.pl3   1  UNL1       -0.3034
     15 C         -29.2881   48.9673   -6.4413 C.3     1  UNL1        0.1082
     16 C         -29.1671   47.8402   -5.4164 C.3     1  UNL1        0.0941
     17 C         -30.2540   45.7539   -4.7673 C.3     1  UNL1        0.1200
     18 N         -27.1278   44.7421   -3.1497 N.ar    1  UNL1       -0.3128
     19 C         -27.0916   44.1197   -4.3464 C.ar    1  UNL1        0.1780
     20 N         -28.1950   44.3496   -5.0902 N.ar    1  UNL1       -0.2273
     21 C         -28.9533   45.1544   -4.3183 C.ar    1  UNL1        0.0885
     22 C         -28.3072   45.3959   -3.1203 C.ar    1  UNL1        0.0537
     23 C         -28.7600   46.3500   -2.0540 C.3     1  UNL1        0.0514
     24 C         -24.9116   45.6908   -2.6895 C.3     1  UNL1        0.0265
     25 C         -26.0329   44.7931   -2.1791 C.3     1  UNL1        0.1073
     26 C         -25.3018   51.2871  -10.0645 C.ar    1  UNL1        0.0339
     27 C         -24.5455   51.2854   -8.8837 C.ar    1  UNL1        0.0027
     28 C         -23.1928   51.6356   -8.9069 C.ar    1  UNL1       -0.0042
     29 C         -22.5503   51.9998  -10.1108 C.ar    1  UNL1       -0.0228
     30 C         -23.3229   51.9895  -11.2945 C.ar    1  UNL1       -0.0042
     31 C         -24.6746   51.6405  -11.2666 C.ar    1  UNL1        0.0027
     32 C         -21.0587   52.3926  -10.0923 C.3     1  UNL1        0.0189
     33 C         -20.2501   51.3828  -10.9352 C.3     1  UNL1        0.0044
     34 C         -20.5407   52.3779   -8.6376 C.3     1  UNL1        0.0044
     35 C         -20.7957   53.8048  -10.6694 C.3     1  UNL1        0.0044
     36 C         -30.3385   52.0688  -12.2095 C.3     1  UNL1        0.1702
     37 O         -29.7217   53.3146  -11.9477 O.3     1  UNL1       -0.3463
     38 C         -30.5100   54.3666  -12.4603 C.3     1  UNL1        0.1746
@<TRIPOS>BOND
     1    24    25    1
     2    25    18    1
     3    18    19   ar
     4    19    20   ar
     5    20    21   ar
     6    21    17    1
     7    17    11    1
     8    11    12    1
     9    12    13    1
    10    13    14    1
    11    14     1    1
    12     1     2   ar
    13     2     3   ar
    14     3     4   ar
    15     4    36    1
    16    36    37    1
    17    37    38    1
    18     4     5   ar
    19     5     6   ar
    20     6     7   ar
    21     7    26    1
    22    26    27   ar
    23    27    28   ar
    24    28    29   ar
    25    29    32    1
    26    32    33    1
    27    32    34    1
    28    32    35    1
    29    29    30   ar
    30    30    31   ar
    31     7     8   ar
    32     8     9   ar
    33    14    15    1
    34    15    16    1
    35    21    22   ar
    36    22    23    1
    37    22    18   ar
    38    16    11    1
    39     9     1   ar
    40     9     5   ar
    41    31    26   ar
    42     6    10    1
@<TRIPOS>MOLECULE
*****
 38 42 0 0 0
SMALL
GASTEIGER

@<TRIPOS>ATOM
      1 C         -30.0970   47.9185   -8.2499 C.ar    1  UNL1        0.0672
      2 C         -31.0914   47.8428   -7.2512 C.ar    1  UNL1        0.0159
      3 C         -31.0319   48.6759   -6.1125 C.ar    1  UNL1        0.0009
      4 C         -29.9769   49.6003   -5.9505 C.ar    1  UNL1        0.0245
      5 C         -29.0020   49.6393   -6.9546 C.ar    1  UNL1        0.0751
      6 N         -27.8932   50.3916   -7.0163 N.ar    1  UNL1       -0.3375
      7 C         -27.2926   50.0035   -8.1709 C.ar    1  UNL1        0.1405
      8 N         -27.9809   49.0362   -8.8337 N.ar    1  UNL1       -0.2258
      9 C         -29.0571   48.8325   -8.0533 C.ar    1  UNL1        0.1114
     10 H         -27.5602   51.0880   -6.3139 H       1  UNL1        0.1674
     11 N         -29.9579   46.5332  -12.0294 N.3     1  UNL1       -0.2647
     12 C         -28.8331   45.9923  -11.2380 C.3     1  UNL1        0.0941
     13 C         -29.0362   46.1741   -9.7158 C.3     1  UNL1        0.1082
     14 N         -30.1514   47.0841   -9.4193 N.pl3   1  UNL1       -0.3034
     15 C         -31.4282   46.9416  -10.1336 C.3     1  UNL1        0.1082
     16 C         -31.2449   46.1478  -11.4264 C.3     1  UNL1        0.0941
     17 C         -29.8661   46.1105  -13.4397 C.3     1  UNL1        0.1200
     18 N         -30.5298   48.4814  -16.1512 N.ar    1  UNL1       -0.3128
     19 C         -30.2917   49.2684  -15.0812 C.ar    1  UNL1        0.1780
     20 N         -30.0527   48.5632  -13.9547 N.ar    1  UNL1       -0.2273
     21 C         -30.1463   47.2754  -14.3438 C.ar    1  UNL1        0.0885
     22 C         -30.4455   47.2159  -15.6921 C.ar    1  UNL1        0.0537
     23 C         -30.4972   45.9699  -16.5270 C.3     1  UNL1        0.0514
     24 C         -29.3747   49.4870  -18.0689 C.3     1  UNL1        0.0265
     25 C         -30.6927   48.9412  -17.5315 C.3     1  UNL1        0.1073
     26 C         -26.0123   50.5572   -8.6703 C.ar    1  UNL1        0.0339
     27 C         -24.8648   50.5813   -7.8647 C.ar    1  UNL1        0.0027
     28 C         -23.6728   51.1318   -8.3438 C.ar    1  UNL1       -0.0042
     29 C         -23.5876   51.6770   -9.6439 C.ar    1  UNL1       -0.0228
     30 C         -24.7498   51.6388  -10.4476 C.ar    1  UNL1       -0.0042
     31 C         -25.9391   51.0893   -9.9644 C.ar    1  UNL1        0.0027
     32 C         -22.2571   52.2872  -10.1308 C.3     1  UNL1        0.0189
     33 C         -21.3329   52.5392   -8.9199 C.3     1  UNL1        0.0044
     34 C         -22.5370   53.6247  -10.8500 C.3     1  UNL1        0.0044
     35 C         -21.4964   51.3724  -11.1213 C.3     1  UNL1        0.0044
     36 C         -29.8891   50.4752   -4.7278 C.3     1  UNL1        0.1702
     37 O         -29.8562   51.8411   -5.0940 O.3     1  UNL1       -0.3463
     38 C         -31.1372   52.4154   -4.9518 C.3     1  UNL1        0.1746
@<TRIPOS>BOND
     1    24    25    1
     2    25    18    1
     3    18    19   ar
     4    19    20   ar
     5    20    21   ar
     6    21    17    1
     7    17    11    1
     8    11    12    1
     9    12    13    1
    10    13    14    1
    11    14     1    1
    12     1     2   ar
    13     2     3   ar
    14     3     4   ar
    15     4    36    1
    16    36    37    1
    17    37    38    1
    18     4     5   ar
    19     5     6   ar
    20     6     7   ar
    21     7    26    1
    22    26    27   ar
    23    27    28   ar
    24    28    29   ar
    25    29    32    1
    26    32    33    1
    27    32    34    1
    28    32    35    1
    29    29    30   ar
    30    30    31   ar
    31     7     8   ar
    32     8     9   ar
    33    14    15    1
    34    15    16    1
    35    21    22   ar
    36    22    23    1
    37    22    18   ar
    38    16    11    1
    39     9     1   ar
    40     9     5   ar
    41    31    26   ar
    42     6    10    1
