@<TRIPOS>MOLECULE
*****
 32 36 0 0 0
SMALL
GASTEIGER

@<TRIPOS>ATOM
      1 C         -24.8742   -8.5604  -10.9169 C.3     1  UNL1        0.0643
      2 C         -25.0824   -8.8627  -12.4429 C.3     1  UNL1        0.0217
      3 C         -23.8366   -9.4854  -13.0954 C.3     1  UNL1        0.0346
      4 C         -23.3390  -10.7924  -12.3976 C.3     1  UNL1        0.1252
      5 C         -24.1647  -11.0946  -11.1170 C.3     1  UNL1        0.0346
      6 C         -24.3468   -9.8746  -10.1949 C.3     1  UNL1        0.0217
      7 O         -21.9551  -10.5912  -12.0676 O.3     1  UNL1       -0.3527
      8 C         -21.2077  -11.7867  -11.8519 C.3     1  UNL1        0.1472
      9 C         -21.1019  -12.6362  -13.1270 C.3     1  UNL1        0.0597
     10 C         -22.4710  -12.8026  -13.6750 C.ar    1  UNL1       -0.0045
     11 C         -22.9785  -13.7136  -14.5727 C.ar    1  UNL1        0.0151
     12 C         -22.3891  -14.7884  -15.2347 C.ar    1  UNL1        0.0308
     13 C         -23.1986  -15.5440  -16.1034 C.ar    1  UNL1        0.1402
     14 F         -22.6691  -16.5994  -16.7691 F       1  UNL1       -0.2042
     15 C         -24.5602  -15.2094  -16.2859 C.ar    1  UNL1        0.0311
     16 C         -25.1260  -14.1162  -15.6030 C.ar    1  UNL1        0.0193
     17 C         -24.3023  -13.3848  -14.7491 C.ar    1  UNL1        0.0563
     18 N         -24.6396  -12.3077  -14.0122 N.ar    1  UNL1       -0.3549
     19 C         -23.5035  -11.9487  -13.3675 C.ar    1  UNL1        0.0544
     20 H         -25.5746  -11.8456  -13.9569 H       1  UNL1        0.1657
     21 C         -23.8729   -7.3563  -10.8492 C.ar    1  UNL1       -0.0109
     22 C         -23.9950   -6.2698  -11.7554 C.ar    1  UNL1       -0.0033
     23 C         -23.0833   -5.2174  -11.7715 C.ar    1  UNL1       -0.0003
     24 C         -22.0284   -5.1941  -10.8744 C.ar    1  UNL1       -0.0003
     25 C         -21.9116   -6.1943   -9.9179 C.ar    1  UNL1       -0.0021
     26 C         -22.8490   -7.2457   -9.8378 C.ar    1  UNL1        0.0042
     27 C         -22.6536   -8.2364   -8.7005 C.3     1  UNL1        0.1633
     28 O         -23.5557   -7.9761   -7.6580 O.3     1  UNL1       -0.3772
     29 H         -23.3176   -8.5976   -6.9214 H       1  UNL1        0.2109
     30 C         -26.6474   -9.0479   -9.2061 C.3     1  UNL1        0.0898
     31 N         -26.1629   -8.1368  -10.2677 N.3     1  UNL1       -0.2693
     32 C         -27.2639   -7.7663  -11.1810 C.3     1  UNL1        0.0898
@<TRIPOS>BOND
     1    30    31    1
     2    31    32    1
     3     1    31    1
     4     1    21    1
     5    21    22   ar
     6    22    23   ar
     7    23    24   ar
     8    24    25   ar
     9    25    26   ar
    10    26    27    1
    11    27    28    1
    12     1     2    1
    13     2     3    1
    14     3     4    1
    15     4     5    1
    16     5     6    1
    17     4     7    1
    18     7     8    1
    19     8     9    1
    20     9    10    1
    21    10    11   ar
    22    11    12   ar
    23    12    13   ar
    24    13    14    1
    25    13    15   ar
    26    15    16   ar
    27    16    17   ar
    28    17    18   ar
    29    18    19   ar
    30     6     1    1
    31    19    10   ar
    32    26    21   ar
    33    19     4    1
    34    17    11   ar
    35    28    29    1
    36    18    20    1
@<TRIPOS>MOLECULE
*****
 32 36 0 0 0
SMALL
GASTEIGER

@<TRIPOS>ATOM
      1 C         -22.1882   -9.6697  -11.2506 C.3     1  UNL1        0.0643
      2 C         -21.6844   -8.5648  -12.2449 C.3     1  UNL1        0.0217
      3 C         -21.4367   -9.1143  -13.6599 C.3     1  UNL1        0.0346
      4 C         -22.6787   -9.8193  -14.2949 C.3     1  UNL1        0.1252
      5 C         -23.8547   -9.9034  -13.2836 C.3     1  UNL1        0.0346
      6 C         -23.4392  -10.4124  -11.8908 C.3     1  UNL1        0.0217
      7 O         -22.2584  -11.1361  -14.6878 O.3     1  UNL1       -0.3527
      8 C         -23.0786  -11.7607  -15.6734 C.3     1  UNL1        0.1472
      9 C         -23.0396  -11.0105  -17.0129 C.3     1  UNL1        0.0597
     10 C         -23.3124   -9.5779  -16.7375 C.ar    1  UNL1       -0.0045
     11 C         -23.7150   -8.5600  -17.5712 C.ar    1  UNL1        0.0151
     12 C         -24.0253   -8.5432  -18.9293 C.ar    1  UNL1        0.0308
     13 C         -24.4160   -7.3151  -19.4949 C.ar    1  UNL1        0.1402
     14 F         -24.7282   -7.2501  -20.8125 F       1  UNL1       -0.2042
     15 C         -24.4853   -6.1493  -18.6979 C.ar    1  UNL1        0.0311
     16 C         -24.1640   -6.1990  -17.3284 C.ar    1  UNL1        0.0193
     17 C         -23.7800   -7.4275  -16.7936 C.ar    1  UNL1        0.0563
     18 N         -23.4280   -7.6900  -15.5192 N.ar    1  UNL1       -0.3549
     19 C         -23.1280   -9.0110  -15.4988 C.ar    1  UNL1        0.0544
     20 H         -23.3880   -7.0170  -14.7216 H       1  UNL1        0.1657
     21 C         -20.9598  -10.6084  -10.9915 C.ar    1  UNL1       -0.0109
     22 C         -20.9115  -11.9035  -11.5719 C.ar    1  UNL1       -0.0033
     23 C         -19.8714  -12.7910  -11.3084 C.ar    1  UNL1       -0.0003
     24 C         -18.8299  -12.4180  -10.4752 C.ar    1  UNL1       -0.0003
     25 C         -18.7931  -11.1345   -9.9460 C.ar    1  UNL1       -0.0021
     26 C         -19.8019  -10.1919  -10.2370 C.ar    1  UNL1        0.0042
     27 C         -19.6086   -8.7989   -9.6581 C.3     1  UNL1        0.1633
     28 O         -20.2454   -8.6885   -8.4127 O.3     1  UNL1       -0.3772
     29 H         -20.1537   -7.7397   -8.1356 H       1  UNL1        0.2109
     30 C         -23.4244   -9.9565   -9.0830 C.3     1  UNL1        0.0898
     31 N         -22.6044   -9.0675   -9.9369 N.3     1  UNL1       -0.2693
     32 C         -23.1911   -7.7126   -9.9958 C.3     1  UNL1        0.0898
@<TRIPOS>BOND
     1    30    31    1
     2    31    32    1
     3     1    31    1
     4     1    21    1
     5    21    22   ar
     6    22    23   ar
     7    23    24   ar
     8    24    25   ar
     9    25    26   ar
    10    26    27    1
    11    27    28    1
    12     1     2    1
    13     2     3    1
    14     3     4    1
    15     4     5    1
    16     5     6    1
    17     4     7    1
    18     7     8    1
    19     8     9    1
    20     9    10    1
    21    10    11   ar
    22    11    12   ar
    23    12    13   ar
    24    13    14    1
    25    13    15   ar
    26    15    16   ar
    27    16    17   ar
    28    17    18   ar
    29    18    19   ar
    30     6     1    1
    31    19    10   ar
    32    26    21   ar
    33    19     4    1
    34    17    11   ar
    35    28    29    1
    36    18    20    1
@<TRIPOS>MOLECULE
*****
 32 36 0 0 0
SMALL
GASTEIGER

@<TRIPOS>ATOM
      1 C         -23.8591   -9.0058  -10.9764 C.3     1  UNL1        0.0643
      2 C         -23.9229   -7.5016  -11.4199 C.3     1  UNL1        0.0217
      3 C         -23.1586   -7.2403  -12.7287 C.3     1  UNL1        0.0346
      4 C         -23.6272   -8.1276  -13.9270 C.3     1  UNL1        0.1252
      5 C         -24.6927   -9.1638  -13.4755 C.3     1  UNL1        0.0346
      6 C         -24.3122   -9.9247  -12.1917 C.3     1  UNL1        0.0217
      7 O         -22.4610   -8.7949  -14.4362 O.3     1  UNL1       -0.3527
      8 C         -22.5788   -9.2762  -15.7737 C.3     1  UNL1        0.1472
      9 C         -22.7465   -8.1315  -16.7837 C.3     1  UNL1        0.0597
     10 C         -23.8417   -7.2558  -16.2977 C.ar    1  UNL1       -0.0045
     11 C         -24.6049   -6.3177  -16.9540 C.ar    1  UNL1        0.0151
     12 C         -24.6227   -5.9046  -18.2843 C.ar    1  UNL1        0.0308
     13 C         -25.5454   -4.9051  -18.6457 C.ar    1  UNL1        0.1402
     14 F         -25.5997   -4.4715  -19.9289 F       1  UNL1       -0.2042
     15 C         -26.4159   -4.3508  -17.6792 C.ar    1  UNL1        0.0311
     16 C         -26.3724   -4.7890  -16.3422 C.ar    1  UNL1        0.0193
     17 C         -25.4494   -5.7795  -16.0112 C.ar    1  UNL1        0.0563
     18 N         -25.2413   -6.3307  -14.7988 N.ar    1  UNL1       -0.3549
     19 C         -24.2412   -7.2258  -14.9827 C.ar    1  UNL1        0.0544
     20 H         -25.7396   -6.1087  -13.9082 H       1  UNL1        0.1657
     21 C         -22.3832   -9.2552  -10.5107 C.ar    1  UNL1       -0.0109
     22 C         -21.5302  -10.1104  -11.2573 C.ar    1  UNL1       -0.0033
     23 C         -20.2370  -10.4111  -10.8374 C.ar    1  UNL1       -0.0003
     24 C         -19.7354   -9.8571   -9.6713 C.ar    1  UNL1       -0.0003
     25 C         -20.5039   -8.9541   -8.9482 C.ar    1  UNL1       -0.0021
     26 C         -21.7971   -8.5848   -9.3747 C.ar    1  UNL1        0.0042
     27 C         -22.5066   -7.5316   -8.5379 C.3     1  UNL1        0.1633
     28 O         -23.3850   -8.1349   -7.6253 O.3     1  UNL1       -0.3772
     29 H         -23.8727   -7.3955   -7.1770 H       1  UNL1        0.2109
     30 C         -24.8808  -10.6892   -9.4171 C.3     1  UNL1        0.0898
     31 N         -24.7703   -9.2656   -9.8086 N.3     1  UNL1       -0.2693
     32 C         -26.1053   -8.6350   -9.8684 C.3     1  UNL1        0.0898
@<TRIPOS>BOND
     1    30    31    1
     2    31    32    1
     3     1    31    1
     4     1    21    1
     5    21    22   ar
     6    22    23   ar
     7    23    24   ar
     8    24    25   ar
     9    25    26   ar
    10    26    27    1
    11    27    28    1
    12     1     2    1
    13     2     3    1
    14     3     4    1
    15     4     5    1
    16     5     6    1
    17     4     7    1
    18     7     8    1
    19     8     9    1
    20     9    10    1
    21    10    11   ar
    22    11    12   ar
    23    12    13   ar
    24    13    14    1
    25    13    15   ar
    26    15    16   ar
    27    16    17   ar
    28    17    18   ar
    29    18    19   ar
    30     6     1    1
    31    19    10   ar
    32    26    21   ar
    33    19     4    1
    34    17    11   ar
    35    28    29    1
    36    18    20    1
@<TRIPOS>MOLECULE
*****
 32 36 0 0 0
SMALL
GASTEIGER

@<TRIPOS>ATOM
      1 C         -24.1141   -7.3528  -11.8337 C.3     1  UNL1        0.0643
      2 C         -23.4192   -7.4650  -13.2366 C.3     1  UNL1        0.0217
      3 C         -22.2120   -8.4177  -13.2215 C.3     1  UNL1        0.0346
      4 C         -22.5460   -9.8600  -12.7204 C.3     1  UNL1        0.1252
      5 C         -24.0188   -9.9593  -12.2366 C.3     1  UNL1        0.0346
      6 C         -24.4416   -8.8133  -11.2987 C.3     1  UNL1        0.0217
      7 O         -21.6419  -10.1494  -11.6417 O.3     1  UNL1       -0.3527
      8 C         -21.4687  -11.5362  -11.3571 C.3     1  UNL1        0.1472
      9 C         -20.8079  -12.2842  -12.5244 C.3     1  UNL1        0.0597
     10 C         -21.5612  -11.9521  -13.7592 C.ar    1  UNL1       -0.0045
     11 C         -21.6113  -12.5815  -14.9818 C.ar    1  UNL1        0.0151
     12 C         -21.0015  -13.7428  -15.4513 C.ar    1  UNL1        0.0308
     13 C         -21.2652  -14.1281  -16.7790 C.ar    1  UNL1        0.1402
     14 F         -20.6947  -15.2513  -17.2797 F       1  UNL1       -0.2042
     15 C         -22.1212  -13.3517  -17.5935 C.ar    1  UNL1        0.0311
     16 C         -22.7213  -12.1822  -17.0898 C.ar    1  UNL1        0.0193
     17 C         -22.4433  -11.8232  -15.7720 C.ar    1  UNL1        0.0563
     18 N         -22.9050  -10.7480  -15.1030 N.ar    1  UNL1       -0.3549
     19 C         -22.3451  -10.8285  -13.8721 C.ar    1  UNL1        0.0544
     20 H         -23.5497  -10.0083  -15.4606 H       1  UNL1        0.1657
     21 C         -23.1194   -6.5538  -10.9231 C.ar    1  UNL1       -0.0109
     22 C         -22.6505   -5.2744  -11.3228 C.ar    1  UNL1       -0.0033
     23 C         -21.7134   -4.5661  -10.5751 C.ar    1  UNL1       -0.0003
     24 C         -21.2226   -5.0925   -9.3919 C.ar    1  UNL1       -0.0003
     25 C         -21.7088   -6.3049   -8.9200 C.ar    1  UNL1       -0.0021
     26 C         -22.6987   -7.0224   -9.6242 C.ar    1  UNL1        0.0042
     27 C         -23.2017   -8.2978   -8.9662 C.3     1  UNL1        0.1633
     28 O         -23.5542   -8.0584   -7.6294 O.3     1  UNL1       -0.3772
     29 H         -23.7890   -8.9410   -7.2404 H       1  UNL1        0.2109
     30 C         -26.5567   -7.2141  -11.2649 C.3     1  UNL1        0.0898
     31 N         -25.3968   -6.5731  -11.9252 N.3     1  UNL1       -0.2693
     32 C         -25.7670   -6.0790  -13.2676 C.3     1  UNL1        0.0898
@<TRIPOS>BOND
     1    30    31    1
     2    31    32    1
     3     1    31    1
     4     1    21    1
     5    21    22   ar
     6    22    23   ar
     7    23    24   ar
     8    24    25   ar
     9    25    26   ar
    10    26    27    1
    11    27    28    1
    12     1     2    1
    13     2     3    1
    14     3     4    1
    15     4     5    1
    16     5     6    1
    17     4     7    1
    18     7     8    1
    19     8     9    1
    20     9    10    1
    21    10    11   ar
    22    11    12   ar
    23    12    13   ar
    24    13    14    1
    25    13    15   ar
    26    15    16   ar
    27    16    17   ar
    28    17    18   ar
    29    18    19   ar
    30     6     1    1
    31    19    10   ar
    32    26    21   ar
    33    19     4    1
    34    17    11   ar
    35    28    29    1
    36    18    20    1
@<TRIPOS>MOLECULE
*****
 32 36 0 0 0
SMALL
GASTEIGER

@<TRIPOS>ATOM
      1 C         -22.0752   -8.3812  -11.1851 C.3     1  UNL1        0.0643
      2 C         -22.3970   -8.3839   -9.6489 C.3     1  UNL1        0.0217
      3 C         -21.5710   -9.4257   -8.8758 C.3     1  UNL1        0.0346
      4 C         -20.0259   -9.2730   -9.0553 C.3     1  UNL1        0.1252
      5 C         -19.6874   -8.1587  -10.0833 C.3     1  UNL1        0.0346
      6 C         -20.5040   -8.2484  -11.3859 C.3     1  UNL1        0.0217
      7 O         -19.5285  -10.5427   -9.5083 O.3     1  UNL1       -0.3527
      8 C         -18.1338  -10.7531   -9.2968 C.3     1  UNL1        0.1472
      9 C         -17.7791  -10.7964   -7.8032 C.3     1  UNL1        0.0597
     10 C         -18.3710   -9.5957   -7.1624 C.ar    1  UNL1       -0.0045
     11 C         -18.0904   -8.9829   -5.9628 C.ar    1  UNL1        0.0151
     12 C         -17.1479   -9.2656   -4.9766 C.ar    1  UNL1        0.0308
     13 C         -17.1133   -8.4273   -3.8466 C.ar    1  UNL1        0.1402
     14 F         -16.2128   -8.6630   -2.8611 F       1  UNL1       -0.2042
     15 C         -18.0113   -7.3412   -3.7328 C.ar    1  UNL1        0.0311
     16 C         -18.9532   -7.0825   -4.7465 C.ar    1  UNL1        0.0193
     17 C         -18.9662   -7.9280   -5.8545 C.ar    1  UNL1        0.0563
     18 N         -19.7839   -7.8613   -6.9239 N.ar    1  UNL1       -0.3549
     19 C         -19.4199   -8.8995   -7.7145 C.ar    1  UNL1        0.0544
     20 H         -20.5405   -7.1633   -7.1003 H       1  UNL1        0.1657
     21 C         -22.6751   -9.7134  -11.7530 C.ar    1  UNL1       -0.0109
     22 C         -21.8270  -10.6886  -12.3416 C.ar    1  UNL1       -0.0033
     23 C         -22.3305  -11.8513  -12.9191 C.ar    1  UNL1       -0.0003
     24 C         -23.6931  -12.0990  -12.9150 C.ar    1  UNL1       -0.0003
     25 C         -24.5554  -11.2127  -12.2828 C.ar    1  UNL1       -0.0021
     26 C         -24.0734  -10.0530  -11.6399 C.ar    1  UNL1        0.0042
     27 C         -25.1089   -9.2028  -10.9202 C.3     1  UNL1        0.1633
     28 O         -25.5183   -8.1323  -11.7295 O.3     1  UNL1       -0.3772
     29 H         -26.1224   -7.5760  -11.1717 H       1  UNL1        0.2109
     30 C         -22.5423   -7.1841  -13.3433 C.3     1  UNL1        0.0898
     31 N         -22.7497   -7.2295  -11.8780 N.3     1  UNL1       -0.2693
     32 C         -22.5424   -5.8945  -11.2793 C.3     1  UNL1        0.0898
@<TRIPOS>BOND
     1    30    31    1
     2    31    32    1
     3     1    31    1
     4     1    21    1
     5    21    22   ar
     6    22    23   ar
     7    23    24   ar
     8    24    25   ar
     9    25    26   ar
    10    26    27    1
    11    27    28    1
    12     1     2    1
    13     2     3    1
    14     3     4    1
    15     4     5    1
    16     5     6    1
    17     4     7    1
    18     7     8    1
    19     8     9    1
    20     9    10    1
    21    10    11   ar
    22    11    12   ar
    23    12    13   ar
    24    13    14    1
    25    13    15   ar
    26    15    16   ar
    27    16    17   ar
    28    17    18   ar
    29    18    19   ar
    30     6     1    1
    31    19    10   ar
    32    26    21   ar
    33    19     4    1
    34    17    11   ar
    35    28    29    1
    36    18    20    1
@<TRIPOS>MOLECULE
*****
 32 36 0 0 0
SMALL
GASTEIGER

@<TRIPOS>ATOM
      1 C         -25.4791   -7.1661  -12.2443 C.3     1  UNL1        0.0643
      2 C         -26.3556   -5.8945  -11.9644 C.3     1  UNL1        0.0217
      3 C         -26.2501   -4.8478  -13.0863 C.3     1  UNL1        0.0346
      4 C         -26.6152   -5.3956  -14.5039 C.3     1  UNL1        0.1252
      5 C         -26.8897   -6.9239  -14.4617 C.3     1  UNL1        0.0346
      6 C         -25.8223   -7.7243  -13.6925 C.3     1  UNL1        0.0217
      7 O         -25.5009   -5.1085  -15.3644 O.3     1  UNL1       -0.3527
      8 C         -25.8020   -5.1062  -16.7586 C.3     1  UNL1        0.1472
      9 C         -26.7803   -3.9832  -17.1333 C.3     1  UNL1        0.0597
     10 C         -27.9374   -4.0632  -16.2075 C.ar    1  UNL1       -0.0045
     11 C         -29.2065   -3.5400  -16.3029 C.ar    1  UNL1        0.0151
     12 C         -29.8285   -2.7952  -17.3025 C.ar    1  UNL1        0.0308
     13 C         -31.1653   -2.4081  -17.0927 C.ar    1  UNL1        0.1402
     14 F         -31.8121   -1.6828  -18.0377 F       1  UNL1       -0.2042
     15 C         -31.8376   -2.7710  -15.9030 C.ar    1  UNL1        0.0311
     16 C         -31.1808   -3.5234  -14.9111 C.ar    1  UNL1        0.0193
     17 C         -29.8573   -3.8935  -15.1440 C.ar    1  UNL1        0.0563
     18 N         -29.0514   -4.6025  -14.3288 N.ar    1  UNL1       -0.3549
     19 C         -27.8694   -4.6883  -14.9852 C.ar    1  UNL1        0.0544
     20 H         -29.2865   -4.9944  -13.3897 H       1  UNL1        0.1657
     21 C         -23.9894   -6.7070  -12.0800 C.ar    1  UNL1       -0.0109
     22 C         -23.6700   -5.5824  -11.2738 C.ar    1  UNL1       -0.0033
     23 C         -22.3677   -5.1029  -11.1602 C.ar    1  UNL1       -0.0003
     24 C         -21.3307   -5.7349  -11.8262 C.ar    1  UNL1       -0.0003
     25 C         -21.5814   -6.8844  -12.5641 C.ar    1  UNL1       -0.0021
     26 C         -22.8798   -7.4290  -12.6553 C.ar    1  UNL1        0.0042
     27 C         -23.0107   -8.7309  -13.4304 C.3     1  UNL1        0.1633
     28 O         -22.4190   -9.7886  -12.7235 O.3     1  UNL1       -0.3772
     29 H         -22.4637  -10.5816  -13.3190 H       1  UNL1        0.2109
     30 C         -27.0709   -8.1480  -10.5677 C.3     1  UNL1        0.0898
     31 N         -25.7521   -8.2456  -11.2335 N.3     1  UNL1       -0.2693
     32 C         -24.6846   -8.4995  -10.2439 C.3     1  UNL1        0.0898
@<TRIPOS>BOND
     1    30    31    1
     2    31    32    1
     3     1    31    1
     4     1    21    1
     5    21    22   ar
     6    22    23   ar
     7    23    24   ar
     8    24    25   ar
     9    25    26   ar
    10    26    27    1
    11    27    28    1
    12     1     2    1
    13     2     3    1
    14     3     4    1
    15     4     5    1
    16     5     6    1
    17     4     7    1
    18     7     8    1
    19     8     9    1
    20     9    10    1
    21    10    11   ar
    22    11    12   ar
    23    12    13   ar
    24    13    14    1
    25    13    15   ar
    26    15    16   ar
    27    16    17   ar
    28    17    18   ar
    29    18    19   ar
    30     6     1    1
    31    19    10   ar
    32    26    21   ar
    33    19     4    1
    34    17    11   ar
    35    28    29    1
    36    18    20    1
@<TRIPOS>MOLECULE
*****
 32 36 0 0 0
SMALL
GASTEIGER

@<TRIPOS>ATOM
      1 C         -23.3850  -11.1585  -14.5231 C.3     1  UNL1        0.0643
      2 C         -21.9171  -11.7116  -14.4711 C.3     1  UNL1        0.0217
      3 C         -20.9458  -10.7404  -13.7792 C.3     1  UNL1        0.0346
      4 C         -21.3724  -10.3385  -12.3303 C.3     1  UNL1        0.1252
      5 C         -22.7612  -10.9330  -11.9686 C.3     1  UNL1        0.0346
      6 C         -23.8279  -10.7242  -13.0596 C.3     1  UNL1        0.0217
      7 O         -21.4138   -8.9028  -12.2881 O.3     1  UNL1       -0.3527
      8 C         -21.3306   -8.3364  -10.9817 C.3     1  UNL1        0.1472
      9 C         -19.9784   -8.6272  -10.3143 C.3     1  UNL1        0.0597
     10 C         -19.7261  -10.0859  -10.4193 C.ar    1  UNL1       -0.0045
     11 C         -18.8665  -10.9049   -9.7238 C.ar    1  UNL1        0.0151
     12 C         -17.9794  -10.6447   -8.6817 C.ar    1  UNL1        0.0308
     13 C         -17.2304  -11.7239   -8.1765 C.ar    1  UNL1        0.1402
     14 F         -16.3548  -11.5191   -7.1621 F       1  UNL1       -0.2042
     15 C         -17.3856  -13.0199   -8.7200 C.ar    1  UNL1        0.0311
     16 C         -18.2898  -13.2501   -9.7739 C.ar    1  UNL1        0.0193
     17 C         -19.0188  -12.1641  -10.2556 C.ar    1  UNL1        0.0563
     18 N         -19.9240  -12.1656  -11.2542 N.ar    1  UNL1       -0.3549
     19 C         -20.3416  -10.8809  -11.3568 C.ar    1  UNL1        0.0544
     20 H         -20.2310  -12.9813  -11.8297 H       1  UNL1        0.1657
     21 C         -23.3642   -9.9780  -15.5541 C.ar    1  UNL1       -0.0109
     22 C         -23.4583   -8.6334  -15.1073 C.ar    1  UNL1       -0.0033
     23 C         -23.5136   -7.5632  -15.9965 C.ar    1  UNL1       -0.0003
     24 C         -23.4563   -7.7870  -17.3621 C.ar    1  UNL1       -0.0003
     25 C         -23.2859   -9.0779  -17.8449 C.ar    1  UNL1       -0.0021
     26 C         -23.1708  -10.1790  -16.9703 C.ar    1  UNL1        0.0042
     27 C         -22.9122  -11.5299  -17.6193 C.3     1  UNL1        0.1633
     28 O         -24.1183  -12.2135  -17.8351 O.3     1  UNL1       -0.3772
     29 H         -23.8723  -13.1123  -18.1773 H       1  UNL1        0.2109
     30 C         -25.7712  -11.8868  -14.8143 C.3     1  UNL1        0.0898
     31 N         -24.3408  -12.2048  -15.0263 N.3     1  UNL1       -0.2693
     32 C         -24.0513  -13.5988  -14.6309 C.3     1  UNL1        0.0898
@<TRIPOS>BOND
     1    30    31    1
     2    31    32    1
     3     1    31    1
     4     1    21    1
     5    21    22   ar
     6    22    23   ar
     7    23    24   ar
     8    24    25   ar
     9    25    26   ar
    10    26    27    1
    11    27    28    1
    12     1     2    1
    13     2     3    1
    14     3     4    1
    15     4     5    1
    16     5     6    1
    17     4     7    1
    18     7     8    1
    19     8     9    1
    20     9    10    1
    21    10    11   ar
    22    11    12   ar
    23    12    13   ar
    24    13    14    1
    25    13    15   ar
    26    15    16   ar
    27    16    17   ar
    28    17    18   ar
    29    18    19   ar
    30     6     1    1
    31    19    10   ar
    32    26    21   ar
    33    19     4    1
    34    17    11   ar
    35    28    29    1
    36    18    20    1
@<TRIPOS>MOLECULE
*****
 32 36 0 0 0
SMALL
GASTEIGER

@<TRIPOS>ATOM
      1 C         -22.6097   -7.6367  -12.6721 C.3     1  UNL1        0.0643
      2 C         -23.0518   -7.2588  -14.1299 C.3     1  UNL1        0.0217
      3 C         -24.4964   -7.6878  -14.4373 C.3     1  UNL1        0.0346
      4 C         -25.5552   -7.1189  -13.4383 C.3     1  UNL1        0.1252
      5 C         -24.8733   -6.3367  -12.2824 C.3     1  UNL1        0.0346
      6 C         -23.6880   -7.0839  -11.6433 C.3     1  UNL1        0.0217
      7 O         -26.2898   -8.2405  -12.9216 O.3     1  UNL1       -0.3527
      8 C         -27.5648   -7.9214  -12.3676 C.3     1  UNL1        0.1472
      9 C         -28.5332   -7.3794  -13.4292 C.3     1  UNL1        0.0597
     10 C         -27.8394   -6.2905  -14.1610 C.ar    1  UNL1       -0.0045
     11 C         -28.3331   -5.2767  -14.9496 C.ar    1  UNL1        0.0151
     12 C         -29.6356   -4.9224  -15.2945 C.ar    1  UNL1        0.0308
     13 C         -29.8082   -3.8064  -16.1345 C.ar    1  UNL1        0.1402
     14 F         -31.0571   -3.4234  -16.4967 F       1  UNL1       -0.2042
     15 C         -28.6877   -3.0822  -16.6027 C.ar    1  UNL1        0.0311
     16 C         -27.3838   -3.4665  -16.2369 C.ar    1  UNL1        0.0193
     17 C         -27.2411   -4.5752  -15.4044 C.ar    1  UNL1        0.0563
     18 N         -26.0922   -5.1096  -14.9447 N.ar    1  UNL1       -0.3549
     19 C         -26.4703   -6.1721  -14.1940 C.ar    1  UNL1        0.0544
     20 H         -25.1197   -4.7792  -15.1338 H       1  UNL1        0.1657
     21 C         -22.4632   -9.1972  -12.6574 C.ar    1  UNL1       -0.0109
     22 C         -21.8691   -9.8724  -13.7563 C.ar    1  UNL1       -0.0033
     23 C         -21.7852  -11.2613  -13.8102 C.ar    1  UNL1       -0.0003
     24 C         -22.2693  -12.0307  -12.7653 C.ar    1  UNL1       -0.0003
     25 C         -22.7885  -11.4136  -11.6346 C.ar    1  UNL1       -0.0021
     26 C         -22.8379  -10.0079  -11.5234 C.ar    1  UNL1        0.0042
     27 C         -23.3591   -9.4548  -10.2061 C.3     1  UNL1        0.1633
     28 O         -22.3467   -9.4553   -9.2348 O.3     1  UNL1       -0.3772
     29 H         -22.7738   -9.1664   -8.3865 H       1  UNL1        0.2109
     30 C         -20.2891   -7.9916  -11.7789 C.3     1  UNL1        0.0898
     31 N         -21.2719   -7.0362  -12.3387 N.3     1  UNL1       -0.2693
     32 C         -21.2945   -5.7872  -11.5494 C.3     1  UNL1        0.0898
@<TRIPOS>BOND
     1    30    31    1
     2    31    32    1
     3     1    31    1
     4     1    21    1
     5    21    22   ar
     6    22    23   ar
     7    23    24   ar
     8    24    25   ar
     9    25    26   ar
    10    26    27    1
    11    27    28    1
    12     1     2    1
    13     2     3    1
    14     3     4    1
    15     4     5    1
    16     5     6    1
    17     4     7    1
    18     7     8    1
    19     8     9    1
    20     9    10    1
    21    10    11   ar
    22    11    12   ar
    23    12    13   ar
    24    13    14    1
    25    13    15   ar
    26    15    16   ar
    27    16    17   ar
    28    17    18   ar
    29    18    19   ar
    30     6     1    1
    31    19    10   ar
    32    26    21   ar
    33    19     4    1
    34    17    11   ar
    35    28    29    1
    36    18    20    1
@<TRIPOS>MOLECULE
*****
 32 36 0 0 0
SMALL
GASTEIGER

@<TRIPOS>ATOM
      1 C         -23.7141   -8.8816  -10.8183 C.3     1  UNL1        0.0643
      2 C         -23.7906   -7.3941  -11.3132 C.3     1  UNL1        0.0217
      3 C         -23.0325   -7.1726  -12.6329 C.3     1  UNL1        0.0346
      4 C         -23.4984   -8.1041  -13.7982 C.3     1  UNL1        0.1252
      5 C         -24.5547   -9.1319  -13.3075 C.3     1  UNL1        0.0346
      6 C         -24.1644   -9.8451  -11.9996 C.3     1  UNL1        0.0217
      7 O         -22.3290   -8.7801  -14.2883 O.3     1  UNL1       -0.3527
      8 C         -22.4476   -9.3081  -15.6079 C.3     1  UNL1        0.1472
      9 C         -22.6271   -8.2002  -16.6562 C.3     1  UNL1        0.0597
     10 C         -23.7272   -7.3162  -16.1968 C.ar    1  UNL1       -0.0045
     11 C         -24.4994   -6.4069  -16.8824 C.ar    1  UNL1        0.0151
     12 C         -24.5247   -6.0401  -18.2261 C.ar    1  UNL1        0.0308
     13 C         -25.4559   -5.0605  -18.6185 C.ar    1  UNL1        0.1402
     14 F         -25.5177   -4.6718  -19.9157 F       1  UNL1       -0.2042
     15 C         -26.3273   -4.4795  -17.6686 C.ar    1  UNL1        0.0311
     16 C         -26.2761   -4.8709  -16.3174 C.ar    1  UNL1        0.0193
     17 C         -25.3447   -5.8427  -15.9557 C.ar    1  UNL1        0.0563
     18 N         -25.1287   -6.3501  -14.7258 N.ar    1  UNL1       -0.3549
     19 C         -24.1226   -7.2437  -14.8822 C.ar    1  UNL1        0.0544
     20 H         -25.6256   -6.1012  -13.8416 H       1  UNL1        0.1657
     21 C         -22.2350   -9.1040  -10.3495 C.ar    1  UNL1       -0.0109
     22 C         -21.6665   -8.2716   -9.3492 C.ar    1  UNL1       -0.0033
     23 C         -20.3359   -8.3936   -8.9575 C.ar    1  UNL1       -0.0003
     24 C         -19.5258   -9.3604   -9.5295 C.ar    1  UNL1       -0.0003
     25 C         -20.0572  -10.2486  -10.4556 C.ar    1  UNL1       -0.0021
     26 C         -21.4150  -10.1886  -10.8341 C.ar    1  UNL1        0.0042
     27 C         -21.8929  -11.2628  -11.7988 C.3     1  UNL1        0.1633
     28 O         -21.2539  -11.1312  -13.0409 O.3     1  UNL1       -0.3772
     29 H         -21.6714  -11.8020  -13.6419 H       1  UNL1        0.2109
     30 C         -24.5577  -10.4714   -9.0662 C.3     1  UNL1        0.0898
     31 N         -24.6196   -9.1075   -9.6391 N.3     1  UNL1       -0.2693
     32 C         -26.0222   -8.6710   -9.7989 C.3     1  UNL1        0.0898
@<TRIPOS>BOND
     1    30    31    1
     2    31    32    1
     3     1    31    1
     4     1    21    1
     5    21    22   ar
     6    22    23   ar
     7    23    24   ar
     8    24    25   ar
     9    25    26   ar
    10    26    27    1
    11    27    28    1
    12     1     2    1
    13     2     3    1
    14     3     4    1
    15     4     5    1
    16     5     6    1
    17     4     7    1
    18     7     8    1
    19     8     9    1
    20     9    10    1
    21    10    11   ar
    22    11    12   ar
    23    12    13   ar
    24    13    14    1
    25    13    15   ar
    26    15    16   ar
    27    16    17   ar
    28    17    18   ar
    29    18    19   ar
    30     6     1    1
    31    19    10   ar
    32    26    21   ar
    33    19     4    1
    34    17    11   ar
    35    28    29    1
    36    18    20    1
