@<TRIPOS>MOLECULE
*****
 50 55 0 0 0
SMALL
GASTEIGER

@<TRIPOS>ATOM
      1 C          62.0566   80.9336   14.3876 C.3     1  UNL1        0.1535
      2 N          60.7203   80.1517   12.3642 N.am    1  UNL1       -0.2825
      3 C          60.7364   80.6519   13.7121 C.2     1  UNL1        0.2443
      4 O          59.6602   80.9624   14.2924 O.2     1  UNL1       -0.2730
      5 H          61.6412   80.0059   11.8915 H       1  UNL1        0.1549
      6 C          58.1269   81.2417    9.9116 C.ar    1  UNL1        0.0900
      7 C          59.2811   81.2351   10.7058 C.ar    1  UNL1        0.0319
      8 C          59.5465   80.1394   11.5371 C.ar    1  UNL1        0.0532
      9 C          58.6739   79.0406   11.5169 C.ar    1  UNL1        0.0353
     10 C          57.5444   79.0750   10.6962 C.ar    1  UNL1        0.0998
     11 N          57.2971   80.1629    9.9200 N.ar    1  UNL1       -0.2456
     12 C          57.8259   82.4060    9.0200 C.3     1  UNL1        0.1876
     13 C          58.0780   84.6655    9.3758 C.3     1  UNL1        0.1747
     14 O          57.4201   83.4987    9.8152 O.3     1  UNL1       -0.3447
     15 N          62.1825   82.3654   14.6779 N.am    1  UNL1       -0.2945
     16 C          61.5520   83.3724   13.8699 C.2     1  UNL1        0.2483
     17 O          60.7531   83.0330   12.9542 O.2     1  UNL1       -0.2701
     18 H          62.5690   82.6510   15.6062 H       1  UNL1        0.1501
     19 C          61.7982   84.8112   14.1204 C.ar    1  UNL1        0.0808
     20 C          61.6773   85.3191   15.4250 C.ar    1  UNL1        0.0080
     21 C          61.9096   86.6718   15.6861 C.ar    1  UNL1        0.0148
     22 C          62.2521   87.5480   14.6456 C.ar    1  UNL1        0.0502
     23 C          62.3635   87.0461   13.3393 C.ar    1  UNL1        0.0443
     24 C          62.1340   85.6924   13.0739 C.ar    1  UNL1        0.1457
     25 F          62.2007   85.2609   11.7889 F       1  UNL1       -0.2040
     26 N          62.5035   88.9401   14.9166 N.pl3   1  UNL1       -0.3040
     27 C          62.9945   89.3439   16.2444 C.3     1  UNL1        0.1122
     28 C          63.4359   90.8120   16.2545 C.3     1  UNL1        0.1122
     29 N          64.2008   91.1089   15.0349 N.pl3   1  UNL1       -0.3040
     30 C          63.6387   90.7599   13.7195 C.3     1  UNL1        0.1122
     31 C          62.3444   89.9509   13.8612 C.3     1  UNL1        0.1122
     32 C          65.5250   91.6701   15.1157 C.ar    1  UNL1        0.0488
     33 C          65.9086   92.4289   16.2337 C.ar    1  UNL1        0.0154
     34 C          67.1974   92.9612   16.3185 C.ar    1  UNL1        0.0135
     35 C          68.1211   92.7407   15.2918 C.ar    1  UNL1        0.0683
     36 CL         69.7339   93.4268   15.4346 Cl      1  UNL1       -0.0814
     37 C          67.7497   91.9778   14.1722 C.ar    1  UNL1        0.0694
     38 CL         68.8803   91.6765   12.8594 Cl      1  UNL1       -0.0813
     39 C          66.4578   91.4446   14.0897 C.ar    1  UNL1        0.0268
     40 C          63.2312   80.4799   13.5026 C.3     1  UNL1        0.0569
     41 C          63.8618   81.6381   12.7802 C.ar    1  UNL1       -0.0017
     42 C          65.0280   82.3017   13.1491 C.ar    1  UNL1        0.0681
     43 N          65.3782   83.2037   12.2041 N.ar    1  UNL1       -0.3523
     44 C          64.4518   83.1059   11.2349 C.ar    1  UNL1        0.0563
     45 C          64.4146   83.8051   10.0291 C.ar    1  UNL1        0.0170
     46 C          63.3728   83.5120    9.1306 C.ar    1  UNL1        0.0015
     47 C          62.4055   82.5342    9.4510 C.ar    1  UNL1        0.0001
     48 C          62.4687   81.8433   10.6745 C.ar    1  UNL1        0.0012
     49 C          63.5103   82.1591   11.5484 C.ar    1  UNL1        0.0131
     50 H          66.2160   83.8268   12.2152 H       1  UNL1        0.1660
@<TRIPOS>BOND
     1    13    14    1
     2    14    12    1
     3    12     6    1
     4     6     7   ar
     5     7     8   ar
     6     8     2    1
     7     2     3   am
     8     3     4    2
     9     3     1    1
    10     1    40    1
    11    40    41    1
    12    41    42   ar
    13    42    43   ar
    14    43    44   ar
    15    44    45   ar
    16    45    46   ar
    17    46    47   ar
    18    47    48   ar
    19    48    49   ar
    20     1    15    1
    21    15    16   am
    22    16    17    2
    23    16    19    1
    24    19    20   ar
    25    20    21   ar
    26    21    22   ar
    27    22    26    1
    28    26    27    1
    29    27    28    1
    30    28    29    1
    31    29    32    1
    32    32    33   ar
    33    33    34   ar
    34    34    35   ar
    35    35    36    1
    36    35    37   ar
    37    37    38    1
    38    37    39   ar
    39    29    30    1
    40    30    31    1
    41    22    23   ar
    42    23    24   ar
    43    24    25    1
    44     8     9   ar
    45     9    10   ar
    46    10    11   ar
    47    11     6   ar
    48    49    41   ar
    49    24    19   ar
    50    49    44   ar
    51    31    26    1
    52    39    32   ar
    53     2     5    1
    54    43    50    1
    55    15    18    1
@<TRIPOS>MOLECULE
*****
 50 55 0 0 0
SMALL
GASTEIGER

@<TRIPOS>ATOM
      1 C          64.0133   91.5697   11.6739 C.3     1  UNL1        0.1535
      2 N          64.1012   90.0242   13.6975 N.am    1  UNL1       -0.2825
      3 C          63.9606   91.3531   13.1668 C.2     1  UNL1        0.2443
      4 O          63.6824   92.3200   13.9278 O.2     1  UNL1       -0.2730
      5 H          64.2301   89.2424   13.0157 H       1  UNL1        0.1549
      6 C          63.1513   87.9819   16.6734 C.ar    1  UNL1        0.0900
      7 C          63.4980   88.3328   15.3621 C.ar    1  UNL1        0.0319
      8 C          63.7687   89.6710   15.0492 C.ar    1  UNL1        0.0532
      9 C          63.7400   90.6303   16.0729 C.ar    1  UNL1        0.0353
     10 C          63.4105   90.2388   17.3724 C.ar    1  UNL1        0.0998
     11 N          63.1257   88.9375   17.6422 N.ar    1  UNL1       -0.2456
     12 C          62.8554   86.5570   17.0246 C.3     1  UNL1        0.1876
     13 C          60.9032   86.2874   15.8363 C.3     1  UNL1        0.1747
     14 O          61.4578   86.3919   17.1282 O.3     1  UNL1       -0.3447
     15 N          63.4606   90.4063   10.9729 N.am    1  UNL1       -0.2945
     16 C          62.0568   90.2684   10.6995 C.2     1  UNL1        0.2483
     17 O          61.2726   91.2259   10.9445 O.2     1  UNL1       -0.2701
     18 H          64.1223   89.7621   10.4832 H       1  UNL1        0.1501
     19 C          61.5187   89.0268   10.0974 C.ar    1  UNL1        0.0808
     20 C          62.0726   87.7858   10.4545 C.ar    1  UNL1        0.0080
     21 C          61.5781   86.6010    9.9033 C.ar    1  UNL1        0.0148
     22 C          60.5300   86.6338    8.9715 C.ar    1  UNL1        0.0502
     23 C          59.9813   87.8726    8.6045 C.ar    1  UNL1        0.0443
     24 C          60.4717   89.0607    9.1554 C.ar    1  UNL1        0.1457
     25 F          59.9477   90.2390    8.7326 F       1  UNL1       -0.2040
     26 N          60.0120   85.4116    8.4124 N.pl3   1  UNL1       -0.3040
     27 C          60.9296   84.2942    8.1348 C.3     1  UNL1        0.1122
     28 C          60.1619   83.0140    7.7860 C.3     1  UNL1        0.1122
     29 N          59.0199   82.8557    8.6979 N.pl3   1  UNL1       -0.3040
     30 C          58.0792   83.9723    8.8878 C.3     1  UNL1        0.1122
     31 C          58.5698   85.2427    8.1840 C.3     1  UNL1        0.1122
     32 C          58.8522   81.6471    9.4634 C.ar    1  UNL1        0.0488
     33 C          57.7338   80.8231    9.2553 C.ar    1  UNL1        0.0154
     34 C          57.5786   79.6437    9.9877 C.ar    1  UNL1        0.0135
     35 C          58.5377   79.2689   10.9341 C.ar    1  UNL1        0.0683
     36 CL         58.3074   77.7772   11.8361 Cl      1  UNL1       -0.0814
     37 C          59.6631   80.0827   11.1455 C.ar    1  UNL1        0.0694
     38 CL         60.8926   79.6483   12.3254 Cl      1  UNL1       -0.0813
     39 C          59.8172   81.2638   10.4097 C.ar    1  UNL1        0.0268
     40 C          65.4593   91.8156   11.2079 C.3     1  UNL1        0.0569
     41 C          66.1718   92.7932   12.1009 C.ar    1  UNL1       -0.0017
     42 C          66.1677   94.1790   11.9729 C.ar    1  UNL1        0.0681
     43 N          66.8000   94.7528   13.0218 N.ar    1  UNL1       -0.3523
     44 C          67.1910   93.7430   13.8184 C.ar    1  UNL1        0.0563
     45 C          67.8428   93.8410   15.0471 C.ar    1  UNL1        0.0170
     46 C          68.1192   92.6495   15.7419 C.ar    1  UNL1        0.0015
     47 C          67.7377   91.4015   15.2022 C.ar    1  UNL1        0.0001
     48 C          67.0799   91.3329   13.9609 C.ar    1  UNL1        0.0012
     49 C          66.8239   92.5309   13.2919 C.ar    1  UNL1        0.0131
     50 H          66.9296   95.7752   13.1899 H       1  UNL1        0.1660
@<TRIPOS>BOND
     1    13    14    1
     2    14    12    1
     3    12     6    1
     4     6     7   ar
     5     7     8   ar
     6     8     2    1
     7     2     3   am
     8     3     4    2
     9     3     1    1
    10     1    40    1
    11    40    41    1
    12    41    42   ar
    13    42    43   ar
    14    43    44   ar
    15    44    45   ar
    16    45    46   ar
    17    46    47   ar
    18    47    48   ar
    19    48    49   ar
    20     1    15    1
    21    15    16   am
    22    16    17    2
    23    16    19    1
    24    19    20   ar
    25    20    21   ar
    26    21    22   ar
    27    22    26    1
    28    26    27    1
    29    27    28    1
    30    28    29    1
    31    29    32    1
    32    32    33   ar
    33    33    34   ar
    34    34    35   ar
    35    35    36    1
    36    35    37   ar
    37    37    38    1
    38    37    39   ar
    39    29    30    1
    40    30    31    1
    41    22    23   ar
    42    23    24   ar
    43    24    25    1
    44     8     9   ar
    45     9    10   ar
    46    10    11   ar
    47    11     6   ar
    48    49    41   ar
    49    24    19   ar
    50    49    44   ar
    51    31    26    1
    52    39    32   ar
    53     2     5    1
    54    43    50    1
    55    15    18    1
@<TRIPOS>MOLECULE
*****
 50 55 0 0 0
SMALL
GASTEIGER

@<TRIPOS>ATOM
      1 C          58.6513   84.1291    8.3846 C.3     1  UNL1        0.1535
      2 N          60.1362   82.4924    9.6525 N.am    1  UNL1       -0.2825
      3 C          59.7181   83.0613    8.3999 C.2     1  UNL1        0.2443
      4 O          60.3120   82.7577    7.3292 O.2     1  UNL1       -0.2730
      5 H          59.6816   82.8519   10.5225 H       1  UNL1        0.1549
      6 C          63.6251   81.5312   10.5649 C.ar    1  UNL1        0.0900
      7 C          62.4490   82.2801   10.4278 C.ar    1  UNL1        0.0319
      8 C          61.3298   81.7093    9.8086 C.ar    1  UNL1        0.0532
      9 C          61.3920   80.3732    9.3842 C.ar    1  UNL1        0.0353
     10 C          62.5754   79.6519    9.5569 C.ar    1  UNL1        0.0998
     11 N          63.6551   80.2396   10.1366 N.ar    1  UNL1       -0.2456
     12 C          64.8318   82.1266   11.2211 C.3     1  UNL1        0.1876
     13 C          64.5685   83.6333   12.9405 C.3     1  UNL1        0.1747
     14 O          64.5613   83.4743   11.5397 O.3     1  UNL1       -0.3447
     15 N          59.1803   85.3824    8.9321 N.am    1  UNL1       -0.2945
     16 C          60.4052   85.9698    8.4640 C.2     1  UNL1        0.2483
     17 O          60.9936   85.4794    7.4615 O.2     1  UNL1       -0.2701
     18 H          58.5528   85.9658    9.5309 H       1  UNL1        0.1501
     19 C          60.9712   87.1705    9.1209 C.ar    1  UNL1        0.0808
     20 C          61.9870   87.0227   10.0804 C.ar    1  UNL1        0.0080
     21 C          62.5395   88.1411   10.7095 C.ar    1  UNL1        0.0148
     22 C          62.0767   89.4296   10.4040 C.ar    1  UNL1        0.0502
     23 C          61.0546   89.5803    9.4536 C.ar    1  UNL1        0.0443
     24 C          60.5003   88.4637    8.8198 C.ar    1  UNL1        0.1457
     25 F          59.4782   88.6515    7.9470 F       1  UNL1       -0.2040
     26 N          62.6546   90.5836   11.0436 N.pl3   1  UNL1       -0.3040
     27 C          62.7960   90.6066   12.5088 C.3     1  UNL1        0.1122
     28 C          63.6511   91.7927   12.9692 C.3     1  UNL1        0.1122
     29 N          64.8182   91.9356   12.0871 N.pl3   1  UNL1       -0.3040
     30 C          64.6266   91.9878   10.6282 C.3     1  UNL1        0.1122
     31 C          63.1695   91.7053   10.2451 C.3     1  UNL1        0.1122
     32 C          66.1525   91.9511   12.6297 C.ar    1  UNL1        0.0488
     33 C          67.2672   91.8768   11.7783 C.ar    1  UNL1        0.0154
     34 C          68.5613   91.9062   12.3037 C.ar    1  UNL1        0.0135
     35 C          68.7606   92.0138   13.6838 C.ar    1  UNL1        0.0683
     36 CL         70.4044   92.0480   14.3073 Cl      1  UNL1       -0.0814
     37 C          67.6527   92.0952   14.5436 C.ar    1  UNL1        0.0694
     38 CL         67.8589   92.2315   16.2847 Cl      1  UNL1       -0.0813
     39 C          66.3566   92.0664   14.0148 C.ar    1  UNL1        0.0268
     40 C          57.4230   83.6864    9.1993 C.3     1  UNL1        0.0569
     41 C          57.8090   83.2138   10.5735 C.ar    1  UNL1       -0.0017
     42 C          57.8680   83.9927   11.7252 C.ar    1  UNL1        0.0681
     43 N          58.1204   83.2202   12.8064 N.ar    1  UNL1       -0.3523
     44 C          58.2071   81.9587   12.3503 C.ar    1  UNL1        0.0563
     45 C          58.4108   80.8016   13.1013 C.ar    1  UNL1        0.0170
     46 C          58.4211   79.5699   12.4221 C.ar    1  UNL1        0.0015
     47 C          58.2245   79.5218   11.0244 C.ar    1  UNL1        0.0001
     48 C          58.0199   80.7052   10.2923 C.ar    1  UNL1        0.0012
     49 C          58.0203   81.9129   10.9923 C.ar    1  UNL1        0.0131
     50 H          58.2010   83.5395   13.7973 H       1  UNL1        0.1660
@<TRIPOS>BOND
     1    13    14    1
     2    14    12    1
     3    12     6    1
     4     6     7   ar
     5     7     8   ar
     6     8     2    1
     7     2     3   am
     8     3     4    2
     9     3     1    1
    10     1    40    1
    11    40    41    1
    12    41    42   ar
    13    42    43   ar
    14    43    44   ar
    15    44    45   ar
    16    45    46   ar
    17    46    47   ar
    18    47    48   ar
    19    48    49   ar
    20     1    15    1
    21    15    16   am
    22    16    17    2
    23    16    19    1
    24    19    20   ar
    25    20    21   ar
    26    21    22   ar
    27    22    26    1
    28    26    27    1
    29    27    28    1
    30    28    29    1
    31    29    32    1
    32    32    33   ar
    33    33    34   ar
    34    34    35   ar
    35    35    36    1
    36    35    37   ar
    37    37    38    1
    38    37    39   ar
    39    29    30    1
    40    30    31    1
    41    22    23   ar
    42    23    24   ar
    43    24    25    1
    44     8     9   ar
    45     9    10   ar
    46    10    11   ar
    47    11     6   ar
    48    49    41   ar
    49    24    19   ar
    50    49    44   ar
    51    31    26    1
    52    39    32   ar
    53     2     5    1
    54    43    50    1
    55    15    18    1
@<TRIPOS>MOLECULE
*****
 50 55 0 0 0
SMALL
GASTEIGER

@<TRIPOS>ATOM
      1 C          60.7625   82.9359    9.0378 C.3     1  UNL1        0.1535
      2 N          61.1255   82.0022   11.3804 N.am    1  UNL1       -0.2825
      3 C          61.3652   81.9091    9.9657 C.2     1  UNL1        0.2443
      4 O          62.1633   81.0465    9.5072 O.2     1  UNL1       -0.2730
      5 H          60.5373   82.7968   11.7199 H       1  UNL1        0.1549
      6 C          63.2981   81.2816   14.3283 C.ar    1  UNL1        0.0900
      7 C          62.5400   81.9795   13.3789 C.ar    1  UNL1        0.0319
      8 C          61.8816   81.2763   12.3621 C.ar    1  UNL1        0.0532
      9 C          61.9507   79.8748   12.3466 C.ar    1  UNL1        0.0353
     10 C          62.6993   79.2130   13.3224 C.ar    1  UNL1        0.0998
     11 N          63.3504   79.9224   14.2816 N.ar    1  UNL1       -0.2456
     12 C          64.0110   82.0175   15.4198 C.3     1  UNL1        0.1876
     13 C          64.5846   84.1929   14.9356 C.3     1  UNL1        0.1747
     14 O          63.5659   83.3564   15.4356 O.3     1  UNL1       -0.3447
     15 N          61.0476   84.2893    9.5251 N.am    1  UNL1       -0.2945
     16 C          62.2676   84.6195   10.2085 C.2     1  UNL1        0.2483
     17 O          63.1934   83.7661   10.2879 O.2     1  UNL1       -0.2701
     18 H          60.4435   85.0741    9.1910 H       1  UNL1        0.1501
     19 C          62.4706   85.9655   10.7923 C.ar    1  UNL1        0.0808
     20 C          62.8676   86.0870   12.1347 C.ar    1  UNL1        0.0080
     21 C          63.0699   87.3460   12.7055 C.ar    1  UNL1        0.0148
     22 C          62.8642   88.5102   11.9504 C.ar    1  UNL1        0.0502
     23 C          62.4573   88.3928   10.6120 C.ar    1  UNL1        0.0443
     24 C          62.2558   87.1346   10.0361 C.ar    1  UNL1        0.1457
     25 F          61.8115   87.0687    8.7554 F       1  UNL1       -0.2040
     26 N          63.0845   89.8080   12.5352 N.pl3   1  UNL1       -0.3040
     27 C          63.0475   89.9602   13.9991 C.3     1  UNL1        0.1122
     28 C          63.5489   91.3433   14.4301 C.3     1  UNL1        0.1122
     29 N          64.7457   91.7012   13.6552 N.pl3   1  UNL1       -0.3040
     30 C          64.7162   91.6104   12.1859 C.3     1  UNL1        0.1122
     31 C          63.4167   90.9649   11.6914 C.3     1  UNL1        0.1122
     32 C          65.9693   92.0693   14.3202 C.ar    1  UNL1        0.0488
     33 C          65.9397   92.6062   15.6177 C.ar    1  UNL1        0.0154
     34 C          67.1275   92.9499   16.2679 C.ar    1  UNL1        0.0135
     35 C          68.3597   92.7592   15.6345 C.ar    1  UNL1        0.0683
     36 CL         69.8330   93.2037   16.4853 Cl      1  UNL1       -0.0814
     37 C          68.4008   92.2169   14.3392 C.ar    1  UNL1        0.0694
     38 CL         69.9287   91.9607   13.5071 Cl      1  UNL1       -0.0813
     39 C          67.2093   91.8724   13.6898 C.ar    1  UNL1        0.0268
     40 C          59.2407   82.7388    8.9189 C.3     1  UNL1        0.0569
     41 C          58.5515   82.9260   10.2421 C.ar    1  UNL1       -0.0017
     42 C          58.1480   81.9158   11.1100 C.ar    1  UNL1        0.0681
     43 N          57.6829   82.4427   12.2656 N.ar    1  UNL1       -0.3523
     44 C          57.8021   83.7759   12.1412 C.ar    1  UNL1        0.0563
     45 C          57.4945   84.7438   13.0967 C.ar    1  UNL1        0.0170
     46 C          57.7421   86.0900   12.7727 C.ar    1  UNL1        0.0015
     47 C          58.2905   86.4348   11.5178 C.ar    1  UNL1        0.0001
     48 C          58.5924   85.4370   10.5735 C.ar    1  UNL1        0.0012
     49 C          58.3308   84.1106   10.9207 C.ar    1  UNL1        0.0131
     50 H          57.3312   81.9157   13.0956 H       1  UNL1        0.1660
@<TRIPOS>BOND
     1    13    14    1
     2    14    12    1
     3    12     6    1
     4     6     7   ar
     5     7     8   ar
     6     8     2    1
     7     2     3   am
     8     3     4    2
     9     3     1    1
    10     1    40    1
    11    40    41    1
    12    41    42   ar
    13    42    43   ar
    14    43    44   ar
    15    44    45   ar
    16    45    46   ar
    17    46    47   ar
    18    47    48   ar
    19    48    49   ar
    20     1    15    1
    21    15    16   am
    22    16    17    2
    23    16    19    1
    24    19    20   ar
    25    20    21   ar
    26    21    22   ar
    27    22    26    1
    28    26    27    1
    29    27    28    1
    30    28    29    1
    31    29    32    1
    32    32    33   ar
    33    33    34   ar
    34    34    35   ar
    35    35    36    1
    36    35    37   ar
    37    37    38    1
    38    37    39   ar
    39    29    30    1
    40    30    31    1
    41    22    23   ar
    42    23    24   ar
    43    24    25    1
    44     8     9   ar
    45     9    10   ar
    46    10    11   ar
    47    11     6   ar
    48    49    41   ar
    49    24    19   ar
    50    49    44   ar
    51    31    26    1
    52    39    32   ar
    53     2     5    1
    54    43    50    1
    55    15    18    1
@<TRIPOS>MOLECULE
*****
 50 55 0 0 0
SMALL
GASTEIGER

@<TRIPOS>ATOM
      1 C          59.6486   84.8309    8.0816 C.3     1  UNL1        0.1535
      2 N          60.6395   83.1580    9.7281 N.am    1  UNL1       -0.2825
      3 C          60.5162   83.6312    8.3759 C.2     1  UNL1        0.2443
      4 O          61.2123   83.1239    7.4544 O.2     1  UNL1       -0.2730
      5 H          60.1191   83.6771   10.4714 H       1  UNL1        0.1549
      6 C          63.6608   81.7897   11.4394 C.ar    1  UNL1        0.0900
      7 C          62.6540   82.6754   11.0336 C.ar    1  UNL1        0.0319
      8 C          61.6544   82.2365   10.1561 C.ar    1  UNL1        0.0532
      9 C          61.6508   80.8959    9.7417 C.ar    1  UNL1        0.0353
     10 C          62.6595   80.0371   10.1842 C.ar    1  UNL1        0.0998
     11 N          63.6327   80.4972   11.0140 N.ar    1  UNL1       -0.2456
     12 C          64.7388   82.2429   12.3741 C.3     1  UNL1        0.1876
     13 C          64.7195   84.0437   13.8067 C.3     1  UNL1        0.1747
     14 O          64.7141   83.6516   12.4526 O.3     1  UNL1       -0.3447
     15 N          60.1138   85.9929    8.8456 N.am    1  UNL1       -0.2945
     16 C          61.4984   86.1944    9.1723 C.2     1  UNL1        0.2483
     17 O          62.3759   85.4296    8.6856 O.2     1  UNL1       -0.2701
     18 H          59.4555   86.7935    8.9804 H       1  UNL1        0.1501
     19 C          61.9172   87.3141   10.0466 C.ar    1  UNL1        0.0808
     20 C          61.8454   88.6331    9.5674 C.ar    1  UNL1        0.0080
     21 C          62.2303   89.7056   10.3757 C.ar    1  UNL1        0.0148
     22 C          62.7101   89.4804   11.6745 C.ar    1  UNL1        0.0502
     23 C          62.7932   88.1632   12.1528 C.ar    1  UNL1        0.0443
     24 C          62.4069   87.0870   11.3479 C.ar    1  UNL1        0.1457
     25 F          62.5537   85.8273   11.8311 F       1  UNL1       -0.2040
     26 N          63.0955   90.5869   12.5124 N.pl3   1  UNL1       -0.3040
     27 C          63.1422   90.4094   13.9731 C.3     1  UNL1        0.1122
     28 C          63.8089   91.6065   14.6605 C.3     1  UNL1        0.1122
     29 N          65.0004   92.0141   13.9024 N.pl3   1  UNL1       -0.3040
     30 C          64.8941   92.2587   12.4544 C.3     1  UNL1        0.1122
     31 C          63.5113   91.8669   11.9211 C.3     1  UNL1        0.1122
     32 C          66.2858   92.1058   14.5462 C.ar    1  UNL1        0.0488
     33 C          66.3741   92.3601   15.9247 C.ar    1  UNL1        0.0154
     34 C          67.6204   92.4348   16.5515 C.ar    1  UNL1        0.0135
     35 C          68.7940   92.2534   15.8128 C.ar    1  UNL1        0.0683
     36 CL         70.3439   92.3546   16.6371 Cl      1  UNL1       -0.0814
     37 C          68.7167   91.9923   14.4347 C.ar    1  UNL1        0.0694
     38 CL         70.1676   91.7579   13.4691 Cl      1  UNL1       -0.0813
     39 C          67.4666   91.9169   13.8088 C.ar    1  UNL1        0.0268
     40 C          58.1775   84.5396    8.4275 C.3     1  UNL1        0.0569
     41 C          57.9476   83.0768    8.6889 C.ar    1  UNL1       -0.0017
     42 C          57.7568   82.0891    7.7273 C.ar    1  UNL1        0.0681
     43 N          57.7133   80.8675    8.3062 N.ar    1  UNL1       -0.3523
     44 C          57.8893   81.0732    9.6230 C.ar    1  UNL1        0.0563
     45 C          57.9667   80.1070   10.6254 C.ar    1  UNL1        0.0170
     46 C          58.2036   80.5425   11.9418 C.ar    1  UNL1        0.0015
     47 C          58.3615   81.9173   12.2232 C.ar    1  UNL1        0.0001
     48 C          58.2798   82.8699   11.1916 C.ar    1  UNL1        0.0012
     49 C          58.0383   82.4089    9.8964 C.ar    1  UNL1        0.0131
     50 H          57.5966   79.9501    7.8213 H       1  UNL1        0.1660
@<TRIPOS>BOND
     1    13    14    1
     2    14    12    1
     3    12     6    1
     4     6     7   ar
     5     7     8   ar
     6     8     2    1
     7     2     3   am
     8     3     4    2
     9     3     1    1
    10     1    40    1
    11    40    41    1
    12    41    42   ar
    13    42    43   ar
    14    43    44   ar
    15    44    45   ar
    16    45    46   ar
    17    46    47   ar
    18    47    48   ar
    19    48    49   ar
    20     1    15    1
    21    15    16   am
    22    16    17    2
    23    16    19    1
    24    19    20   ar
    25    20    21   ar
    26    21    22   ar
    27    22    26    1
    28    26    27    1
    29    27    28    1
    30    28    29    1
    31    29    32    1
    32    32    33   ar
    33    33    34   ar
    34    34    35   ar
    35    35    36    1
    36    35    37   ar
    37    37    38    1
    38    37    39   ar
    39    29    30    1
    40    30    31    1
    41    22    23   ar
    42    23    24   ar
    43    24    25    1
    44     8     9   ar
    45     9    10   ar
    46    10    11   ar
    47    11     6   ar
    48    49    41   ar
    49    24    19   ar
    50    49    44   ar
    51    31    26    1
    52    39    32   ar
    53     2     5    1
    54    43    50    1
    55    15    18    1
@<TRIPOS>MOLECULE
*****
 50 55 0 0 0
SMALL
GASTEIGER

@<TRIPOS>ATOM
      1 C          61.4654   83.1504    8.4302 C.3     1  UNL1        0.1535
      2 N          60.4410   82.2805   10.5946 N.am    1  UNL1       -0.2825
      3 C          61.2908   82.0574    9.4564 C.2     1  UNL1        0.2443
      4 O          61.9767   81.0025    9.3669 O.2     1  UNL1       -0.2730
      5 H          59.9729   83.2119   10.6734 H       1  UNL1        0.1549
      6 C          61.6104   80.5557   13.6909 C.ar    1  UNL1        0.0900
      7 C          61.5911   81.3858   12.5624 C.ar    1  UNL1        0.0319
      8 C          60.4432   81.4440   11.7619 C.ar    1  UNL1        0.0532
      9 C          59.3104   80.7067   12.1390 C.ar    1  UNL1        0.0353
     10 C          59.3606   79.9064   13.2825 C.ar    1  UNL1        0.0998
     11 N          60.4971   79.8480   14.0257 N.ar    1  UNL1       -0.2456
     12 C          62.8300   80.4788   14.5557 C.3     1  UNL1        0.1876
     13 C          63.5910   82.5676   15.1503 C.3     1  UNL1        0.1747
     14 O          63.7063   81.5278   14.2054 O.3     1  UNL1       -0.3447
     15 N          61.7143   84.4341    9.0938 N.am    1  UNL1       -0.2945
     16 C          62.5654   84.5524   10.2454 C.2     1  UNL1        0.2483
     17 O          63.2339   83.5565   10.6367 O.2     1  UNL1       -0.2701
     18 H          61.4310   85.3108    8.6000 H       1  UNL1        0.1501
     19 C          62.6990   85.8418   10.9618 C.ar    1  UNL1        0.0808
     20 C          63.0086   85.8453   12.3324 C.ar    1  UNL1        0.0080
     21 C          63.1445   87.0494   13.0279 C.ar    1  UNL1        0.0148
     22 C          62.9579   88.2747   12.3709 C.ar    1  UNL1        0.0502
     23 C          62.6380   88.2747   11.0041 C.ar    1  UNL1        0.0443
     24 C          62.5033   87.0719   10.3036 C.ar    1  UNL1        0.1457
     25 F          62.1412   87.1171    8.9964 F       1  UNL1       -0.2040
     26 N          63.1098   89.5164   13.0850 N.pl3   1  UNL1       -0.3040
     27 C          63.3261   89.4945   14.5411 C.3     1  UNL1        0.1122
     28 C          63.7119   90.8807   15.0698 C.3     1  UNL1        0.1122
     29 N          64.6856   91.5049   14.1625 N.pl3   1  UNL1       -0.3040
     30 C          64.3954   91.5774   12.7208 C.3     1  UNL1        0.1122
     31 C          63.1234   90.7987   12.3665 C.3     1  UNL1        0.1122
     32 C          65.9521   91.9803   14.6574 C.ar    1  UNL1        0.0488
     33 C          66.0300   92.6375   15.8962 C.ar    1  UNL1        0.0154
     34 C          67.2605   93.0859   16.3825 C.ar    1  UNL1        0.0135
     35 C          68.4291   92.8815   15.6419 C.ar    1  UNL1        0.0683
     36 CL         69.9591   93.4600   16.2872 Cl      1  UNL1       -0.0814
     37 C          68.3632   92.2196   14.4046 C.ar    1  UNL1        0.0694
     38 CL         69.8083   91.9420   13.4418 Cl      1  UNL1       -0.0813
     39 C          67.1291   91.7703   13.9195 C.ar    1  UNL1        0.0268
     40 C          60.2188   83.2640    7.5349 C.3     1  UNL1        0.0569
     41 C          58.9611   83.3959    8.3484 C.ar    1  UNL1       -0.0017
     42 C          57.9187   82.4758    8.4073 C.ar    1  UNL1        0.0681
     43 N          57.0104   82.8488    9.3373 N.ar    1  UNL1       -0.3523
     44 C          57.4765   83.9886    9.8766 C.ar    1  UNL1        0.0563
     45 C          56.9062   84.7272   10.9126 C.ar    1  UNL1        0.0170
     46 C          57.5906   85.8726   11.3580 C.ar    1  UNL1        0.0015
     47 C          58.8182   86.2470   10.7687 C.ar    1  UNL1        0.0001
     48 C          59.3707   85.4820    9.7258 C.ar    1  UNL1        0.0012
     49 C          58.6666   84.3541    9.3010 C.ar    1  UNL1        0.0131
     50 H          56.1397   82.3363    9.6010 H       1  UNL1        0.1660
@<TRIPOS>BOND
     1    13    14    1
     2    14    12    1
     3    12     6    1
     4     6     7   ar
     5     7     8   ar
     6     8     2    1
     7     2     3   am
     8     3     4    2
     9     3     1    1
    10     1    40    1
    11    40    41    1
    12    41    42   ar
    13    42    43   ar
    14    43    44   ar
    15    44    45   ar
    16    45    46   ar
    17    46    47   ar
    18    47    48   ar
    19    48    49   ar
    20     1    15    1
    21    15    16   am
    22    16    17    2
    23    16    19    1
    24    19    20   ar
    25    20    21   ar
    26    21    22   ar
    27    22    26    1
    28    26    27    1
    29    27    28    1
    30    28    29    1
    31    29    32    1
    32    32    33   ar
    33    33    34   ar
    34    34    35   ar
    35    35    36    1
    36    35    37   ar
    37    37    38    1
    38    37    39   ar
    39    29    30    1
    40    30    31    1
    41    22    23   ar
    42    23    24   ar
    43    24    25    1
    44     8     9   ar
    45     9    10   ar
    46    10    11   ar
    47    11     6   ar
    48    49    41   ar
    49    24    19   ar
    50    49    44   ar
    51    31    26    1
    52    39    32   ar
    53     2     5    1
    54    43    50    1
    55    15    18    1
@<TRIPOS>MOLECULE
*****
 50 55 0 0 0
SMALL
GASTEIGER

@<TRIPOS>ATOM
      1 C          59.2834   83.6239    8.3543 C.3     1  UNL1        0.1535
      2 N          59.9671   81.4888    9.5648 N.am    1  UNL1       -0.2825
      3 C          60.2953   82.5412    8.6417 C.2     1  UNL1        0.2443
      4 O          61.4571   82.6292    8.1583 O.2     1  UNL1       -0.2730
      5 H          59.0245   81.5178   10.0159 H       1  UNL1        0.1549
      6 C          62.2876   79.9120   12.0261 C.ar    1  UNL1        0.0900
      7 C          61.3217   80.7611   11.4703 C.ar    1  UNL1        0.0319
      8 C          60.9414   80.5993   10.1320 C.ar    1  UNL1        0.0532
      9 C          61.4991   79.5494    9.3864 C.ar    1  UNL1        0.0353
     10 C          62.4438   78.7103    9.9813 C.ar    1  UNL1        0.0998
     11 N          62.8145   78.9074   11.2740 N.ar    1  UNL1       -0.2456
     12 C          62.7084   80.0730   13.4537 C.3     1  UNL1        0.1876
     13 C          63.1035   81.9578   14.7135 C.3     1  UNL1        0.1747
     14 O          63.4996   81.2356   13.5694 O.3     1  UNL1       -0.3447
     15 N          59.7049   84.8876    8.9672 N.am    1  UNL1       -0.2945
     16 C          60.6525   85.7677    8.3410 C.2     1  UNL1        0.2483
     17 O          61.0488   85.5304    7.1669 O.2     1  UNL1       -0.2701
     18 H          59.1546   85.2539    9.7769 H       1  UNL1        0.1501
     19 C          61.1458   86.9754    9.0422 C.ar    1  UNL1        0.0808
     20 C          62.1173   86.8451   10.0489 C.ar    1  UNL1        0.0080
     21 C          62.6011   87.9706   10.7206 C.ar    1  UNL1        0.0148
     22 C          62.1119   89.2482   10.4106 C.ar    1  UNL1        0.0502
     23 C          61.1336   89.3811    9.4127 C.ar    1  UNL1        0.0443
     24 C          60.6482   88.2574    8.7364 C.ar    1  UNL1        0.1457
     25 F          59.6647   88.4261    7.8165 F       1  UNL1       -0.2040
     26 N          62.6195   90.4099   11.0945 N.pl3   1  UNL1       -0.3040
     27 C          62.7590   90.3862   12.5599 C.3     1  UNL1        0.1122
     28 C          63.5413   91.6033   13.0666 C.3     1  UNL1        0.1122
     29 N          64.6979   91.8489   12.1933 N.pl3   1  UNL1       -0.3040
     30 C          64.5038   91.9445   10.7369 C.3     1  UNL1        0.1122
     31 C          63.0663   91.5897   10.3399 C.3     1  UNL1        0.1122
     32 C          66.0288   91.9240   12.7394 C.ar    1  UNL1        0.0488
     33 C          67.1484   91.8787   11.8924 C.ar    1  UNL1        0.0154
     34 C          68.4386   91.9659   12.4210 C.ar    1  UNL1        0.0135
     35 C          68.6289   92.1030   13.7997 C.ar    1  UNL1        0.0683
     36 CL         70.2681   92.2097   14.4273 Cl      1  UNL1       -0.0814
     37 C          67.5157   92.1557   14.6550 C.ar    1  UNL1        0.0694
     38 CL         67.7106   92.3276   16.3942 Cl      1  UNL1       -0.0813
     39 C          66.2236   92.0691   14.1231 C.ar    1  UNL1        0.0268
     40 C          57.8943   83.2290    8.8863 C.3     1  UNL1        0.0569
     41 C          57.8491   83.2482   10.3892 C.ar    1  UNL1       -0.0017
     42 C          57.9398   82.1425   11.2294 C.ar    1  UNL1        0.0681
     43 N          57.9981   82.5346   12.5225 N.ar    1  UNL1       -0.3523
     44 C          57.9596   83.8782   12.5061 C.ar    1  UNL1        0.0563
     45 C          58.0406   84.7385   13.6004 C.ar    1  UNL1        0.0170
     46 C          58.0280   86.1228   13.3513 C.ar    1  UNL1        0.0015
     47 C          57.9412   86.6111   12.0290 C.ar    1  UNL1        0.0001
     48 C          57.8620   85.7197   10.9439 C.ar    1  UNL1        0.0012
     49 C          57.8711   84.3519   11.2220 C.ar    1  UNL1        0.0131
     50 H          58.0857   81.9164   13.3594 H       1  UNL1        0.1660
@<TRIPOS>BOND
     1    13    14    1
     2    14    12    1
     3    12     6    1
     4     6     7   ar
     5     7     8   ar
     6     8     2    1
     7     2     3   am
     8     3     4    2
     9     3     1    1
    10     1    40    1
    11    40    41    1
    12    41    42   ar
    13    42    43   ar
    14    43    44   ar
    15    44    45   ar
    16    45    46   ar
    17    46    47   ar
    18    47    48   ar
    19    48    49   ar
    20     1    15    1
    21    15    16   am
    22    16    17    2
    23    16    19    1
    24    19    20   ar
    25    20    21   ar
    26    21    22   ar
    27    22    26    1
    28    26    27    1
    29    27    28    1
    30    28    29    1
    31    29    32    1
    32    32    33   ar
    33    33    34   ar
    34    34    35   ar
    35    35    36    1
    36    35    37   ar
    37    37    38    1
    38    37    39   ar
    39    29    30    1
    40    30    31    1
    41    22    23   ar
    42    23    24   ar
    43    24    25    1
    44     8     9   ar
    45     9    10   ar
    46    10    11   ar
    47    11     6   ar
    48    49    41   ar
    49    24    19   ar
    50    49    44   ar
    51    31    26    1
    52    39    32   ar
    53     2     5    1
    54    43    50    1
    55    15    18    1
@<TRIPOS>MOLECULE
*****
 50 55 0 0 0
SMALL
GASTEIGER

@<TRIPOS>ATOM
      1 C          64.7507   90.1384   14.7610 C.3     1  UNL1        0.1535
      2 N          65.4460   91.4134   12.6677 N.am    1  UNL1       -0.2825
      3 C          65.0867   91.4322   14.0598 C.2     1  UNL1        0.2443
      4 O          65.1589   92.5016   14.7249 O.2     1  UNL1       -0.2730
      5 H          65.4681   90.4857   12.1865 H       1  UNL1        0.1549
      6 C          67.5839   93.3420   10.2930 C.ar    1  UNL1        0.0900
      7 C          66.9569   92.2702   10.9418 C.ar    1  UNL1        0.0319
      8 C          66.0665   92.5195   11.9940 C.ar    1  UNL1        0.0532
      9 C          65.7777   93.8475   12.3432 C.ar    1  UNL1        0.0353
     10 C          66.4067   94.8902   11.6594 C.ar    1  UNL1        0.0998
     11 N          67.2872   94.6186   10.6603 N.ar    1  UNL1       -0.2456
     12 C          68.5408   93.0937    9.1688 C.3     1  UNL1        0.1876
     13 C          67.5559   94.8024    7.9832 C.3     1  UNL1        0.1747
     14 O          67.9168   93.4400    7.9516 O.3     1  UNL1       -0.3447
     15 N          64.0773   89.2206   13.8366 N.am    1  UNL1       -0.2945
     16 C          63.0781   89.6639   12.9041 C.2     1  UNL1        0.2483
     17 O          62.8504   90.8973   12.7674 O.2     1  UNL1       -0.2701
     18 H          64.4754   88.2621   13.7117 H       1  UNL1        0.1501
     19 C          62.3334   88.6926   12.0701 C.ar    1  UNL1        0.0808
     20 C          62.1246   87.3867   12.5450 C.ar    1  UNL1        0.0080
     21 C          61.4208   86.4549   11.7781 C.ar    1  UNL1        0.0148
     22 C          60.9248   86.8047   10.5134 C.ar    1  UNL1        0.0502
     23 C          61.1407   88.1053   10.0312 C.ar    1  UNL1        0.0443
     24 C          61.8427   89.0418   10.7966 C.ar    1  UNL1        0.1457
     25 F          62.0742   90.2708   10.2694 F       1  UNL1       -0.2040
     26 N          60.1887   85.8478    9.7277 N.pl3   1  UNL1       -0.3040
     27 C          60.9088   84.7557    9.0525 C.3     1  UNL1        0.1122
     28 C          59.9385   83.7130    8.4855 C.3     1  UNL1        0.1122
     29 N          58.8778   83.4372    9.4651 N.pl3   1  UNL1       -0.3040
     30 C          58.1264   84.5554   10.0593 C.3     1  UNL1        0.1122
     31 C          58.7219   85.9081    9.6526 C.3     1  UNL1        0.1122
     32 C          58.6151   82.0910    9.9050 C.ar    1  UNL1        0.0488
     33 C          57.9865   81.1728    9.0478 C.ar    1  UNL1        0.0154
     34 C          57.7446   79.8632    9.4695 C.ar    1  UNL1        0.0135
     35 C          58.1294   79.4513   10.7495 C.ar    1  UNL1        0.0683
     36 CL         57.8080   77.7947   11.2441 Cl      1  UNL1       -0.0814
     37 C          58.7644   80.3598   11.6124 C.ar    1  UNL1        0.0694
     38 CL         59.2644   79.8830   13.2295 Cl      1  UNL1       -0.0813
     39 C          59.0067   81.6716   11.1873 C.ar    1  UNL1        0.0268
     40 C          63.8498   90.3963   15.9819 C.3     1  UNL1        0.0569
     41 C          62.7184   89.4086   16.0557 C.ar    1  UNL1       -0.0017
     42 C          61.3676   89.6896   15.8745 C.ar    1  UNL1        0.0681
     43 N          60.6424   88.5479   15.8773 N.ar    1  UNL1       -0.3523
     44 C          61.5244   87.5472   16.0443 C.ar    1  UNL1        0.0563
     45 C          61.2550   86.1793   16.0659 C.ar    1  UNL1        0.0170
     46 C          62.3414   85.2971   16.2068 C.ar    1  UNL1        0.0015
     47 C          63.6583   85.7953   16.3163 C.ar    1  UNL1        0.0001
     48 C          63.9006   87.1806   16.2900 C.ar    1  UNL1        0.0012
     49 C          62.8027   88.0318   16.1548 C.ar    1  UNL1        0.0131
     50 H          59.6100   88.4632   15.7460 H       1  UNL1        0.1660
@<TRIPOS>BOND
     1    13    14    1
     2    14    12    1
     3    12     6    1
     4     6     7   ar
     5     7     8   ar
     6     8     2    1
     7     2     3   am
     8     3     4    2
     9     3     1    1
    10     1    40    1
    11    40    41    1
    12    41    42   ar
    13    42    43   ar
    14    43    44   ar
    15    44    45   ar
    16    45    46   ar
    17    46    47   ar
    18    47    48   ar
    19    48    49   ar
    20     1    15    1
    21    15    16   am
    22    16    17    2
    23    16    19    1
    24    19    20   ar
    25    20    21   ar
    26    21    22   ar
    27    22    26    1
    28    26    27    1
    29    27    28    1
    30    28    29    1
    31    29    32    1
    32    32    33   ar
    33    33    34   ar
    34    34    35   ar
    35    35    36    1
    36    35    37   ar
    37    37    38    1
    38    37    39   ar
    39    29    30    1
    40    30    31    1
    41    22    23   ar
    42    23    24   ar
    43    24    25    1
    44     8     9   ar
    45     9    10   ar
    46    10    11   ar
    47    11     6   ar
    48    49    41   ar
    49    24    19   ar
    50    49    44   ar
    51    31    26    1
    52    39    32   ar
    53     2     5    1
    54    43    50    1
    55    15    18    1
@<TRIPOS>MOLECULE
*****
 50 55 0 0 0
SMALL
GASTEIGER

@<TRIPOS>ATOM
      1 C          60.7508   82.3955    9.0089 C.3     1  UNL1        0.1535
      2 N          61.1116   81.6327   11.4129 N.am    1  UNL1       -0.2825
      3 C          61.3409   81.4300   10.0080 C.2     1  UNL1        0.2443
      4 O          62.1206   80.5211    9.6115 O.2     1  UNL1       -0.2730
      5 H          60.5397   82.4611   11.6949 H       1  UNL1        0.1549
      6 C          63.3021   81.0946   14.3864 C.ar    1  UNL1        0.0900
      7 C          62.5508   81.7336   13.3913 C.ar    1  UNL1        0.0319
      8 C          61.8607   80.9685   12.4425 C.ar    1  UNL1        0.0532
      9 C          61.8922   79.5691   12.5408 C.ar    1  UNL1        0.0353
     10 C          62.6354   78.9683   13.5593 C.ar    1  UNL1        0.0998
     11 N          63.3176   79.7352   14.4503 N.ar    1  UNL1       -0.2456
     12 C          64.0485   81.8969   15.4064 C.3     1  UNL1        0.1876
     13 C          64.4370   84.1396   15.0675 C.3     1  UNL1        0.1747
     14 O          63.4820   83.1873   15.4778 O.3     1  UNL1       -0.3447
     15 N          60.9742   83.7772    9.4460 N.am    1  UNL1       -0.2945
     16 C          62.2293   84.2190    9.9884 C.2     1  UNL1        0.2483
     17 O          63.2254   83.4448    9.9766 O.2     1  UNL1       -0.2701
     18 H          60.2751   84.5037    9.1702 H       1  UNL1        0.1501
     19 C          62.3823   85.5888   10.5304 C.ar    1  UNL1        0.0808
     20 C          62.7002   85.7667   11.8875 C.ar    1  UNL1        0.0080
     21 C          62.8544   87.0491   12.4198 C.ar    1  UNL1        0.0148
     22 C          62.6783   88.1809   11.6098 C.ar    1  UNL1        0.0502
     23 C          62.3504   88.0071   10.2560 C.ar    1  UNL1        0.0443
     24 C          62.1973   86.7252    9.7186 C.ar    1  UNL1        0.1457
     25 F          61.8280   86.6046    8.4182 F       1  UNL1       -0.2040
     26 N          62.8492   89.5029   12.1557 N.pl3   1  UNL1       -0.3040
     27 C          62.7378   89.7079   13.6092 C.3     1  UNL1        0.1122
     28 C          63.1956   91.1144   14.0120 C.3     1  UNL1        0.1122
     29 N          64.4233   91.4646   13.2834 N.pl3   1  UNL1       -0.3040
     30 C          64.4677   91.3196   11.8189 C.3     1  UNL1        0.1122
     31 C          63.2044   90.6337   11.2863 C.3     1  UNL1        0.1122
     32 C          65.6069   91.8781   13.9928 C.ar    1  UNL1        0.0488
     33 C          65.5105   92.3985   15.2939 C.ar    1  UNL1        0.0154
     34 C          66.6597   92.7862   15.9871 C.ar    1  UNL1        0.0135
     35 C          67.9195   92.6567   15.3937 C.ar    1  UNL1        0.0683
     36 CL         69.3428   93.1554   16.2980 Cl      1  UNL1       -0.0814
     37 C          68.0275   92.1315   14.0953 C.ar    1  UNL1        0.0694
     38 CL         69.5920   91.9517   13.3126 Cl      1  UNL1       -0.0813
     39 C          66.8746   91.7428   13.4027 C.ar    1  UNL1        0.0268
     40 C          59.2423   82.1460    8.8329 C.3     1  UNL1        0.0569
     41 C          58.4255   83.3028    9.3385 C.ar    1  UNL1       -0.0017
     42 C          57.5051   84.0438    8.6035 C.ar    1  UNL1        0.0681
     43 N          56.8562   84.9201    9.4037 N.ar    1  UNL1       -0.3523
     44 C          57.3481   84.7295   10.6402 C.ar    1  UNL1        0.0563
     45 C          56.9538   85.3710   11.8137 C.ar    1  UNL1        0.0170
     46 C          57.5728   84.9826   13.0156 C.ar    1  UNL1        0.0015
     47 C          58.5568   83.9696   13.0189 C.ar    1  UNL1        0.0001
     48 C          58.9341   83.3386   11.8198 C.ar    1  UNL1        0.0012
     49 C          58.3068   83.7486   10.6422 C.ar    1  UNL1        0.0131
     50 H          56.1046   85.5871    9.1199 H       1  UNL1        0.1660
@<TRIPOS>BOND
     1    13    14    1
     2    14    12    1
     3    12     6    1
     4     6     7   ar
     5     7     8   ar
     6     8     2    1
     7     2     3   am
     8     3     4    2
     9     3     1    1
    10     1    40    1
    11    40    41    1
    12    41    42   ar
    13    42    43   ar
    14    43    44   ar
    15    44    45   ar
    16    45    46   ar
    17    46    47   ar
    18    47    48   ar
    19    48    49   ar
    20     1    15    1
    21    15    16   am
    22    16    17    2
    23    16    19    1
    24    19    20   ar
    25    20    21   ar
    26    21    22   ar
    27    22    26    1
    28    26    27    1
    29    27    28    1
    30    28    29    1
    31    29    32    1
    32    32    33   ar
    33    33    34   ar
    34    34    35   ar
    35    35    36    1
    36    35    37   ar
    37    37    38    1
    38    37    39   ar
    39    29    30    1
    40    30    31    1
    41    22    23   ar
    42    23    24   ar
    43    24    25    1
    44     8     9   ar
    45     9    10   ar
    46    10    11   ar
    47    11     6   ar
    48    49    41   ar
    49    24    19   ar
    50    49    44   ar
    51    31    26    1
    52    39    32   ar
    53     2     5    1
    54    43    50    1
    55    15    18    1
