@<TRIPOS>MOLECULE
*****
 62 67 0 0 0
SMALL
GASTEIGER

@<TRIPOS>ATOM
      1 C          63.0128   86.9185   14.5584 C.ar    1  UNL1        0.0001
      2 C          61.9072   87.7875   14.5042 C.ar    1  UNL1        0.0013
      3 C          61.9937   89.0776   15.0359 C.ar    1  UNL1        0.0147
      4 C          63.1771   89.5091   15.6502 C.ar    1  UNL1        0.0503
      5 C          64.2996   88.6740   15.6479 C.ar    1  UNL1        0.0147
      6 C          64.2165   87.3844   15.1195 C.ar    1  UNL1        0.0013
      7 C          62.3561   82.8768   13.2336 C.ar    1  UNL1        0.0503
      8 C          62.5298   83.9158   12.3002 C.ar    1  UNL1        0.0147
      9 C          62.8055   85.2156   12.7301 C.ar    1  UNL1        0.0013
     10 C          62.8981   85.5104   14.1006 C.ar    1  UNL1        0.0001
     11 C          62.7898   84.4599   15.0283 C.ar    1  UNL1        0.0013
     12 C          62.5280   83.1569   14.5972 C.ar    1  UNL1        0.0147
     13 C          61.1467   81.3383   11.6529 C.2     1  UNL1        0.2442
     14 O          61.6714   81.5048   10.5183 O.2     1  UNL1       -0.2730
     15 N          61.9216   81.5627   12.8353 N.am    1  UNL1       -0.2826
     16 H          61.8774   80.8188   13.5679 H       1  UNL1        0.1549
     17 C          58.8352   83.4021   11.7657 C.2     1  UNL1        0.2482
     18 O          59.1627   83.5822   12.9705 O.2     1  UNL1       -0.2727
     19 N          58.8714   82.0721   11.2141 N.am    1  UNL1       -0.2714
     20 C          57.9476   81.6037   10.1953 C.3     1  UNL1        0.0939
     21 C          58.0043   80.0831   10.2556 C.3     1  UNL1        0.0237
     22 C          59.2942   79.7360   10.9962 C.3     1  UNL1        0.0310
     23 C          59.6815   80.9995   11.7751 C.3     1  UNL1        0.1521
     24 C          58.4114   84.5852   10.9283 C.3     1  UNL1        0.1743
     25 C          58.2171   85.8106   11.7942 C.ar    1  UNL1        0.0044
     26 C          59.2199   86.7943   11.8600 C.ar    1  UNL1       -0.0022
     27 C          59.0577   87.9157   12.6793 C.ar    1  UNL1       -0.0003
     28 C          57.8929   88.0697   13.4348 C.ar    1  UNL1       -0.0000
     29 C          56.8840   87.1065   13.3667 C.ar    1  UNL1       -0.0003
     30 C          57.0401   85.9843   12.5484 C.ar    1  UNL1       -0.0022
     31 C          59.0826   85.5252    8.6622 C.2     1  UNL1        0.4023
     32 O          57.8880   85.8381    8.4024 O.2     1  UNL1       -0.2264
     33 N          59.4076   84.8560    9.8861 N.am    1  UNL1       -0.2606
     34 H          60.4208   84.7098   10.0961 H       1  UNL1        0.1535
     35 C          61.4631   85.4775    7.9918 C.3     1  UNL1        0.2573
     36 O          60.1068   85.8399    7.7654 O.3     1  UNL1       -0.4306
     37 N          63.2658   90.8061   16.2500 N.am    1  UNL1       -0.2826
     38 C          64.3380   91.7371   16.0180 C.2     1  UNL1        0.2442
     39 O          64.2354   92.8973   16.5020 O.2     1  UNL1       -0.2730
     40 H          62.4019   91.1780   16.7059 H       1  UNL1        0.1549
     41 C          65.5338   91.4132   15.1391 C.3     1  UNL1        0.1521
     42 C          66.8166   92.0695   15.6584 C.3     1  UNL1        0.0310
     43 C          66.9713   93.3552   14.8521 C.3     1  UNL1        0.0237
     44 C          66.2052   93.1190   13.5568 C.3     1  UNL1        0.0939
     45 N          65.3381   91.9771   13.8091 N.am    1  UNL1       -0.2714
     46 C          64.6061   91.3012   12.7687 C.2     1  UNL1        0.2482
     47 O          64.3840   90.0648   12.8727 O.2     1  UNL1       -0.2727
     48 C          64.1708   92.0303   11.5162 C.3     1  UNL1        0.1744
     49 C          65.3367   92.7967   10.9317 C.ar    1  UNL1        0.0074
     50 C          65.2555   94.1869   10.7532 C.ar    1  UNL1       -0.0020
     51 C          66.3273   94.8924   10.2046 C.ar    1  UNL1        0.0029
     52 C          67.4932   94.2199    9.8352 C.ar    1  UNL1        0.0369
     53 C          67.5990   92.8354   10.0080 C.ar    1  UNL1        0.1385
     54 C          66.5151   92.1256   10.5612 C.ar    1  UNL1        0.0347
     55 O          68.7901   92.2054    9.6180 O.3     1  UNL1       -0.4714
     56 C          69.1721   91.9745    8.2659 C.3     1  UNL1        0.2525
     57 N          63.6279   91.1004   10.5165 N.am    1  UNL1       -0.2606
     58 C          62.3034   90.5648   10.6158 C.2     1  UNL1        0.4023
     59 O          61.5776   90.8396   11.6110 O.2     1  UNL1       -0.2264
     60 H          64.1789   90.8542    9.6633 H       1  UNL1        0.1535
     61 O          61.8230   89.7391    9.5958 O.3     1  UNL1       -0.4306
     62 C          60.4350   89.5132    9.3827 C.3     1  UNL1        0.2573
@<TRIPOS>BOND
     1    35    36    1
     2    36    31    1
     3    31    32    2
     4    31    33   am
     5    33    24    1
     6    24    17    1
     7    17    18    2
     8    17    19   am
     9    19    20    1
    10    20    21    1
    11    21    22    1
    12    22    23    1
    13    23    13    1
    14    13    14    2
    15    13    15   am
    16    15     7    1
    17     7     8   ar
    18     8     9   ar
    19     9    10   ar
    20    10     1    1
    21     1     2   ar
    22     2     3   ar
    23     3     4   ar
    24     4    37    1
    25    37    38   am
    26    38    39    2
    27    38    41    1
    28    41    42    1
    29    42    43    1
    30    43    44    1
    31    44    45    1
    32    45    46   am
    33    46    47    2
    34    46    48    1
    35    48    57    1
    36    57    58   am
    37    58    59    2
    38    58    61    1
    39    61    62    1
    40    48    49    1
    41    49    50   ar
    42    50    51   ar
    43    51    52   ar
    44    52    53   ar
    45    53    55    1
    46    55    56    1
    47    53    54   ar
    48     4     5   ar
    49     5     6   ar
    50    10    11   ar
    51    11    12   ar
    52    24    25    1
    53    25    26   ar
    54    26    27   ar
    55    27    28   ar
    56    28    29   ar
    57    29    30   ar
    58    23    19    1
    59    12     7   ar
    60    30    25   ar
    61     6     1   ar
    62    45    41    1
    63    54    49   ar
    64    33    34    1
    65    15    16    1
    66    37    40    1
    67    57    60    1
@<TRIPOS>MOLECULE
*****
 62 67 0 0 0
SMALL
GASTEIGER

@<TRIPOS>ATOM
      1 C          60.1357   87.0071   12.7947 C.ar    1  UNL1        0.0001
      2 C          59.8743   87.1479   11.4191 C.ar    1  UNL1        0.0013
      3 C          59.0249   86.2512   10.7640 C.ar    1  UNL1        0.0147
      4 C          58.4440   85.1880   11.4683 C.ar    1  UNL1        0.0503
      5 C          58.6471   85.0820   12.8485 C.ar    1  UNL1        0.0147
      6 C          59.4961   85.9745   13.5057 C.ar    1  UNL1        0.0013
      7 C          63.0335   89.3081   14.9923 C.ar    1  UNL1        0.0503
      8 C          63.4397   88.4580   13.9467 C.ar    1  UNL1        0.0147
      9 C          62.4937   87.7601   13.1930 C.ar    1  UNL1        0.0013
     10 C          61.1230   87.8825   13.4760 C.ar    1  UNL1        0.0001
     11 C          60.7157   88.7818   14.4766 C.ar    1  UNL1        0.0013
     12 C          61.6618   89.4908   15.2213 C.ar    1  UNL1        0.0147
     13 C          64.4203   91.2750   15.7248 C.2     1  UNL1        0.2442
     14 O          63.6156   92.2229   15.9351 O.2     1  UNL1       -0.2730
     15 N          63.9829   89.9215   15.8848 N.am    1  UNL1       -0.2826
     16 H          64.6061   89.2947   16.4424 H       1  UNL1        0.1549
     17 C          65.2072   91.5351   12.7367 C.2     1  UNL1        0.2482
     18 O          65.1620   90.2751   12.6987 O.2     1  UNL1       -0.2727
     19 N          65.7441   92.1887   13.9025 N.am    1  UNL1       -0.2714
     20 C          66.4713   93.4455   13.8508 C.3     1  UNL1        0.0939
     21 C          67.2531   93.5229   15.1553 C.3     1  UNL1        0.0237
     22 C          66.5943   92.5241   16.1044 C.3     1  UNL1        0.0310
     23 C          65.8115   91.5531   15.2113 C.3     1  UNL1        0.1521
     24 C          64.6980   92.3307   11.5585 C.3     1  UNL1        0.1743
     25 C          65.8477   92.9530   10.7970 C.ar    1  UNL1        0.0044
     26 C          65.7533   94.2780   10.3353 C.ar    1  UNL1       -0.0022
     27 C          66.8017   94.8496    9.6077 C.ar    1  UNL1       -0.0003
     28 C          67.9550   94.1085    9.3394 C.ar    1  UNL1       -0.0000
     29 C          68.0661   92.7967    9.8051 C.ar    1  UNL1       -0.0003
     30 C          67.0220   92.2207   10.5341 C.ar    1  UNL1       -0.0022
     31 C          62.6478   90.9122   11.0548 C.2     1  UNL1        0.4023
     32 O          62.2085   91.0738   12.2267 O.2     1  UNL1       -0.2264
     33 N          63.9069   91.4746   10.6680 N.am    1  UNL1       -0.2606
     34 H          64.1760   91.3962    9.6612 H       1  UNL1        0.1535
     35 C          60.4845   90.1342   10.1419 C.3     1  UNL1        0.2573
     36 O          61.9049   90.1940   10.1143 O.3     1  UNL1       -0.4306
     37 N          57.6169   84.2274   10.8027 N.am    1  UNL1       -0.2826
     38 C          58.0614   83.3758    9.7314 C.2     1  UNL1        0.2442
     39 O          57.2757   82.4806    9.3163 O.2     1  UNL1       -0.2730
     40 H          56.7114   83.9811   11.2629 H       1  UNL1        0.1549
     41 C          59.4631   83.4470    9.1506 C.3     1  UNL1        0.1521
     42 C          59.5464   82.7698    7.7793 C.3     1  UNL1        0.0310
     43 C          60.0709   81.3634    8.0511 C.3     1  UNL1        0.0237
     44 C          60.8261   81.4575    9.3707 C.3     1  UNL1        0.0939
     45 N          60.3871   82.6980    9.9935 N.am    1  UNL1       -0.2714
     46 C          61.0241   83.2621   11.1559 C.2     1  UNL1        0.2482
     47 O          61.0509   84.5141   11.2994 O.2     1  UNL1       -0.2727
     48 C          61.7322   82.3845   12.1649 C.3     1  UNL1        0.1744
     49 C          62.4995   83.2409   13.1478 C.ar    1  UNL1        0.0074
     50 C          63.8230   83.6227   12.8759 C.ar    1  UNL1       -0.0020
     51 C          64.5340   84.4044   13.7874 C.ar    1  UNL1        0.0029
     52 C          63.9304   84.8191   14.9754 C.ar    1  UNL1        0.0369
     53 C          62.6109   84.4549   15.2659 C.ar    1  UNL1        0.1385
     54 C          61.8957   83.6649   14.3444 C.ar    1  UNL1        0.0347
     55 O          62.0503   84.8939   16.4745 O.3     1  UNL1       -0.4714
     56 C          62.2783   86.1773   17.0474 C.3     1  UNL1        0.2525
     57 N          60.7843   81.5211   12.8826 N.am    1  UNL1       -0.2606
     58 C          61.1389   80.2070   13.3277 C.2     1  UNL1        0.4023
     59 O          62.2760   79.7287   13.0609 O.2     1  UNL1       -0.2264
     60 H          59.8365   81.8740   13.1458 H       1  UNL1        0.1535
     61 O          60.2134   79.4632   14.0646 O.3     1  UNL1       -0.4306
     62 C          58.8239   79.7666   14.0787 C.3     1  UNL1        0.2573
@<TRIPOS>BOND
     1    35    36    1
     2    36    31    1
     3    31    32    2
     4    31    33   am
     5    33    24    1
     6    24    17    1
     7    17    18    2
     8    17    19   am
     9    19    20    1
    10    20    21    1
    11    21    22    1
    12    22    23    1
    13    23    13    1
    14    13    14    2
    15    13    15   am
    16    15     7    1
    17     7     8   ar
    18     8     9   ar
    19     9    10   ar
    20    10     1    1
    21     1     2   ar
    22     2     3   ar
    23     3     4   ar
    24     4    37    1
    25    37    38   am
    26    38    39    2
    27    38    41    1
    28    41    42    1
    29    42    43    1
    30    43    44    1
    31    44    45    1
    32    45    46   am
    33    46    47    2
    34    46    48    1
    35    48    57    1
    36    57    58   am
    37    58    59    2
    38    58    61    1
    39    61    62    1
    40    48    49    1
    41    49    50   ar
    42    50    51   ar
    43    51    52   ar
    44    52    53   ar
    45    53    55    1
    46    55    56    1
    47    53    54   ar
    48     4     5   ar
    49     5     6   ar
    50    10    11   ar
    51    11    12   ar
    52    24    25    1
    53    25    26   ar
    54    26    27   ar
    55    27    28   ar
    56    28    29   ar
    57    29    30   ar
    58    23    19    1
    59    12     7   ar
    60    30    25   ar
    61     6     1   ar
    62    45    41    1
    63    54    49   ar
    64    33    34    1
    65    15    16    1
    66    37    40    1
    67    57    60    1
@<TRIPOS>MOLECULE
*****
 62 67 0 0 0
SMALL
GASTEIGER

@<TRIPOS>ATOM
      1 C          62.7083   87.4556   14.3407 C.ar    1  UNL1        0.0001
      2 C          63.8264   87.6189   15.1796 C.ar    1  UNL1        0.0013
      3 C          64.0291   88.8211   15.8638 C.ar    1  UNL1        0.0147
      4 C          63.1314   89.8849   15.7010 C.ar    1  UNL1        0.0503
      5 C          61.9837   89.7056   14.9211 C.ar    1  UNL1        0.0147
      6 C          61.7788   88.5070   14.2351 C.ar    1  UNL1        0.0013
      7 C          62.3422   84.0669   11.7130 C.ar    1  UNL1        0.0503
      8 C          63.5244   84.2780   12.4471 C.ar    1  UNL1        0.0147
      9 C          63.6193   85.3419   13.3468 C.ar    1  UNL1        0.0013
     10 C          62.5430   86.2276   13.5220 C.ar    1  UNL1        0.0001
     11 C          61.3411   85.9769   12.8377 C.ar    1  UNL1        0.0013
     12 C          61.2415   84.9040   11.9482 C.ar    1  UNL1        0.0147
     13 C          62.7999   83.2991    9.3616 C.2     1  UNL1        0.2442
     14 O          64.0488   83.3642    9.1996 O.2     1  UNL1       -0.2730
     15 N          62.2625   83.0775   10.6696 N.am    1  UNL1       -0.2826
     16 H          61.5283   82.3383   10.7511 H       1  UNL1        0.1549
     17 C          59.8525   82.3489    9.2021 C.2     1  UNL1        0.2482
     18 O          60.3192   81.2118    8.9182 O.2     1  UNL1       -0.2727
     19 N          60.4828   83.5266    8.6635 N.am    1  UNL1       -0.2714
     20 C          59.7547   84.7347    8.3151 C.3     1  UNL1        0.0939
     21 C          60.6645   85.5052    7.3677 C.3     1  UNL1        0.0237
     22 C          62.0656   84.9299    7.5639 C.3     1  UNL1        0.0310
     23 C          61.8649   83.5506    8.2044 C.3     1  UNL1        0.1521
     24 C          58.6426   82.4501   10.1000 C.3     1  UNL1        0.1743
     25 C          58.6499   81.3448   11.1332 C.ar    1  UNL1        0.0044
     26 C          59.0194   81.6228   12.4613 C.ar    1  UNL1       -0.0022
     27 C          59.0540   80.6002   13.4143 C.ar    1  UNL1       -0.0003
     28 C          58.7151   79.2938   13.0540 C.ar    1  UNL1       -0.0000
     29 C          58.3329   79.0084   11.7415 C.ar    1  UNL1       -0.0003
     30 C          58.2950   80.0268   10.7850 C.ar    1  UNL1       -0.0022
     31 C          57.5028   84.6627   10.6239 C.2     1  UNL1        0.4023
     32 O          56.5445   84.3890    9.8499 O.2     1  UNL1       -0.2264
     33 N          58.6056   83.7591   10.7611 N.am    1  UNL1       -0.2606
     34 H          59.3216   83.9861   11.4877 H       1  UNL1        0.1535
     35 C          57.4399   85.8566   12.7894 C.3     1  UNL1        0.2573
     36 O          57.4946   85.8451   11.3685 O.3     1  UNL1       -0.4306
     37 N          63.3529   91.1422   16.3489 N.am    1  UNL1       -0.2826
     38 C          64.5158   91.9656   16.1488 C.2     1  UNL1        0.2442
     39 O          64.5330   93.1112   16.6764 O.2     1  UNL1       -0.2730
     40 H          62.5316   91.5838   16.8209 H       1  UNL1        0.1549
     41 C          65.6726   91.5535   15.2549 C.3     1  UNL1        0.1521
     42 C          66.9962   92.1718   15.7150 C.3     1  UNL1        0.0310
     43 C          67.1858   93.4159   14.8528 C.3     1  UNL1        0.0237
     44 C          66.3762   93.1625   13.5876 C.3     1  UNL1        0.0939
     45 N          65.4668   92.0718   13.9080 N.am    1  UNL1       -0.2714
     46 C          64.6786   91.3882   12.9146 C.2     1  UNL1        0.2482
     47 O          64.4053   90.1682   13.0750 O.2     1  UNL1       -0.2727
     48 C          64.2428   92.0853   11.6443 C.3     1  UNL1        0.1744
     49 C          65.4129   92.8216   11.0302 C.ar    1  UNL1        0.0074
     50 C          65.3654   94.2143   10.8587 C.ar    1  UNL1       -0.0020
     51 C          66.4408   94.8921   10.2830 C.ar    1  UNL1        0.0029
     52 C          67.5769   94.1893    9.8793 C.ar    1  UNL1        0.0369
     53 C          67.6491   92.8017   10.0444 C.ar    1  UNL1        0.1385
     54 C          66.5616   92.1198   10.6250 C.ar    1  UNL1        0.0347
     55 O          68.8110   92.1406    9.6195 O.3     1  UNL1       -0.4714
     56 C          69.1839   91.9659    8.2565 C.3     1  UNL1        0.2525
     57 N          63.6833   91.1327   10.6755 N.am    1  UNL1       -0.2606
     58 C          62.3426   90.6402   10.7802 C.2     1  UNL1        0.4023
     59 O          61.6148   90.9752   11.7554 O.2     1  UNL1       -0.2264
     60 H          64.2358   90.8370    9.8392 H       1  UNL1        0.1535
     61 O          61.8489   89.7891    9.7879 O.3     1  UNL1       -0.4306
     62 C          61.6819   88.3913    9.9909 C.3     1  UNL1        0.2573
@<TRIPOS>BOND
     1    35    36    1
     2    36    31    1
     3    31    32    2
     4    31    33   am
     5    33    24    1
     6    24    17    1
     7    17    18    2
     8    17    19   am
     9    19    20    1
    10    20    21    1
    11    21    22    1
    12    22    23    1
    13    23    13    1
    14    13    14    2
    15    13    15   am
    16    15     7    1
    17     7     8   ar
    18     8     9   ar
    19     9    10   ar
    20    10     1    1
    21     1     2   ar
    22     2     3   ar
    23     3     4   ar
    24     4    37    1
    25    37    38   am
    26    38    39    2
    27    38    41    1
    28    41    42    1
    29    42    43    1
    30    43    44    1
    31    44    45    1
    32    45    46   am
    33    46    47    2
    34    46    48    1
    35    48    57    1
    36    57    58   am
    37    58    59    2
    38    58    61    1
    39    61    62    1
    40    48    49    1
    41    49    50   ar
    42    50    51   ar
    43    51    52   ar
    44    52    53   ar
    45    53    55    1
    46    55    56    1
    47    53    54   ar
    48     4     5   ar
    49     5     6   ar
    50    10    11   ar
    51    11    12   ar
    52    24    25    1
    53    25    26   ar
    54    26    27   ar
    55    27    28   ar
    56    28    29   ar
    57    29    30   ar
    58    23    19    1
    59    12     7   ar
    60    30    25   ar
    61     6     1   ar
    62    45    41    1
    63    54    49   ar
    64    33    34    1
    65    15    16    1
    66    37    40    1
    67    57    60    1
@<TRIPOS>MOLECULE
*****
 62 67 0 0 0
SMALL
GASTEIGER

@<TRIPOS>ATOM
      1 C          62.9743   85.7987   15.1309 C.ar    1  UNL1        0.0001
      2 C          64.2244   86.4419   15.1941 C.ar    1  UNL1        0.0013
      3 C          64.3122   87.7830   15.5792 C.ar    1  UNL1        0.0147
      4 C          63.1513   88.5067   15.8831 C.ar    1  UNL1        0.0503
      5 C          61.9133   87.8550   15.8863 C.ar    1  UNL1        0.0147
      6 C          61.8214   86.5163   15.5006 C.ar    1  UNL1        0.0013
      7 C          62.3159   81.8359   13.5868 C.ar    1  UNL1        0.0503
      8 C          62.6971   82.8837   12.7279 C.ar    1  UNL1        0.0147
      9 C          62.9718   84.1541   13.2386 C.ar    1  UNL1        0.0013
     10 C          62.8567   84.4111   14.6150 C.ar    1  UNL1        0.0001
     11 C          62.5401   83.3481   15.4784 C.ar    1  UNL1        0.0013
     12 C          62.2791   82.0736   14.9687 C.ar    1  UNL1        0.0147
     13 C          61.0432   80.4403   11.9252 C.2     1  UNL1        0.2442
     14 O          61.5021   80.7302   10.7869 O.2     1  UNL1       -0.2730
     15 N          61.8788   80.5602   13.0811 N.am    1  UNL1       -0.2826
     16 H          61.8857   79.7458   13.7359 H       1  UNL1        0.1549
     17 C          58.6827   82.4415   12.1221 C.2     1  UNL1        0.2482
     18 O          59.0426   82.6237   13.3173 O.2     1  UNL1       -0.2727
     19 N          58.7368   81.1159   11.5615 N.am    1  UNL1       -0.2714
     20 C          57.7944   80.6286   10.5688 C.3     1  UNL1        0.0939
     21 C          57.8931   79.1098   10.6179 C.3     1  UNL1        0.0237
     22 C          59.2140   78.7930   11.3161 C.3     1  UNL1        0.0310
     23 C          59.5919   80.0621   12.0905 C.3     1  UNL1        0.1521
     24 C          58.2020   83.6174   11.3056 C.3     1  UNL1        0.1743
     25 C          58.3061   84.8994   12.1023 C.ar    1  UNL1        0.0044
     26 C          57.1523   85.4807   12.6577 C.ar    1  UNL1       -0.0022
     27 C          57.2383   86.6795   13.3721 C.ar    1  UNL1       -0.0003
     28 C          58.4750   87.3059   13.5446 C.ar    1  UNL1       -0.0000
     29 C          59.6297   86.7307   13.0099 C.ar    1  UNL1       -0.0003
     30 C          59.5499   85.5318   12.2962 C.ar    1  UNL1       -0.0022
     31 C          58.3768   84.0431    8.8041 C.2     1  UNL1        0.4023
     32 O          57.1241   84.1572    8.7036 O.2     1  UNL1       -0.2264
     33 N          58.9778   83.7290   10.0656 N.am    1  UNL1       -0.2606
     34 H          60.0216   83.7446   10.1145 H       1  UNL1        0.1535
     35 C          60.1983   83.3033    7.3029 C.3     1  UNL1        0.2573
     36 O          59.1958   84.2353    7.6885 O.3     1  UNL1       -0.4306
     37 N          63.2166   89.8956   16.2245 N.am    1  UNL1       -0.2826
     38 C          63.9773   90.8764   15.4967 C.2     1  UNL1        0.2442
     39 O          63.8492   92.0892   15.8187 O.2     1  UNL1       -0.2730
     40 H          62.5054   90.2513   16.9029 H       1  UNL1        0.1549
     41 C          64.8468   90.5235   14.3023 C.3     1  UNL1        0.1521
     42 C          65.9719   91.5421   14.0962 C.3     1  UNL1        0.0310
     43 C          65.4559   92.5093   13.0353 C.3     1  UNL1        0.0237
     44 C          64.4066   91.7324   12.2507 C.3     1  UNL1        0.0939
     45 N          64.0569   90.5871   13.0787 N.am    1  UNL1       -0.2714
     46 C          63.2546   89.4892   12.6030 C.2     1  UNL1        0.2482
     47 O          63.4596   88.3317   13.0579 O.2     1  UNL1       -0.2727
     48 C          62.2276   89.6854   11.5092 C.3     1  UNL1        0.1744
     49 C          62.0280   88.3932   10.7486 C.ar    1  UNL1        0.0074
     50 C          62.6243   87.2042   11.1984 C.ar    1  UNL1       -0.0020
     51 C          62.4483   86.0143   10.4910 C.ar    1  UNL1        0.0029
     52 C          61.6705   85.9963    9.3324 C.ar    1  UNL1        0.0369
     53 C          61.0625   87.1677    8.8674 C.ar    1  UNL1        0.1385
     54 C          61.2426   88.3678    9.5830 C.ar    1  UNL1        0.0347
     55 O          60.2934   87.0985    7.6964 O.3     1  UNL1       -0.4714
     56 C          59.0763   87.8081    7.4907 C.3     1  UNL1        0.2525
     57 N          60.9455   90.1509   12.0556 N.am    1  UNL1       -0.2606
     58 C          59.9062   90.6716   11.2191 C.2     1  UNL1        0.4023
     59 O          60.0905   90.7973    9.9770 O.2     1  UNL1       -0.2264
     60 H          60.7333   90.0524   13.0741 H       1  UNL1        0.1535
     61 O          58.6849   91.0338   11.7938 O.3     1  UNL1       -0.4306
     62 C          58.1740   92.3599   11.7355 C.3     1  UNL1        0.2573
@<TRIPOS>BOND
     1    35    36    1
     2    36    31    1
     3    31    32    2
     4    31    33   am
     5    33    24    1
     6    24    17    1
     7    17    18    2
     8    17    19   am
     9    19    20    1
    10    20    21    1
    11    21    22    1
    12    22    23    1
    13    23    13    1
    14    13    14    2
    15    13    15   am
    16    15     7    1
    17     7     8   ar
    18     8     9   ar
    19     9    10   ar
    20    10     1    1
    21     1     2   ar
    22     2     3   ar
    23     3     4   ar
    24     4    37    1
    25    37    38   am
    26    38    39    2
    27    38    41    1
    28    41    42    1
    29    42    43    1
    30    43    44    1
    31    44    45    1
    32    45    46   am
    33    46    47    2
    34    46    48    1
    35    48    57    1
    36    57    58   am
    37    58    59    2
    38    58    61    1
    39    61    62    1
    40    48    49    1
    41    49    50   ar
    42    50    51   ar
    43    51    52   ar
    44    52    53   ar
    45    53    55    1
    46    55    56    1
    47    53    54   ar
    48     4     5   ar
    49     5     6   ar
    50    10    11   ar
    51    11    12   ar
    52    24    25    1
    53    25    26   ar
    54    26    27   ar
    55    27    28   ar
    56    28    29   ar
    57    29    30   ar
    58    23    19    1
    59    12     7   ar
    60    30    25   ar
    61     6     1   ar
    62    45    41    1
    63    54    49   ar
    64    33    34    1
    65    15    16    1
    66    37    40    1
    67    57    60    1
@<TRIPOS>MOLECULE
*****
 62 67 0 0 0
SMALL
GASTEIGER

@<TRIPOS>ATOM
      1 C          63.0235   86.3583   15.1695 C.ar    1  UNL1        0.0001
      2 C          64.2114   87.1051   15.0614 C.ar    1  UNL1        0.0013
      3 C          64.2454   88.4440   15.4624 C.ar    1  UNL1        0.0147
      4 C          63.0878   89.0621   15.9542 C.ar    1  UNL1        0.0503
      5 C          61.9225   88.3070   16.1259 C.ar    1  UNL1        0.0147
      6 C          61.8844   86.9702   15.7250 C.ar    1  UNL1        0.0013
      7 C          62.4975   82.4152   13.5272 C.ar    1  UNL1        0.0503
      8 C          63.1052   83.4314   12.7663 C.ar    1  UNL1        0.0147
      9 C          63.3326   84.6924   13.3215 C.ar    1  UNL1        0.0013
     10 C          62.9444   84.9721   14.6424 C.ar    1  UNL1        0.0001
     11 C          62.3981   83.9374   15.4214 C.ar    1  UNL1        0.0013
     12 C          62.1837   82.6717   14.8700 C.ar    1  UNL1        0.0147
     13 C          61.2358   81.0750   11.8125 C.2     1  UNL1        0.2442
     14 O          61.6314   81.4737   10.6834 O.2     1  UNL1       -0.2730
     15 N          62.1103   81.1572   12.9428 N.am    1  UNL1       -0.2826
     16 H          62.1882   80.2985   13.5333 H       1  UNL1        0.1549
     17 C          58.7608   82.9195   12.1084 C.2     1  UNL1        0.2482
     18 O          59.1372   83.0983   13.2990 O.2     1  UNL1       -0.2727
     19 N          58.8839   81.6122   11.5165 N.am    1  UNL1       -0.2714
     20 C          57.9501   81.0881   10.5344 C.3     1  UNL1        0.0939
     21 C          58.1442   79.5778   10.5466 C.3     1  UNL1        0.0237
     22 C          59.4986   79.3296   11.2074 C.3     1  UNL1        0.0310
     23 C          59.8153   80.6031   12.0019 C.3     1  UNL1        0.1521
     24 C          58.1885   84.0801   11.3299 C.3     1  UNL1        0.1743
     25 C          58.2274   85.3478   12.1550 C.ar    1  UNL1        0.0044
     26 C          59.4555   85.8474   12.6235 C.ar    1  UNL1       -0.0022
     27 C          59.4952   87.0035   13.4090 C.ar    1  UNL1       -0.0003
     28 C          58.3127   87.6749   13.7290 C.ar    1  UNL1       -0.0000
     29 C          57.0885   87.1962   13.2576 C.ar    1  UNL1       -0.0003
     30 C          57.0429   86.0420   12.4708 C.ar    1  UNL1       -0.0022
     31 C          58.2827   84.5794    8.8378 C.2     1  UNL1        0.4023
     32 O          57.0235   84.6210    8.7660 O.2     1  UNL1       -0.2264
     33 N          58.9289   84.2696   10.0778 N.am    1  UNL1       -0.2606
     34 H          59.9708   84.3463   10.1058 H       1  UNL1        0.1535
     35 C          60.4710   85.0433    7.7821 C.3     1  UNL1        0.2573
     36 O          59.0642   84.8487    7.7112 O.3     1  UNL1       -0.4306
     37 N          63.0889   90.4472   16.3166 N.am    1  UNL1       -0.2826
     38 C          64.1004   91.3902   15.9191 C.2     1  UNL1        0.2442
     39 O          63.9200   92.6084   16.1925 O.2     1  UNL1       -0.2730
     40 H          62.2000   90.8367   16.7046 H       1  UNL1        0.1549
     41 C          65.3200   90.9951   15.1046 C.3     1  UNL1        0.1521
     42 C          66.5563   91.8086   15.4993 C.3     1  UNL1        0.0310
     43 C          66.6374   92.9442   14.4840 C.3     1  UNL1        0.0237
     44 C          65.8966   92.4428   13.2510 C.3     1  UNL1        0.0939
     45 N          65.0995   91.3097   13.6984 N.am    1  UNL1       -0.2714
     46 C          64.4178   90.4217   12.7918 C.2     1  UNL1        0.2482
     47 O          64.2714   89.2100   13.1070 O.2     1  UNL1       -0.2727
     48 C          63.9476   90.8971   11.4344 C.3     1  UNL1        0.1744
     49 C          62.4827   90.5684   11.2496 C.ar    1  UNL1        0.0074
     50 C          61.6308   90.4683   12.3612 C.ar    1  UNL1       -0.0020
     51 C          60.2816   90.1552   12.1913 C.ar    1  UNL1        0.0029
     52 C          59.7667   89.9457   10.9111 C.ar    1  UNL1        0.0369
     53 C          60.5953   90.0447    9.7879 C.ar    1  UNL1        0.1385
     54 C          61.9572   90.3600    9.9624 C.ar    1  UNL1        0.0347
     55 O          60.0310   89.8219    8.5232 O.3     1  UNL1       -0.4714
     56 C          59.8674   88.5376    7.9306 C.3     1  UNL1        0.2525
     57 N          64.1642   92.3408   11.2679 N.am    1  UNL1       -0.2606
     58 C          65.2607   92.8631   10.5091 C.2     1  UNL1        0.4023
     59 O          66.1141   92.0834   10.0026 O.2     1  UNL1       -0.2264
     60 H          63.4780   93.0301   11.6504 H       1  UNL1        0.1535
     61 O          65.3714   94.2449   10.3323 O.3     1  UNL1       -0.4306
     62 C          66.6180   94.8908   10.1049 C.3     1  UNL1        0.2573
@<TRIPOS>BOND
     1    35    36    1
     2    36    31    1
     3    31    32    2
     4    31    33   am
     5    33    24    1
     6    24    17    1
     7    17    18    2
     8    17    19   am
     9    19    20    1
    10    20    21    1
    11    21    22    1
    12    22    23    1
    13    23    13    1
    14    13    14    2
    15    13    15   am
    16    15     7    1
    17     7     8   ar
    18     8     9   ar
    19     9    10   ar
    20    10     1    1
    21     1     2   ar
    22     2     3   ar
    23     3     4   ar
    24     4    37    1
    25    37    38   am
    26    38    39    2
    27    38    41    1
    28    41    42    1
    29    42    43    1
    30    43    44    1
    31    44    45    1
    32    45    46   am
    33    46    47    2
    34    46    48    1
    35    48    57    1
    36    57    58   am
    37    58    59    2
    38    58    61    1
    39    61    62    1
    40    48    49    1
    41    49    50   ar
    42    50    51   ar
    43    51    52   ar
    44    52    53   ar
    45    53    55    1
    46    55    56    1
    47    53    54   ar
    48     4     5   ar
    49     5     6   ar
    50    10    11   ar
    51    11    12   ar
    52    24    25    1
    53    25    26   ar
    54    26    27   ar
    55    27    28   ar
    56    28    29   ar
    57    29    30   ar
    58    23    19    1
    59    12     7   ar
    60    30    25   ar
    61     6     1   ar
    62    45    41    1
    63    54    49   ar
    64    33    34    1
    65    15    16    1
    66    37    40    1
    67    57    60    1
@<TRIPOS>MOLECULE
*****
 62 67 0 0 0
SMALL
GASTEIGER

@<TRIPOS>ATOM
      1 C          62.8495   85.1014   13.1293 C.ar    1  UNL1        0.0001
      2 C          62.6011   85.1185   11.7442 C.ar    1  UNL1        0.0013
      3 C          62.4930   83.9221   11.0291 C.ar    1  UNL1        0.0147
      4 C          62.6552   82.6931   11.6826 C.ar    1  UNL1        0.0503
      5 C          62.8362   82.6681   13.0697 C.ar    1  UNL1        0.0147
      6 C          62.9464   83.8609   13.7869 C.ar    1  UNL1        0.0013
      7 C          63.8356   88.7034   15.2683 C.ar    1  UNL1        0.0503
      8 C          63.6528   88.7277   13.8729 C.ar    1  UNL1        0.0147
      9 C          63.2712   87.5721   13.1880 C.ar    1  UNL1        0.0013
     10 C          63.0792   86.3633   13.8778 C.ar    1  UNL1        0.0001
     11 C          63.1978   86.3564   15.2784 C.ar    1  UNL1        0.0013
     12 C          63.5659   87.5162   15.9650 C.ar    1  UNL1        0.0147
     13 C          64.5354   91.1173   15.3759 C.2     1  UNL1        0.2442
     14 O          63.5190   91.7994   15.0731 O.2     1  UNL1       -0.2730
     15 N          64.3744   89.8313   15.9835 N.am    1  UNL1       -0.2826
     16 H          64.9571   89.6411   16.8299 H       1  UNL1        0.1549
     17 C          65.5286   91.7082   12.4984 C.2     1  UNL1        0.2482
     18 O          65.6489   90.4591   12.3701 O.2     1  UNL1       -0.2727
     19 N          65.8781   92.3275   13.7509 N.am    1  UNL1       -0.2714
     20 C          66.4397   93.6636   13.8529 C.3     1  UNL1        0.0939
     21 C          67.0938   93.7317   15.2264 C.3     1  UNL1        0.0237
     22 C          66.4919   92.5877   16.0398 C.3     1  UNL1        0.0310
     23 C          65.9174   91.6027   15.0137 C.3     1  UNL1        0.1521
     24 C          65.0213   92.5271   11.3353 C.3     1  UNL1        0.1743
     25 C          66.1751   93.0870   10.5326 C.ar    1  UNL1        0.0044
     26 C          67.3423   92.3246   10.3484 C.ar    1  UNL1       -0.0022
     27 C          68.4223   92.8472    9.6304 C.ar    1  UNL1       -0.0003
     28 C          68.3463   94.1308    9.0846 C.ar    1  UNL1       -0.0000
     29 C          67.1870   94.8918    9.2487 C.ar    1  UNL1       -0.0003
     30 C          66.1038   94.3740    9.9643 C.ar    1  UNL1       -0.0022
     31 C          62.9403   91.1180   10.9442 C.2     1  UNL1        0.4023
     32 O          62.6085   91.2136   12.1579 O.2     1  UNL1       -0.2264
     33 N          64.1565   91.7117   10.4756 N.am    1  UNL1       -0.2606
     34 H          64.3334   91.6890    9.4458 H       1  UNL1        0.1535
     35 C          61.4386   89.2388   10.3678 C.3     1  UNL1        0.2573
     36 O          62.1183   90.4435   10.0377 O.3     1  UNL1       -0.4306
     37 N          62.6041   81.4599   10.9570 N.am    1  UNL1       -0.2826
     38 C          61.5696   80.4711   11.1072 C.2     1  UNL1        0.2442
     39 O          61.5659   79.4876   10.3174 O.2     1  UNL1       -0.2730
     40 H          63.2282   81.3740   10.1231 H       1  UNL1        0.1549
     41 C          60.4347   80.6121   12.1068 C.3     1  UNL1        0.1521
     42 C          59.6757   79.2953   12.2961 C.3     1  UNL1        0.0310
     43 C          58.4599   79.3910   11.3796 C.3     1  UNL1        0.0237
     44 C          58.2112   80.8813   11.1860 C.3     1  UNL1        0.0939
     45 N          59.4390   81.5469   11.5970 N.am    1  UNL1       -0.2714
     46 C          59.5400   82.9737   11.7683 C.2     1  UNL1        0.2482
     47 O          60.3255   83.4374   12.6382 O.2     1  UNL1       -0.2727
     48 C          58.6614   83.9216   10.9814 C.3     1  UNL1        0.1744
     49 C          58.3061   85.1228   11.8294 C.ar    1  UNL1        0.0074
     50 C          56.9735   85.3610   12.2016 C.ar    1  UNL1       -0.0020
     51 C          56.6445   86.4746   12.9755 C.ar    1  UNL1        0.0029
     52 C          57.6417   87.3579   13.3919 C.ar    1  UNL1        0.0369
     53 C          58.9774   87.1386   13.0372 C.ar    1  UNL1        0.1385
     54 C          59.3066   86.0140   12.2551 C.ar    1  UNL1        0.0347
     55 O          59.9420   88.0569   13.4774 O.3     1  UNL1       -0.4714
     56 C          60.0329   88.5511   14.8097 C.3     1  UNL1        0.2525
     57 N          59.3193   84.3574    9.7419 N.am    1  UNL1       -0.2606
     58 C          58.6039   85.0207    8.6935 C.2     1  UNL1        0.4023
     59 O          57.3582   85.2004    8.7865 O.2     1  UNL1       -0.2264
     60 H          60.3518   84.2502    9.6208 H       1  UNL1        0.1535
     61 O          59.3021   85.4705    7.5696 O.3     1  UNL1       -0.4306
     62 C          60.5662   86.1160    7.6606 C.3     1  UNL1        0.2573
@<TRIPOS>BOND
     1    35    36    1
     2    36    31    1
     3    31    32    2
     4    31    33   am
     5    33    24    1
     6    24    17    1
     7    17    18    2
     8    17    19   am
     9    19    20    1
    10    20    21    1
    11    21    22    1
    12    22    23    1
    13    23    13    1
    14    13    14    2
    15    13    15   am
    16    15     7    1
    17     7     8   ar
    18     8     9   ar
    19     9    10   ar
    20    10     1    1
    21     1     2   ar
    22     2     3   ar
    23     3     4   ar
    24     4    37    1
    25    37    38   am
    26    38    39    2
    27    38    41    1
    28    41    42    1
    29    42    43    1
    30    43    44    1
    31    44    45    1
    32    45    46   am
    33    46    47    2
    34    46    48    1
    35    48    57    1
    36    57    58   am
    37    58    59    2
    38    58    61    1
    39    61    62    1
    40    48    49    1
    41    49    50   ar
    42    50    51   ar
    43    51    52   ar
    44    52    53   ar
    45    53    55    1
    46    55    56    1
    47    53    54   ar
    48     4     5   ar
    49     5     6   ar
    50    10    11   ar
    51    11    12   ar
    52    24    25    1
    53    25    26   ar
    54    26    27   ar
    55    27    28   ar
    56    28    29   ar
    57    29    30   ar
    58    23    19    1
    59    12     7   ar
    60    30    25   ar
    61     6     1   ar
    62    45    41    1
    63    54    49   ar
    64    33    34    1
    65    15    16    1
    66    37    40    1
    67    57    60    1
@<TRIPOS>MOLECULE
*****
 62 67 0 0 0
SMALL
GASTEIGER

@<TRIPOS>ATOM
      1 C          63.7423   87.2354   15.4969 C.ar    1  UNL1        0.0001
      2 C          64.8737   87.6943   14.7971 C.ar    1  UNL1        0.0013
      3 C          65.1313   89.0641   14.6875 C.ar    1  UNL1        0.0147
      4 C          64.2502   89.9947   15.2545 C.ar    1  UNL1        0.0503
      5 C          63.1608   89.5432   16.0073 C.ar    1  UNL1        0.0147
      6 C          62.8993   88.1761   16.1174 C.ar    1  UNL1        0.0013
      7 C          62.6381   83.0822   15.2650 C.ar    1  UNL1        0.0503
      8 C          63.9414   83.4953   14.9305 C.ar    1  UNL1        0.0147
      9 C          64.3173   84.8334   15.0662 C.ar    1  UNL1        0.0013
     10 C          63.3968   85.7913   15.5233 C.ar    1  UNL1        0.0001
     11 C          62.1168   85.3660   15.9190 C.ar    1  UNL1        0.0013
     12 C          61.7454   84.0246   15.7964 C.ar    1  UNL1        0.0147
     13 C          61.6672   81.3571   13.7127 C.2     1  UNL1        0.2442
     14 O          62.4507   81.2792   12.7277 O.2     1  UNL1       -0.2730
     15 N          62.1717   81.7468   14.9943 N.am    1  UNL1       -0.2826
     16 H          61.8849   81.1546   15.8062 H       1  UNL1        0.1549
     17 C          59.7708   83.2006   12.0939 C.2     1  UNL1        0.2482
     18 O          59.7995   83.9712   13.0922 O.2     1  UNL1       -0.2727
     19 N          59.7332   81.7758   12.3013 N.am    1  UNL1       -0.2714
     20 C          59.0419   80.8566   11.4134 C.3     1  UNL1        0.0939
     21 C          58.8343   79.5821   12.2205 C.3     1  UNL1        0.0237
     22 C          59.8143   79.6562   13.3896 C.3     1  UNL1        0.0310
     23 C          60.1856   81.1380   13.5301 C.3     1  UNL1        0.1521
     24 C          59.7757   83.7890   10.7031 C.3     1  UNL1        0.1743
     25 C          61.1924   83.9566   10.1990 C.ar    1  UNL1        0.0044
     26 C          61.4553   83.9486    8.8175 C.ar    1  UNL1       -0.0022
     27 C          62.7656   84.0761    8.3464 C.ar    1  UNL1       -0.0003
     28 C          63.8239   84.2189    9.2469 C.ar    1  UNL1       -0.0000
     29 C          63.5736   84.2425   10.6205 C.ar    1  UNL1       -0.0003
     30 C          62.2657   84.1170   11.0971 C.ar    1  UNL1       -0.0022
     31 C          57.9040   83.4269    9.0195 C.2     1  UNL1        0.4023
     32 O          57.4939   84.6104    9.1727 O.2     1  UNL1       -0.2264
     33 N          59.0106   82.9375    9.7859 N.am    1  UNL1       -0.2606
     34 H          59.3720   81.9859    9.5491 H       1  UNL1        0.1535
     35 C          58.0016   81.5617    7.3977 C.3     1  UNL1        0.2573
     36 O          57.2926   82.5817    8.0899 O.3     1  UNL1       -0.4306
     37 N          64.4673   91.4018   15.1042 N.am    1  UNL1       -0.2826
     38 C          64.8357   92.0398   13.8682 C.2     1  UNL1        0.2442
     39 O          64.8697   93.3003   13.8350 O.2     1  UNL1       -0.2730
     40 H          64.1294   92.0191   15.8770 H       1  UNL1        0.1549
     41 C          65.0887   91.2661   12.5859 C.3     1  UNL1        0.1521
     42 C          66.1159   91.9666   11.6914 C.3     1  UNL1        0.0310
     43 C          65.2983   92.7618   10.6782 C.3     1  UNL1        0.0237
     44 C          63.9485   92.0598   10.6024 C.3     1  UNL1        0.0939
     45 N          63.8698   91.2182   11.7877 N.am    1  UNL1       -0.2714
     46 C          62.8418   90.2277   11.9813 C.2     1  UNL1        0.2482
     47 O          63.1071   89.1809   12.6314 O.2     1  UNL1       -0.2727
     48 C          61.4754   90.3826   11.3500 C.3     1  UNL1        0.1744
     49 C          61.3065   89.3811   10.2290 C.ar    1  UNL1        0.0074
     50 C          62.1717   88.2805   10.1227 C.ar    1  UNL1       -0.0020
     51 C          62.0220   87.3622    9.0827 C.ar    1  UNL1        0.0029
     52 C          61.0040   87.5281    8.1426 C.ar    1  UNL1        0.0369
     53 C          60.1267   88.6146    8.2307 C.ar    1  UNL1        0.1385
     54 C          60.2807   89.5407    9.2811 C.ar    1  UNL1        0.0347
     55 O          59.1221   88.7391    7.2595 O.3     1  UNL1       -0.4714
     56 C          59.0717   89.7740    6.2829 C.3     1  UNL1        0.2525
     57 N          60.4047   90.2131   12.3419 N.am    1  UNL1       -0.2606
     58 C          59.9270   88.9207   12.7324 C.2     1  UNL1        0.4023
     59 O          60.3834   87.8798   12.1837 O.2     1  UNL1       -0.2264
     60 H          60.0048   91.0399   12.8405 H       1  UNL1        0.1535
     61 O          58.9540   88.8260   13.7310 O.3     1  UNL1       -0.4306
     62 C          57.8912   87.8822   13.6781 C.3     1  UNL1        0.2573
@<TRIPOS>BOND
     1    35    36    1
     2    36    31    1
     3    31    32    2
     4    31    33   am
     5    33    24    1
     6    24    17    1
     7    17    18    2
     8    17    19   am
     9    19    20    1
    10    20    21    1
    11    21    22    1
    12    22    23    1
    13    23    13    1
    14    13    14    2
    15    13    15   am
    16    15     7    1
    17     7     8   ar
    18     8     9   ar
    19     9    10   ar
    20    10     1    1
    21     1     2   ar
    22     2     3   ar
    23     3     4   ar
    24     4    37    1
    25    37    38   am
    26    38    39    2
    27    38    41    1
    28    41    42    1
    29    42    43    1
    30    43    44    1
    31    44    45    1
    32    45    46   am
    33    46    47    2
    34    46    48    1
    35    48    57    1
    36    57    58   am
    37    58    59    2
    38    58    61    1
    39    61    62    1
    40    48    49    1
    41    49    50   ar
    42    50    51   ar
    43    51    52   ar
    44    52    53   ar
    45    53    55    1
    46    55    56    1
    47    53    54   ar
    48     4     5   ar
    49     5     6   ar
    50    10    11   ar
    51    11    12   ar
    52    24    25    1
    53    25    26   ar
    54    26    27   ar
    55    27    28   ar
    56    28    29   ar
    57    29    30   ar
    58    23    19    1
    59    12     7   ar
    60    30    25   ar
    61     6     1   ar
    62    45    41    1
    63    54    49   ar
    64    33    34    1
    65    15    16    1
    66    37    40    1
    67    57    60    1
