@<TRIPOS>MOLECULE
*****
 50 55 0 0 0
SMALL
GASTEIGER

@<TRIPOS>ATOM
      1 O          14.0635   83.6771   25.8021 O.2     1  UNL1       -0.2701
      2 C          13.4800   83.0906   24.8507 C.2     1  UNL1        0.2483
      3 N          13.6120   83.5872   23.5066 N.am    1  UNL1       -0.2945
      4 H          12.9509   83.2343   22.7785 H       1  UNL1        0.1501
      5 C          12.6317   81.9133   25.1423 C.ar    1  UNL1        0.0808
      6 C          11.2868   82.0991   25.5003 C.ar    1  UNL1        0.0080
      7 C          10.4661   81.0028   25.7758 C.ar    1  UNL1        0.0148
      8 C          10.9742   79.6938   25.7088 C.ar    1  UNL1        0.0502
      9 C          12.3267   79.5099   25.3723 C.ar    1  UNL1        0.0443
     10 C          13.1502   80.6054   25.0938 C.ar    1  UNL1        0.1457
     11 F          14.4617   80.3830   24.8245 F       1  UNL1       -0.2040
     12 N          10.1279   78.5587   25.9985 N.pl3   1  UNL1       -0.3040
     13 C           8.7514   78.5270   25.4800 C.3     1  UNL1        0.1123
     14 C           8.1768   77.1071   25.4879 C.3     1  UNL1        0.1136
     15 N           8.3553   76.4858   26.8080 N.pl3   1  UNL1       -0.2897
     16 C           9.5993   76.7184   27.5611 C.3     1  UNL1        0.1136
     17 C          10.6744   77.3865   26.6968 C.3     1  UNL1        0.1123
     18 C           7.3710   75.5448   27.2937 C.ar    1  UNL1        0.1318
     19 C           6.8591   74.5282   26.4683 C.ar    1  UNL1        0.0343
     20 C           5.9093   73.6394   26.9744 C.ar    1  UNL1        0.0083
     21 C           5.4813   73.7438   28.3058 C.ar    1  UNL1        0.0906
     22 C           5.9985   74.7844   29.0916 C.ar    1  UNL1        0.1041
     23 N           6.9205   75.6396   28.5765 N.ar    1  UNL1       -0.2292
     24 C           4.4197   72.8215   28.8489 C.3     1  UNL1        0.4200
     25 F           4.6743   71.5123   28.4786 F       1  UNL1       -0.1658
     26 F           4.4065   72.9052   30.2286 F       1  UNL1       -0.1658
     27 F           3.1722   73.1740   28.3635 F       1  UNL1       -0.1658
     28 C          14.5831   84.6051   23.0906 C.3     1  UNL1        0.1535
     29 C          14.9807   84.3999   21.6489 C.2     1  UNL1        0.2443
     30 O          15.6796   83.4029   21.3181 O.2     1  UNL1       -0.2730
     31 N          14.6181   85.3821   20.6676 N.am    1  UNL1       -0.2821
     32 H          14.3041   86.3192   21.0061 H       1  UNL1        0.1549
     33 C          14.6963   85.1495   19.2510 C.ar    1  UNL1        0.0597
     34 C          15.1554   83.9183   18.7536 C.ar    1  UNL1        0.0358
     35 C          15.1950   83.7006   17.3754 C.ar    1  UNL1        0.1002
     36 N          14.7825   84.6715   16.5197 N.ar    1  UNL1       -0.2417
     37 C          14.3218   85.8685   16.9687 C.ar    1  UNL1        0.1068
     38 C          14.2622   86.1320   18.3412 C.ar    1  UNL1        0.0671
     39 BR         13.6307   87.8444   18.9255 Br      1  UNL1       -0.0461
     40 C          14.0559   86.0250   23.3818 C.3     1  UNL1        0.0569
     41 C          15.1340   86.9029   23.9514 C.ar    1  UNL1       -0.0017
     42 C          16.2888   87.3287   23.3011 C.ar    1  UNL1        0.0681
     43 N          17.0729   88.0363   24.1460 N.ar    1  UNL1       -0.3523
     44 C          16.4286   88.0519   25.3258 C.ar    1  UNL1        0.0563
     45 C          16.8546   88.6445   26.5137 C.ar    1  UNL1        0.0170
     46 C          16.0265   88.5202   27.6444 C.ar    1  UNL1        0.0015
     47 C          14.8069   87.8116   27.5641 C.ar    1  UNL1        0.0001
     48 C          14.4034   87.2219   26.3523 C.ar    1  UNL1        0.0012
     49 C          15.2432   87.3666   25.2477 C.ar    1  UNL1        0.0131
     50 H          17.9982   88.4677   23.9265 H       1  UNL1        0.1660
@<TRIPOS>BOND
     1     1     2    2
     2     2     3   am
     3     3    28    1
     4    28    40    1
     5    40    41    1
     6    41    42   ar
     7    42    43   ar
     8    43    44   ar
     9    44    45   ar
    10    45    46   ar
    11    46    47   ar
    12    47    48   ar
    13    48    49   ar
    14    28    29    1
    15    29    30    2
    16    29    31   am
    17    31    33    1
    18    33    34   ar
    19    34    35   ar
    20    35    36   ar
    21    36    37   ar
    22    37    38   ar
    23    38    39    1
    24     2     5    1
    25     5     6   ar
    26     6     7   ar
    27     7     8   ar
    28     8    12    1
    29    12    13    1
    30    13    14    1
    31    14    15    1
    32    15    18    1
    33    18    19   ar
    34    19    20   ar
    35    20    21   ar
    36    21    24    1
    37    24    25    1
    38    24    26    1
    39    24    27    1
    40    21    22   ar
    41    22    23   ar
    42    15    16    1
    43    16    17    1
    44     8     9   ar
    45     9    10   ar
    46    10    11    1
    47    49    41   ar
    48    38    33   ar
    49    10     5   ar
    50    49    44   ar
    51    17    12    1
    52    23    18   ar
    53     3     4    1
    54    43    50    1
    55    31    32    1
@<TRIPOS>MOLECULE
*****
 50 55 0 0 0
SMALL
GASTEIGER

@<TRIPOS>ATOM
      1 O          14.4614   81.8940   24.3639 O.2     1  UNL1       -0.2701
      2 C          13.3066   82.2519   24.7218 C.2     1  UNL1        0.2483
      3 N          12.9925   83.6499   24.8542 N.am    1  UNL1       -0.2945
      4 H          12.1199   83.9179   25.3628 H       1  UNL1        0.1501
      5 C          12.2974   81.2165   25.0383 C.ar    1  UNL1        0.0808
      6 C          11.0145   81.6037   25.4576 C.ar    1  UNL1        0.0080
      7 C          10.0445   80.6443   25.7576 C.ar    1  UNL1        0.0148
      8 C          10.3380   79.2734   25.6543 C.ar    1  UNL1        0.0502
      9 C          11.6295   78.8865   25.2562 C.ar    1  UNL1        0.0443
     10 C          12.6020   79.8448   24.9530 C.ar    1  UNL1        0.1457
     11 F          13.8499   79.4251   24.6234 F       1  UNL1       -0.2040
     12 N           9.3372   78.2795   25.9693 N.pl3   1  UNL1       -0.3040
     13 C           8.0626   78.6972   26.5738 C.3     1  UNL1        0.1123
     14 C           6.9834   77.6214   26.4182 C.3     1  UNL1        0.1136
     15 N           7.4860   76.3171   26.8730 N.pl3   1  UNL1       -0.2897
     16 C           8.8769   75.9300   26.5822 C.3     1  UNL1        0.1136
     17 C           9.5352   76.8779   25.5736 C.3     1  UNL1        0.1123
     18 C           6.5748   75.3722   27.4789 C.ar    1  UNL1        0.1318
     19 C           5.6497   75.7716   28.4594 C.ar    1  UNL1        0.0343
     20 C           4.7871   74.8288   29.0208 C.ar    1  UNL1        0.0083
     21 C           4.8257   73.4930   28.5958 C.ar    1  UNL1        0.0906
     22 C           5.7771   73.1284   27.6316 C.ar    1  UNL1        0.1041
     23 N           6.6086   74.0632   27.1009 N.ar    1  UNL1       -0.2292
     24 C           3.9339   72.4561   29.2300 C.3     1  UNL1        0.4200
     25 F           4.0844   72.4585   30.6060 F       1  UNL1       -0.1658
     26 F           2.6165   72.7380   28.9203 F       1  UNL1       -0.1658
     27 F           4.2467   71.1915   28.7624 F       1  UNL1       -0.1658
     28 C          13.8451   84.7407   24.3691 C.3     1  UNL1        0.1535
     29 C          13.0844   85.6194   23.4059 C.2     1  UNL1        0.2443
     30 O          11.9608   86.0933   23.7297 O.2     1  UNL1       -0.2730
     31 N          13.6142   85.8560   22.0935 N.am    1  UNL1       -0.2821
     32 H          14.3792   85.2305   21.7546 H       1  UNL1        0.1549
     33 C          13.1238   86.8852   21.2176 C.ar    1  UNL1        0.0597
     34 C          12.7855   88.1519   21.7230 C.ar    1  UNL1        0.0358
     35 C          12.3405   89.1476   20.8520 C.ar    1  UNL1        0.1002
     36 N          12.2441   88.8958   19.5207 N.ar    1  UNL1       -0.2417
     37 C          12.5748   87.6856   18.9985 C.ar    1  UNL1        0.1068
     38 C          13.0273   86.6573   19.8319 C.ar    1  UNL1        0.0671
     39 BR         13.4560   84.9595   19.0531 Br      1  UNL1       -0.0461
     40 C          14.4683   85.5209   25.5446 C.3     1  UNL1        0.0569
     41 C          14.7719   86.9410   25.1591 C.ar    1  UNL1       -0.0017
     42 C          14.1087   88.0820   25.6020 C.ar    1  UNL1        0.0681
     43 N          14.5952   89.1814   24.9823 N.ar    1  UNL1       -0.3523
     44 C          15.5517   88.7435   24.1453 C.ar    1  UNL1        0.0563
     45 C          16.3273   89.5076   23.2744 C.ar    1  UNL1        0.0170
     46 C          17.2631   88.8362   22.4662 C.ar    1  UNL1        0.0015
     47 C          17.3986   87.4321   22.5432 C.ar    1  UNL1        0.0001
     48 C          16.6007   86.6864   23.4299 C.ar    1  UNL1        0.0012
     49 C          15.6856   87.3807   24.2216 C.ar    1  UNL1        0.0131
     50 H          14.2780   90.1670   25.1179 H       1  UNL1        0.1660
@<TRIPOS>BOND
     1     1     2    2
     2     2     3   am
     3     3    28    1
     4    28    40    1
     5    40    41    1
     6    41    42   ar
     7    42    43   ar
     8    43    44   ar
     9    44    45   ar
    10    45    46   ar
    11    46    47   ar
    12    47    48   ar
    13    48    49   ar
    14    28    29    1
    15    29    30    2
    16    29    31   am
    17    31    33    1
    18    33    34   ar
    19    34    35   ar
    20    35    36   ar
    21    36    37   ar
    22    37    38   ar
    23    38    39    1
    24     2     5    1
    25     5     6   ar
    26     6     7   ar
    27     7     8   ar
    28     8    12    1
    29    12    13    1
    30    13    14    1
    31    14    15    1
    32    15    18    1
    33    18    19   ar
    34    19    20   ar
    35    20    21   ar
    36    21    24    1
    37    24    25    1
    38    24    26    1
    39    24    27    1
    40    21    22   ar
    41    22    23   ar
    42    15    16    1
    43    16    17    1
    44     8     9   ar
    45     9    10   ar
    46    10    11    1
    47    49    41   ar
    48    38    33   ar
    49    10     5   ar
    50    49    44   ar
    51    17    12    1
    52    23    18   ar
    53     3     4    1
    54    43    50    1
    55    31    32    1
@<TRIPOS>MOLECULE
*****
 50 55 0 0 0
SMALL
GASTEIGER

@<TRIPOS>ATOM
      1 O          14.4845   82.5885   24.3290 O.2     1  UNL1       -0.2701
      2 C          13.2412   82.7415   24.4729 C.2     1  UNL1        0.2483
      3 N          12.6432   84.0329   24.2604 N.am    1  UNL1       -0.2945
      4 H          11.6680   84.1917   24.6005 H       1  UNL1        0.1501
      5 C          12.4180   81.5872   24.8981 C.ar    1  UNL1        0.0808
      6 C          11.0951   81.7967   25.3194 C.ar    1  UNL1        0.0080
      7 C          10.2980   80.7222   25.7211 C.ar    1  UNL1        0.0148
      8 C          10.8088   79.4125   25.7199 C.ar    1  UNL1        0.0502
      9 C          12.1406   79.2066   25.3194 C.ar    1  UNL1        0.0443
     10 C          12.9402   80.2801   24.9146 C.ar    1  UNL1        0.1457
     11 F          14.2351   80.0405   24.5862 F       1  UNL1       -0.2040
     12 N           9.9872   78.3003   26.1401 N.pl3   1  UNL1       -0.3040
     13 C           8.8068   77.9271   25.3450 C.3     1  UNL1        0.1123
     14 C           8.3399   76.5028   25.6603 C.3     1  UNL1        0.1136
     15 N           8.1927   76.3175   27.1111 N.pl3   1  UNL1       -0.2897
     16 C           9.1701   76.9294   28.0271 C.3     1  UNL1        0.1136
     17 C          10.3956   77.4668   27.2798 C.3     1  UNL1        0.1123
     18 C           7.1736   75.4258   27.6176 C.ar    1  UNL1        0.1318
     19 C           6.6802   74.3613   26.8429 C.ar    1  UNL1        0.0343
     20 C           5.6956   73.5227   27.3677 C.ar    1  UNL1        0.0083
     21 C           5.2139   73.7251   28.6691 C.ar    1  UNL1        0.0906
     22 C           5.7147   74.8107   29.4029 C.ar    1  UNL1        0.1041
     23 N           6.6714   75.6156   28.8702 N.ar    1  UNL1       -0.2292
     24 C           4.1154   72.8571   29.2283 C.3     1  UNL1        0.4200
     25 F           2.8808   73.2669   28.7553 F       1  UNL1       -0.1658
     26 F           4.3320   71.5464   28.8462 F       1  UNL1       -0.1658
     27 F           4.0944   72.9266   30.6105 F       1  UNL1       -0.1658
     28 C          13.3295   85.1728   23.6426 C.3     1  UNL1        0.1535
     29 C          13.4709   86.3050   24.6310 C.2     1  UNL1        0.2443
     30 O          12.7198   87.3157   24.5512 O.2     1  UNL1       -0.2730
     31 N          14.5103   86.2569   25.6191 N.am    1  UNL1       -0.2821
     32 H          15.2844   85.5689   25.4818 H       1  UNL1        0.1549
     33 C          14.5529   87.1259   26.7636 C.ar    1  UNL1        0.0597
     34 C          14.6972   88.5141   26.6015 C.ar    1  UNL1        0.0358
     35 C          14.7054   89.3443   27.7235 C.ar    1  UNL1        0.1002
     36 N          14.5649   88.8130   28.9657 N.ar    1  UNL1       -0.2417
     37 C          14.4114   87.4763   29.1560 C.ar    1  UNL1        0.1068
     38 C          14.3954   86.6050   28.0618 C.ar    1  UNL1        0.0671
     39 BR         14.2034   84.7252   28.3818 Br      1  UNL1       -0.0461
     40 C          14.6706   84.7386   23.0167 C.3     1  UNL1        0.0569
     41 C          15.2278   85.8079   22.1202 C.ar    1  UNL1       -0.0017
     42 C          14.9412   85.9933   20.7707 C.ar    1  UNL1        0.0681
     43 N          15.6878   87.0005   20.2634 N.ar    1  UNL1       -0.3523
     44 C          16.4500   87.4452   21.2777 C.ar    1  UNL1        0.0563
     45 C          17.3997   88.4653   21.2370 C.ar    1  UNL1        0.0170
     46 C          18.1042   88.7552   22.4199 C.ar    1  UNL1        0.0015
     47 C          17.8491   88.0253   23.6023 C.ar    1  UNL1        0.0001
     48 C          16.8863   86.9996   23.6132 C.ar    1  UNL1        0.0012
     49 C          16.2008   86.7389   22.4264 C.ar    1  UNL1        0.0131
     50 H          15.6818   87.3484   19.2788 H       1  UNL1        0.1660
@<TRIPOS>BOND
     1     1     2    2
     2     2     3   am
     3     3    28    1
     4    28    40    1
     5    40    41    1
     6    41    42   ar
     7    42    43   ar
     8    43    44   ar
     9    44    45   ar
    10    45    46   ar
    11    46    47   ar
    12    47    48   ar
    13    48    49   ar
    14    28    29    1
    15    29    30    2
    16    29    31   am
    17    31    33    1
    18    33    34   ar
    19    34    35   ar
    20    35    36   ar
    21    36    37   ar
    22    37    38   ar
    23    38    39    1
    24     2     5    1
    25     5     6   ar
    26     6     7   ar
    27     7     8   ar
    28     8    12    1
    29    12    13    1
    30    13    14    1
    31    14    15    1
    32    15    18    1
    33    18    19   ar
    34    19    20   ar
    35    20    21   ar
    36    21    24    1
    37    24    25    1
    38    24    26    1
    39    24    27    1
    40    21    22   ar
    41    22    23   ar
    42    15    16    1
    43    16    17    1
    44     8     9   ar
    45     9    10   ar
    46    10    11    1
    47    49    41   ar
    48    38    33   ar
    49    10     5   ar
    50    49    44   ar
    51    17    12    1
    52    23    18   ar
    53     3     4    1
    54    43    50    1
    55    31    32    1
@<TRIPOS>MOLECULE
*****
 50 55 0 0 0
SMALL
GASTEIGER

@<TRIPOS>ATOM
      1 O          14.4587   82.6932   24.0878 O.2     1  UNL1       -0.2701
      2 C          13.2704   82.9114   24.4482 C.2     1  UNL1        0.2483
      3 N          12.7791   84.2609   24.5375 N.am    1  UNL1       -0.2945
      4 H          11.8835   84.4317   25.0480 H       1  UNL1        0.1501
      5 C          12.4063   81.7661   24.8122 C.ar    1  UNL1        0.0808
      6 C          11.0527   81.9867   25.1131 C.ar    1  UNL1        0.0080
      7 C          10.2172   80.9207   25.4551 C.ar    1  UNL1        0.0148
      8 C          10.7186   79.6087   25.5133 C.ar    1  UNL1        0.0502
      9 C          12.0792   79.3918   25.2338 C.ar    1  UNL1        0.0443
     10 C          12.9175   80.4567   24.8890 C.ar    1  UNL1        0.1457
     11 F          14.2349   80.2072   24.6785 F       1  UNL1       -0.2040
     12 N           9.8568   78.5054   25.8719 N.pl3   1  UNL1       -0.3040
     13 C           8.4309   78.5496   25.5117 C.3     1  UNL1        0.1123
     14 C           7.7937   77.1574   25.5534 C.3     1  UNL1        0.1136
     15 N           8.0890   76.4931   26.8310 N.pl3   1  UNL1       -0.2897
     16 C           9.4192   76.6490   27.4435 C.3     1  UNL1        0.1136
     17 C          10.4214   77.2913   26.4780 C.3     1  UNL1        0.1123
     18 C           7.1214   75.5844   27.4040 C.ar    1  UNL1        0.1318
     19 C           6.9133   74.3016   26.8676 C.ar    1  UNL1        0.0343
     20 C           5.9692   73.4539   27.4493 C.ar    1  UNL1        0.0083
     21 C           5.2455   73.8685   28.5766 C.ar    1  UNL1        0.0906
     22 C           5.4652   75.1633   29.0695 C.ar    1  UNL1        0.1041
     23 N           6.3878   75.9722   28.4851 N.ar    1  UNL1       -0.2292
     24 C           4.1882   72.9814   29.1831 C.3     1  UNL1        0.4200
     25 F           2.9248   73.3909   28.7931 F       1  UNL1       -0.1658
     26 F           4.3899   71.6801   28.7626 F       1  UNL1       -0.1658
     27 F           4.2497   73.0236   30.5652 F       1  UNL1       -0.1658
     28 C          13.4794   85.4350   24.0052 C.3     1  UNL1        0.1535
     29 C          14.2338   86.1447   25.1033 C.2     1  UNL1        0.2443
     30 O          14.3548   85.6098   26.2396 O.2     1  UNL1       -0.2730
     31 N          14.7529   87.4618   24.8689 N.am    1  UNL1       -0.2821
     32 H          14.3943   87.9889   24.0413 H       1  UNL1        0.1549
     33 C          15.7124   88.0975   25.7306 C.ar    1  UNL1        0.0597
     34 C          15.3288   88.5807   26.9930 C.ar    1  UNL1        0.0358
     35 C          16.2815   89.1672   27.8276 C.ar    1  UNL1        0.1002
     36 N          17.5752   89.2615   27.4247 N.ar    1  UNL1       -0.2417
     37 C          17.9810   88.7933   26.2153 C.ar    1  UNL1        0.1068
     38 C          17.0626   88.1963   25.3454 C.ar    1  UNL1        0.0671
     39 BR         17.6766   87.5755   23.6394 Br      1  UNL1       -0.0461
     40 C          14.3676   85.0523   22.8038 C.3     1  UNL1        0.0569
     41 C          14.0674   85.9088   21.6065 C.ar    1  UNL1       -0.0017
     42 C          13.4259   87.1443   21.6085 C.ar    1  UNL1        0.0681
     43 N          13.2506   87.5874   20.3427 N.ar    1  UNL1       -0.3523
     44 C          13.7662   86.6384   19.5420 C.ar    1  UNL1        0.0563
     45 C          13.8005   86.6357   18.1482 C.ar    1  UNL1        0.0170
     46 C          14.3733   85.5220   17.5068 C.ar    1  UNL1        0.0015
     47 C          14.8898   84.4470   18.2641 C.ar    1  UNL1        0.0001
     48 C          14.8395   84.4762   19.6697 C.ar    1  UNL1        0.0012
     49 C          14.2703   85.5958   20.2768 C.ar    1  UNL1        0.0131
     50 H          12.7927   88.4792   20.0505 H       1  UNL1        0.1660
@<TRIPOS>BOND
     1     1     2    2
     2     2     3   am
     3     3    28    1
     4    28    40    1
     5    40    41    1
     6    41    42   ar
     7    42    43   ar
     8    43    44   ar
     9    44    45   ar
    10    45    46   ar
    11    46    47   ar
    12    47    48   ar
    13    48    49   ar
    14    28    29    1
    15    29    30    2
    16    29    31   am
    17    31    33    1
    18    33    34   ar
    19    34    35   ar
    20    35    36   ar
    21    36    37   ar
    22    37    38   ar
    23    38    39    1
    24     2     5    1
    25     5     6   ar
    26     6     7   ar
    27     7     8   ar
    28     8    12    1
    29    12    13    1
    30    13    14    1
    31    14    15    1
    32    15    18    1
    33    18    19   ar
    34    19    20   ar
    35    20    21   ar
    36    21    24    1
    37    24    25    1
    38    24    26    1
    39    24    27    1
    40    21    22   ar
    41    22    23   ar
    42    15    16    1
    43    16    17    1
    44     8     9   ar
    45     9    10   ar
    46    10    11    1
    47    49    41   ar
    48    38    33   ar
    49    10     5   ar
    50    49    44   ar
    51    17    12    1
    52    23    18   ar
    53     3     4    1
    54    43    50    1
    55    31    32    1
@<TRIPOS>MOLECULE
*****
 50 55 0 0 0
SMALL
GASTEIGER

@<TRIPOS>ATOM
      1 O           9.4771   74.9482   26.9895 O.2     1  UNL1       -0.2701
      2 C           8.9916   75.8106   26.2083 C.2     1  UNL1        0.2483
      3 N           7.7376   75.5620   25.5478 N.am    1  UNL1       -0.2945
      4 H           7.4686   76.1733   24.7442 H       1  UNL1        0.1501
      5 C           9.7463   77.0582   25.9540 C.ar    1  UNL1        0.0808
      6 C          11.1246   76.9942   25.6942 C.ar    1  UNL1        0.0080
      7 C          11.8567   78.1580   25.4472 C.ar    1  UNL1        0.0148
      8 C          11.2285   79.4155   25.4635 C.ar    1  UNL1        0.0502
      9 C           9.8529   79.4805   25.7461 C.ar    1  UNL1        0.0443
     10 C           9.1170   78.3169   25.9915 C.ar    1  UNL1        0.1457
     11 F           7.8029   78.4321   26.3110 F       1  UNL1       -0.2040
     12 N          11.9853   80.6210   25.2133 N.pl3   1  UNL1       -0.3040
     13 C          11.2779   81.8687   24.8853 C.3     1  UNL1        0.1123
     14 C          12.1681   83.0966   25.0999 C.3     1  UNL1        0.1136
     15 N          13.4606   82.9214   24.4221 N.pl3   1  UNL1       -0.2897
     16 C          14.1132   81.6012   24.4266 C.3     1  UNL1        0.1136
     17 C          13.4420   80.6350   25.4090 C.3     1  UNL1        0.1123
     18 C          14.1435   84.0734   23.8774 C.ar    1  UNL1        0.1318
     19 C          14.1915   85.2940   24.5736 C.ar    1  UNL1        0.0343
     20 C          14.8605   86.3834   24.0135 C.ar    1  UNL1        0.0083
     21 C          15.5010   86.2584   22.7723 C.ar    1  UNL1        0.0906
     22 C          15.4124   85.0315   22.0980 C.ar    1  UNL1        0.1041
     23 N          14.7533   83.9853   22.6617 N.ar    1  UNL1       -0.2292
     24 C          16.1837   87.4416   22.1344 C.3     1  UNL1        0.4200
     25 F          17.3244   87.7854   22.8390 F       1  UNL1       -0.1658
     26 F          16.5355   87.1191   20.8371 F       1  UNL1       -0.1658
     27 F          15.3403   88.5389   22.1137 F       1  UNL1       -0.1658
     28 C           6.8238   74.4663   25.8892 C.3     1  UNL1        0.1535
     29 C           5.9990   74.8229   27.1022 C.2     1  UNL1        0.2443
     30 O           5.3941   73.9225   27.7465 O.2     1  UNL1       -0.2730
     31 N           5.8502   76.1999   27.4775 N.am    1  UNL1       -0.2821
     32 H           6.1100   76.9291   26.7759 H       1  UNL1        0.1549
     33 C           5.3347   76.6199   28.7522 C.ar    1  UNL1        0.0597
     34 C           3.9527   76.6018   29.0048 C.ar    1  UNL1        0.0358
     35 C           3.4738   76.9840   30.2590 C.ar    1  UNL1        0.1002
     36 N           4.3411   77.3625   31.2335 N.ar    1  UNL1       -0.2417
     37 C           5.6838   77.3795   31.0254 C.ar    1  UNL1        0.1068
     38 C           6.2105   77.0033   29.7853 C.ar    1  UNL1        0.0671
     39 BR          8.1088   77.0693   29.5307 Br      1  UNL1       -0.0461
     40 C           5.9713   74.0564   24.6710 C.3     1  UNL1        0.0569
     41 C           5.5162   75.2581   23.8923 C.ar    1  UNL1       -0.0017
     42 C           6.1440   75.8149   22.7815 C.ar    1  UNL1        0.0681
     43 N           5.5019   76.9392   22.3904 N.ar    1  UNL1       -0.3523
     44 C           4.4813   77.1024   23.2501 C.ar    1  UNL1        0.0563
     45 C           3.5460   78.1363   23.2651 C.ar    1  UNL1        0.0170
     46 C           2.5669   78.1225   24.2756 C.ar    1  UNL1        0.0015
     47 C           2.5471   77.0897   25.2392 C.ar    1  UNL1        0.0001
     48 C           3.5052   76.0602   25.2007 C.ar    1  UNL1        0.0012
     49 C           4.4599   76.0984   24.1841 C.ar    1  UNL1        0.0131
     50 H           5.7596   77.5603   21.5915 H       1  UNL1        0.1660
@<TRIPOS>BOND
     1     1     2    2
     2     2     3   am
     3     3    28    1
     4    28    40    1
     5    40    41    1
     6    41    42   ar
     7    42    43   ar
     8    43    44   ar
     9    44    45   ar
    10    45    46   ar
    11    46    47   ar
    12    47    48   ar
    13    48    49   ar
    14    28    29    1
    15    29    30    2
    16    29    31   am
    17    31    33    1
    18    33    34   ar
    19    34    35   ar
    20    35    36   ar
    21    36    37   ar
    22    37    38   ar
    23    38    39    1
    24     2     5    1
    25     5     6   ar
    26     6     7   ar
    27     7     8   ar
    28     8    12    1
    29    12    13    1
    30    13    14    1
    31    14    15    1
    32    15    18    1
    33    18    19   ar
    34    19    20   ar
    35    20    21   ar
    36    21    24    1
    37    24    25    1
    38    24    26    1
    39    24    27    1
    40    21    22   ar
    41    22    23   ar
    42    15    16    1
    43    16    17    1
    44     8     9   ar
    45     9    10   ar
    46    10    11    1
    47    49    41   ar
    48    38    33   ar
    49    10     5   ar
    50    49    44   ar
    51    17    12    1
    52    23    18   ar
    53     3     4    1
    54    43    50    1
    55    31    32    1
@<TRIPOS>MOLECULE
*****
 50 55 0 0 0
SMALL
GASTEIGER

@<TRIPOS>ATOM
      1 O           8.8370   75.0777   26.8799 O.2     1  UNL1       -0.2701
      2 C           8.8403   75.6378   25.7503 C.2     1  UNL1        0.2483
      3 N           8.1329   75.0431   24.6474 N.am    1  UNL1       -0.2945
      4 H           8.3321   75.3913   23.6825 H       1  UNL1        0.1501
      5 C           9.6102   76.8888   25.5689 C.ar    1  UNL1        0.0808
      6 C          10.7886   77.0909   26.3052 C.ar    1  UNL1        0.0080
      7 C          11.5339   78.2618   26.1475 C.ar    1  UNL1        0.0148
      8 C          11.1127   79.2634   25.2556 C.ar    1  UNL1        0.0502
      9 C           9.9208   79.0701   24.5356 C.ar    1  UNL1        0.0443
     10 C           9.1738   77.8979   24.6898 C.ar    1  UNL1        0.1457
     11 F           8.0032   77.7776   24.0134 F       1  UNL1       -0.2040
     12 N          11.8798   80.4777   25.0950 N.pl3   1  UNL1       -0.3040
     13 C          11.1851   81.7464   24.8260 C.3     1  UNL1        0.1123
     14 C          12.0749   82.9546   25.1337 C.3     1  UNL1        0.1136
     15 N          13.3819   82.8133   24.4763 N.pl3   1  UNL1       -0.2897
     16 C          14.0291   81.4918   24.4168 C.3     1  UNL1        0.1136
     17 C          13.3316   80.4723   25.3242 C.3     1  UNL1        0.1123
     18 C          14.0817   83.9921   24.0169 C.ar    1  UNL1        0.1318
     19 C          14.0792   85.1835   24.7635 C.ar    1  UNL1        0.0343
     20 C          14.7665   86.3003   24.2855 C.ar    1  UNL1        0.0083
     21 C          15.4751   86.2314   23.0773 C.ar    1  UNL1        0.0906
     22 C          15.4359   85.0324   22.3501 C.ar    1  UNL1        0.1041
     23 N          14.7578   83.9587   22.8340 N.ar    1  UNL1       -0.2292
     24 C          16.1794   87.4450   22.5263 C.3     1  UNL1        0.4200
     25 F          15.4683   88.5963   22.8175 F       1  UNL1       -0.1658
     26 F          17.4373   87.5372   23.0919 F       1  UNL1       -0.1658
     27 F          16.3086   87.3520   21.1513 F       1  UNL1       -0.1658
     28 C           7.1814   73.9337   24.7743 C.3     1  UNL1        0.1535
     29 C           6.2004   74.2023   25.8898 C.2     1  UNL1        0.2443
     30 O           5.2166   74.9690   25.7000 O.2     1  UNL1       -0.2730
     31 N           6.4316   73.6359   27.1878 N.am    1  UNL1       -0.2821
     32 H           7.3831   73.2570   27.3939 H       1  UNL1        0.1549
     33 C           5.4324   73.5941   28.2207 C.ar    1  UNL1        0.0597
     34 C           4.5921   72.4763   28.3568 C.ar    1  UNL1        0.0358
     35 C           3.6487   72.4414   29.3850 C.ar    1  UNL1        0.1002
     36 N           3.5504   73.4794   30.2555 N.ar    1  UNL1       -0.2417
     37 C           4.3560   74.5695   30.1587 C.ar    1  UNL1        0.1068
     38 C           5.3173   74.6489   29.1457 C.ar    1  UNL1        0.0671
     39 BR          6.4119   76.2179   29.0332 Br      1  UNL1       -0.0461
     40 C           6.5012   73.6304   23.4237 C.3     1  UNL1        0.0569
     41 C           6.9161   74.6162   22.3684 C.ar    1  UNL1       -0.0017
     42 C           8.1131   74.6179   21.6577 C.ar    1  UNL1        0.0681
     43 N           8.1815   75.7011   20.8507 N.ar    1  UNL1       -0.3523
     44 C           7.0437   76.3879   21.0534 C.ar    1  UNL1        0.0563
     45 C           6.6656   77.5912   20.4592 C.ar    1  UNL1        0.0170
     46 C           5.4306   78.1507   20.8353 C.ar    1  UNL1        0.0015
     47 C           4.6124   77.5042   21.7884 C.ar    1  UNL1        0.0001
     48 C           5.0208   76.2917   22.3733 C.ar    1  UNL1        0.0012
     49 C           6.2477   75.7593   21.9765 C.ar    1  UNL1        0.0131
     50 H           8.9679   75.9566   20.2129 H       1  UNL1        0.1660
@<TRIPOS>BOND
     1     1     2    2
     2     2     3   am
     3     3    28    1
     4    28    40    1
     5    40    41    1
     6    41    42   ar
     7    42    43   ar
     8    43    44   ar
     9    44    45   ar
    10    45    46   ar
    11    46    47   ar
    12    47    48   ar
    13    48    49   ar
    14    28    29    1
    15    29    30    2
    16    29    31   am
    17    31    33    1
    18    33    34   ar
    19    34    35   ar
    20    35    36   ar
    21    36    37   ar
    22    37    38   ar
    23    38    39    1
    24     2     5    1
    25     5     6   ar
    26     6     7   ar
    27     7     8   ar
    28     8    12    1
    29    12    13    1
    30    13    14    1
    31    14    15    1
    32    15    18    1
    33    18    19   ar
    34    19    20   ar
    35    20    21   ar
    36    21    24    1
    37    24    25    1
    38    24    26    1
    39    24    27    1
    40    21    22   ar
    41    22    23   ar
    42    15    16    1
    43    16    17    1
    44     8     9   ar
    45     9    10   ar
    46    10    11    1
    47    49    41   ar
    48    38    33   ar
    49    10     5   ar
    50    49    44   ar
    51    17    12    1
    52    23    18   ar
    53     3     4    1
    54    43    50    1
    55    31    32    1
@<TRIPOS>MOLECULE
*****
 50 55 0 0 0
SMALL
GASTEIGER

@<TRIPOS>ATOM
      1 O           9.6491   74.7524   26.4505 O.2     1  UNL1       -0.2701
      2 C           9.0710   75.7231   25.8907 C.2     1  UNL1        0.2483
      3 N           7.7195   75.5830   25.4170 N.am    1  UNL1       -0.2945
      4 H           7.3435   76.3069   24.7640 H       1  UNL1        0.1501
      5 C           9.8136   76.9886   25.6960 C.ar    1  UNL1        0.0808
      6 C          11.1761   76.9484   25.3591 C.ar    1  UNL1        0.0080
      7 C          11.8962   78.1297   25.1662 C.ar    1  UNL1        0.0148
      8 C          11.2722   79.3806   25.3151 C.ar    1  UNL1        0.0502
      9 C           9.9137   79.4200   25.6746 C.ar    1  UNL1        0.0443
     10 C           9.1896   78.2390   25.8661 C.ar    1  UNL1        0.1457
     11 F           7.8946   78.3257   26.2631 F       1  UNL1       -0.2040
     12 N          12.0170   80.6038   25.1210 N.pl3   1  UNL1       -0.3040
     13 C          11.3017   81.8454   24.7872 C.3     1  UNL1        0.1123
     14 C          12.1595   83.0840   25.0636 C.3     1  UNL1        0.1136
     15 N          13.4827   82.9448   24.4386 N.pl3   1  UNL1       -0.2897
     16 C          14.1583   81.6363   24.4455 C.3     1  UNL1        0.1136
     17 C          13.4635   80.6390   25.3792 C.3     1  UNL1        0.1123
     18 C          14.1671   84.1193   23.9461 C.ar    1  UNL1        0.1318
     19 C          14.1991   85.3136   24.6871 C.ar    1  UNL1        0.0343
     20 C          14.8702   86.4260   24.1768 C.ar    1  UNL1        0.0083
     21 C          15.5286   86.3496   22.9410 C.ar    1  UNL1        0.0906
     22 C          15.4557   85.1479   22.2210 C.ar    1  UNL1        0.1041
     23 N          14.7942   84.0786   22.7368 N.ar    1  UNL1       -0.2292
     24 C          16.2140   87.5585   22.3566 C.3     1  UNL1        0.4200
     25 F          17.3874   87.8316   23.0381 F       1  UNL1       -0.1658
     26 F          16.5103   87.3160   21.0284 F       1  UNL1       -0.1658
     27 F          15.3955   88.6716   22.4403 F       1  UNL1       -0.1658
     28 C           6.8389   74.4564   25.7446 C.3     1  UNL1        0.1535
     29 C           6.2944   74.5995   27.1453 C.2     1  UNL1        0.2443
     30 O           6.1115   73.5784   27.8634 O.2     1  UNL1       -0.2730
     31 N           5.9206   75.8971   27.6306 N.am    1  UNL1       -0.2821
     32 H           5.8071   76.6664   26.9330 H       1  UNL1        0.1549
     33 C           5.6661   76.1786   29.0174 C.ar    1  UNL1        0.0597
     34 C           4.3634   76.0915   29.5365 C.ar    1  UNL1        0.0358
     35 C           4.1413   76.3385   30.8922 C.ar    1  UNL1        0.1002
     36 N           5.1815   76.6523   31.7074 N.ar    1  UNL1       -0.2417
     37 C           6.4547   76.7329   31.2393 C.ar    1  UNL1        0.1068
     38 C           6.7265   76.4921   29.8884 C.ar    1  UNL1        0.0671
     39 BR          8.5338   76.6441   29.2695 Br      1  UNL1       -0.0461
     40 C           5.7389   74.2849   24.6772 C.3     1  UNL1        0.0569
     41 C           6.3190   73.8657   23.3561 C.ar    1  UNL1       -0.0017
     42 C           7.5926   73.3494   23.1341 C.ar    1  UNL1        0.0681
     43 N           7.8027   73.1635   21.8110 N.ar    1  UNL1       -0.3523
     44 C           6.6777   73.5672   21.1957 C.ar    1  UNL1        0.0563
     45 C           6.4240   73.5853   19.8249 C.ar    1  UNL1        0.0170
     46 C           5.1762   74.0719   19.3935 C.ar    1  UNL1        0.0015
     47 C           4.2225   74.5273   20.3309 C.ar    1  UNL1        0.0001
     48 C           4.5070   74.4993   21.7084 C.ar    1  UNL1        0.0012
     49 C           5.7504   74.0068   22.1055 C.ar    1  UNL1        0.0131
     50 H           8.6706   72.7956   21.3617 H       1  UNL1        0.1660
@<TRIPOS>BOND
     1     1     2    2
     2     2     3   am
     3     3    28    1
     4    28    40    1
     5    40    41    1
     6    41    42   ar
     7    42    43   ar
     8    43    44   ar
     9    44    45   ar
    10    45    46   ar
    11    46    47   ar
    12    47    48   ar
    13    48    49   ar
    14    28    29    1
    15    29    30    2
    16    29    31   am
    17    31    33    1
    18    33    34   ar
    19    34    35   ar
    20    35    36   ar
    21    36    37   ar
    22    37    38   ar
    23    38    39    1
    24     2     5    1
    25     5     6   ar
    26     6     7   ar
    27     7     8   ar
    28     8    12    1
    29    12    13    1
    30    13    14    1
    31    14    15    1
    32    15    18    1
    33    18    19   ar
    34    19    20   ar
    35    20    21   ar
    36    21    24    1
    37    24    25    1
    38    24    26    1
    39    24    27    1
    40    21    22   ar
    41    22    23   ar
    42    15    16    1
    43    16    17    1
    44     8     9   ar
    45     9    10   ar
    46    10    11    1
    47    49    41   ar
    48    38    33   ar
    49    10     5   ar
    50    49    44   ar
    51    17    12    1
    52    23    18   ar
    53     3     4    1
    54    43    50    1
    55    31    32    1
@<TRIPOS>MOLECULE
*****
 50 55 0 0 0
SMALL
GASTEIGER

@<TRIPOS>ATOM
      1 O          10.8726   74.9709   24.8950 O.2     1  UNL1       -0.2701
      2 C           9.7365   75.2473   25.3667 C.2     1  UNL1        0.2483
      3 N           9.6001   75.6210   26.7496 N.am    1  UNL1       -0.2945
      4 H           8.6446   75.6228   27.1726 H       1  UNL1        0.1501
      5 C           8.5483   75.1449   24.4899 C.ar    1  UNL1        0.0808
      6 C           8.6168   75.6211   23.1708 C.ar    1  UNL1        0.0080
      7 C           7.5096   75.5311   22.3239 C.ar    1  UNL1        0.0148
      8 C           6.3036   74.9708   22.7797 C.ar    1  UNL1        0.0502
      9 C           6.2291   74.5149   24.1075 C.ar    1  UNL1        0.0443
     10 C           7.3366   74.6016   24.9570 C.ar    1  UNL1        0.1457
     11 F           7.2027   74.1969   26.2455 F       1  UNL1       -0.2040
     12 N           5.1555   74.8817   21.9064 N.pl3   1  UNL1       -0.3040
     13 C           4.1004   75.9039   21.9860 C.3     1  UNL1        0.1123
     14 C           3.2276   75.9149   20.7272 C.3     1  UNL1        0.1136
     15 N           2.7533   74.5587   20.4167 N.pl3   1  UNL1       -0.2897
     16 C           3.6544   73.4096   20.6074 C.3     1  UNL1        0.1136
     17 C           5.1001   73.8523   20.8587 C.3     1  UNL1        0.1123
     18 C           1.4586   74.3787   19.7989 C.ar    1  UNL1        0.1318
     19 C           0.8304   73.1213   19.7665 C.ar    1  UNL1        0.0343
     20 C          -0.4197   72.9886   19.1600 C.ar    1  UNL1        0.0083
     21 C          -1.0585   74.1061   18.6037 C.ar    1  UNL1        0.0906
     22 C          -0.3905   75.3393   18.6360 C.ar    1  UNL1        0.1041
     23 N           0.8274   75.4441   19.2296 N.ar    1  UNL1       -0.2292
     24 C          -2.3855   73.9658   17.9022 C.3     1  UNL1        0.4200
     25 F          -3.2659   74.9479   18.3219 F       1  UNL1       -0.1658
     26 F          -2.1941   74.0852   16.5384 F       1  UNL1       -0.1658
     27 F          -2.9521   72.7322   18.1720 F       1  UNL1       -0.1658
     28 C          10.7232   75.9508   27.6338 C.3     1  UNL1        0.1535
     29 C          11.3505   77.2621   27.2266 C.2     1  UNL1        0.2443
     30 O          11.3171   78.2523   28.0078 O.2     1  UNL1       -0.2730
     31 N          11.9240   77.3967   25.9181 N.am    1  UNL1       -0.2821
     32 H          11.6831   76.6754   25.2018 H       1  UNL1        0.1549
     33 C          12.7825   78.4863   25.5403 C.ar    1  UNL1        0.0597
     34 C          14.1792   78.3345   25.5583 C.ar    1  UNL1        0.0358
     35 C          14.9952   79.3940   25.1586 C.ar    1  UNL1        0.1002
     36 N          14.4408   80.5631   24.7450 N.ar    1  UNL1       -0.2417
     37 C          13.0938   80.7380   24.7043 C.ar    1  UNL1        0.1068
     38 C          12.2359   79.7041   25.0938 C.ar    1  UNL1        0.0671
     39 BR         10.3442   80.0071   25.0450 Br      1  UNL1       -0.0461
     40 C          10.2916   75.9148   29.1140 C.3     1  UNL1        0.0569
     41 C           8.8813   75.4179   29.2609 C.ar    1  UNL1       -0.0017
     42 C           8.4826   74.1028   29.4833 C.ar    1  UNL1        0.0681
     43 N           7.1332   74.0110   29.4772 N.ar    1  UNL1       -0.3523
     44 C           6.6773   75.2538   29.2428 C.ar    1  UNL1        0.0563
     45 C           5.3481   75.6584   29.1260 C.ar    1  UNL1        0.0170
     46 C           5.0954   77.0159   28.8558 C.ar    1  UNL1        0.0015
     47 C           6.1645   77.9272   28.7067 C.ar    1  UNL1        0.0001
     48 C           7.4962   77.4900   28.8277 C.ar    1  UNL1        0.0012
     49 C           7.7147   76.1394   29.1008 C.ar    1  UNL1        0.0131
     50 H           6.5651   73.1452   29.6118 H       1  UNL1        0.1660
@<TRIPOS>BOND
     1     1     2    2
     2     2     3   am
     3     3    28    1
     4    28    40    1
     5    40    41    1
     6    41    42   ar
     7    42    43   ar
     8    43    44   ar
     9    44    45   ar
    10    45    46   ar
    11    46    47   ar
    12    47    48   ar
    13    48    49   ar
    14    28    29    1
    15    29    30    2
    16    29    31   am
    17    31    33    1
    18    33    34   ar
    19    34    35   ar
    20    35    36   ar
    21    36    37   ar
    22    37    38   ar
    23    38    39    1
    24     2     5    1
    25     5     6   ar
    26     6     7   ar
    27     7     8   ar
    28     8    12    1
    29    12    13    1
    30    13    14    1
    31    14    15    1
    32    15    18    1
    33    18    19   ar
    34    19    20   ar
    35    20    21   ar
    36    21    24    1
    37    24    25    1
    38    24    26    1
    39    24    27    1
    40    21    22   ar
    41    22    23   ar
    42    15    16    1
    43    16    17    1
    44     8     9   ar
    45     9    10   ar
    46    10    11    1
    47    49    41   ar
    48    38    33   ar
    49    10     5   ar
    50    49    44   ar
    51    17    12    1
    52    23    18   ar
    53     3     4    1
    54    43    50    1
    55    31    32    1
@<TRIPOS>MOLECULE
*****
 50 55 0 0 0
SMALL
GASTEIGER

@<TRIPOS>ATOM
      1 O           8.4387   74.7841   25.1480 O.2     1  UNL1       -0.2701
      2 C           8.5045   75.6052   24.1934 C.2     1  UNL1        0.2483
      3 N           7.8303   75.3262   22.9532 N.am    1  UNL1       -0.2945
      4 H           8.0794   75.8945   22.1125 H       1  UNL1        0.1501
      5 C           9.3128   76.8345   24.3552 C.ar    1  UNL1        0.0808
      6 C           8.7130   78.0893   24.1619 C.ar    1  UNL1        0.0080
      7 C           9.4549   79.2632   24.3132 C.ar    1  UNL1        0.0148
      8 C          10.8180   79.2094   24.6527 C.ar    1  UNL1        0.0502
      9 C          11.4231   77.9521   24.8239 C.ar    1  UNL1        0.0443
     10 C          10.6824   76.7753   24.6752 C.ar    1  UNL1        0.1457
     11 F          11.3204   75.5837   24.7987 F       1  UNL1       -0.2040
     12 N          11.5883   80.4228   24.8046 N.pl3   1  UNL1       -0.3040
     13 C          10.8951   81.7172   24.8978 C.3     1  UNL1        0.1123
     14 C          11.7976   82.8002   25.4968 C.3     1  UNL1        0.1136
     15 N          13.0901   82.8391   24.7978 N.pl3   1  UNL1       -0.2897
     16 C          13.7287   81.5812   24.3751 C.3     1  UNL1        0.1136
     17 C          13.0444   80.3569   24.9933 C.3     1  UNL1        0.1123
     18 C          13.7867   84.0978   24.6538 C.ar    1  UNL1        0.1318
     19 C          14.3635   84.4805   23.4300 C.ar    1  UNL1        0.0343
     20 C          15.0284   85.7038   23.3317 C.ar    1  UNL1        0.0083
     21 C          15.1039   86.5591   24.4403 C.ar    1  UNL1        0.0906
     22 C          14.5354   86.1329   25.6499 C.ar    1  UNL1        0.1041
     23 N          13.8952   84.9363   25.7227 N.ar    1  UNL1       -0.2292
     24 C          15.8619   87.8598   24.3604 C.3     1  UNL1        0.4200
     25 F          15.1836   88.7725   23.5712 F       1  UNL1       -0.1658
     26 F          16.0047   88.3823   25.6322 F       1  UNL1       -0.1658
     27 F          17.1166   87.6604   23.8110 F       1  UNL1       -0.1658
     28 C           6.8466   74.2538   22.7674 C.3     1  UNL1        0.1535
     29 C           5.4548   74.8263   22.6495 C.2     1  UNL1        0.2443
     30 O           4.5404   74.1632   22.0873 O.2     1  UNL1       -0.2730
     31 N           5.1945   76.1574   23.1182 N.am    1  UNL1       -0.2821
     32 H           6.0130   76.7791   23.3051 H       1  UNL1        0.1549
     33 C           3.8698   76.6819   23.3111 C.ar    1  UNL1        0.0597
     34 C           3.0425   76.9555   22.2089 C.ar    1  UNL1        0.0358
     35 C           1.7485   77.4354   22.4177 C.ar    1  UNL1        0.1002
     36 N           1.2884   77.6276   23.6811 N.ar    1  UNL1       -0.2417
     37 C           2.0587   77.3613   24.7685 C.ar    1  UNL1        0.1068
     38 C           3.3614   76.8774   24.6090 C.ar    1  UNL1        0.0671
     39 BR          4.4190   76.5422   26.1716 Br      1  UNL1       -0.0461
     40 C           7.2349   73.3454   21.5830 C.3     1  UNL1        0.0569
     41 C           8.5063   72.5951   21.8626 C.ar    1  UNL1       -0.0017
     42 C           8.6166   71.2631   22.2518 C.ar    1  UNL1        0.0681
     43 N           9.9089   70.9483   22.4971 N.ar    1  UNL1       -0.3523
     44 C          10.6134   72.0719   22.2763 C.ar    1  UNL1        0.0563
     45 C          11.9891   72.2485   22.4184 C.ar    1  UNL1        0.0170
     46 C          12.5190   73.5246   22.1531 C.ar    1  UNL1        0.0015
     47 C          11.6714   74.5841   21.7598 C.ar    1  UNL1        0.0001
     48 C          10.2862   74.3772   21.6267 C.ar    1  UNL1        0.0012
     49 C           9.7914   73.1000   21.8916 C.ar    1  UNL1        0.0131
     50 H          10.2782   70.0230   22.8098 H       1  UNL1        0.1660
@<TRIPOS>BOND
     1     1     2    2
     2     2     3   am
     3     3    28    1
     4    28    40    1
     5    40    41    1
     6    41    42   ar
     7    42    43   ar
     8    43    44   ar
     9    44    45   ar
    10    45    46   ar
    11    46    47   ar
    12    47    48   ar
    13    48    49   ar
    14    28    29    1
    15    29    30    2
    16    29    31   am
    17    31    33    1
    18    33    34   ar
    19    34    35   ar
    20    35    36   ar
    21    36    37   ar
    22    37    38   ar
    23    38    39    1
    24     2     5    1
    25     5     6   ar
    26     6     7   ar
    27     7     8   ar
    28     8    12    1
    29    12    13    1
    30    13    14    1
    31    14    15    1
    32    15    18    1
    33    18    19   ar
    34    19    20   ar
    35    20    21   ar
    36    21    24    1
    37    24    25    1
    38    24    26    1
    39    24    27    1
    40    21    22   ar
    41    22    23   ar
    42    15    16    1
    43    16    17    1
    44     8     9   ar
    45     9    10   ar
    46    10    11    1
    47    49    41   ar
    48    38    33   ar
    49    10     5   ar
    50    49    44   ar
    51    17    12    1
    52    23    18   ar
    53     3     4    1
    54    43    50    1
    55    31    32    1
