@<TRIPOS>MOLECULE
*****
 42 46 0 0 0
SMALL
GASTEIGER

@<TRIPOS>ATOM
      1 C          -5.0183   -8.7875   30.2173 C.3     1  UNL1        0.0439
      2 C          -5.2632  -10.1678   30.8412 C.3     1  UNL1        0.1375
      3 C          -4.0414  -10.6110   31.6567 C.3     1  UNL1        0.0439
      4 C          -6.5627  -10.1744   31.7141 C.3     1  UNL1        0.0709
      5 C          -7.4096  -11.1683   31.0087 C.ar    1  UNL1        0.0325
      6 C          -6.7572  -11.6748   29.9119 C.ar    1  UNL1        0.1401
      7 C          -7.3422  -12.6609   29.0759 C.ar    1  UNL1        0.0889
      8 C          -8.6316  -13.1486   29.4228 C.ar    1  UNL1        0.0282
      9 C          -9.2644  -12.6095   30.5520 C.ar    1  UNL1        0.0997
     10 N         -10.4722  -12.9262   31.0517 N.ar    1  UNL1       -0.2137
     11 C         -10.5661  -12.1101   32.1380 C.ar    1  UNL1        0.1983
     12 N          -9.4813  -11.3209   32.3348 N.ar    1  UNL1       -0.3255
     13 C          -8.6736  -11.6481   31.3205 C.ar    1  UNL1        0.0755
     14 O          -5.5002  -11.1179   29.7971 O.3     1  UNL1       -0.4824
     15 H          -9.3154  -10.6261   33.0967 H       1  UNL1        0.1686
     16 C          -6.6392  -13.2049   27.8947 C.2     1  UNL1        0.2535
     17 O          -5.6878  -12.5441   27.3965 O.2     1  UNL1       -0.2697
     18 N          -7.0274  -14.4653   27.3172 N.am    1  UNL1       -0.2657
     19 H          -7.8682  -14.9570   27.6910 H       1  UNL1        0.1566
     20 C          -6.3800  -15.0696   26.1871 C.ar    1  UNL1        0.1356
     21 C          -6.8279  -14.8494   24.8775 C.ar    1  UNL1        0.0485
     22 C          -6.1530  -15.4323   23.7959 C.ar    1  UNL1        0.0497
     23 N          -6.6401  -15.1863   22.4684 N.pl3   1  UNL1       -0.3569
     24 C          -5.0091  -16.2332   24.0382 C.ar    1  UNL1        0.1035
     25 C          -4.5826  -16.3961   25.3695 C.ar    1  UNL1        0.1054
     26 N          -5.2641  -15.8158   26.3902 N.ar    1  UNL1       -0.2290
     27 H          -6.1769  -15.5719   21.6179 H       1  UNL1        0.1424
     28 H          -7.4885  -14.5958   22.3180 H       1  UNL1        0.1424
     29 C          -4.2438  -16.8900   22.9078 C.3     1  UNL1        0.4212
     30 F          -5.0743  -17.6380   22.0906 F       1  UNL1       -0.1658
     31 F          -3.6378  -15.9200   22.1296 F       1  UNL1       -0.1658
     32 F          -3.2782  -17.7328   23.4278 F       1  UNL1       -0.1658
     33 N         -11.6960  -12.1018   33.0179 N.pl3   1  UNL1       -0.2827
     34 H         -11.8571  -11.2562   33.6098 H       1  UNL1        0.1551
     35 C         -12.4731  -13.2799   33.2737 C.ar    1  UNL1        0.0718
     36 C         -12.1056  -14.1796   34.2966 C.ar    1  UNL1        0.0719
     37 CL        -10.6510  -13.9357   35.2562 Cl      1  UNL1       -0.0809
     38 C         -12.8765  -15.3243   34.5295 C.ar    1  UNL1        0.0127
     39 C         -14.0024  -15.5865   33.7467 C.ar    1  UNL1        0.0018
     40 C         -14.3601  -14.7107   32.7203 C.ar    1  UNL1        0.0127
     41 C         -13.5983  -13.5627   32.4761 C.ar    1  UNL1        0.0719
     42 CL        -14.0912  -12.4737   31.1861 Cl      1  UNL1       -0.0809
@<TRIPOS>BOND
     1     1     2    1
     2     2     3    1
     3     2     4    1
     4     4     5    1
     5     5     6   ar
     6     6     7   ar
     7     7    16    1
     8    16    17    2
     9    16    18   am
    10    18    20    1
    11    20    21   ar
    12    21    22   ar
    13    22    23    1
    14    22    24   ar
    15    24    29    1
    16    29    30    1
    17    29    31    1
    18    29    32    1
    19    24    25   ar
    20    25    26   ar
    21     7     8   ar
    22     8     9   ar
    23     9    10   ar
    24    10    11   ar
    25    11    33    1
    26    33    35    1
    27    35    36   ar
    28    36    37    1
    29    36    38   ar
    30    38    39   ar
    31    39    40   ar
    32    40    41   ar
    33    41    42    1
    34    11    12   ar
    35    12    13   ar
    36     6    14    1
    37    14     2    1
    38    13     5   ar
    39    26    20   ar
    40    13     9   ar
    41    41    35   ar
    42    18    19    1
    43    23    27    1
    44    23    28    1
    45    33    34    1
    46    12    15    1
@<TRIPOS>MOLECULE
*****
 42 46 0 0 0
SMALL
GASTEIGER

@<TRIPOS>ATOM
      1 C          -5.3162   -9.6148   27.8733 C.3     1  UNL1        0.0439
      2 C          -5.3853  -10.7674   28.8838 C.3     1  UNL1        0.1375
      3 C          -4.0159  -10.9864   29.5404 C.3     1  UNL1        0.0439
      4 C          -6.4971  -10.5164   29.9569 C.3     1  UNL1        0.0709
      5 C          -7.4212  -11.6540   29.7235 C.ar    1  UNL1        0.0325
      6 C          -6.9662  -12.4510   28.7021 C.ar    1  UNL1        0.1401
      7 C          -7.6579  -13.6205   28.2933 C.ar    1  UNL1        0.0889
      8 C          -8.8394  -13.9766   28.9992 C.ar    1  UNL1        0.0282
      9 C          -9.2704  -13.1398   30.0385 C.ar    1  UNL1        0.0997
     10 N         -10.3498  -13.2906   30.8263 N.ar    1  UNL1       -0.2137
     11 C         -10.2709  -12.2065   31.6469 C.ar    1  UNL1        0.1983
     12 N          -9.2004  -11.4085   31.4110 N.ar    1  UNL1       -0.3255
     13 C          -8.5846  -12.0125   30.3892 C.ar    1  UNL1        0.0755
     14 O          -5.7758  -11.9642   28.2026 O.3     1  UNL1       -0.4824
     15 H          -8.9224  -10.5337   31.9091 H       1  UNL1        0.1686
     16 C          -7.1675  -14.4773   27.1931 C.2     1  UNL1        0.2535
     17 O          -7.8345  -15.4993   26.8757 O.2     1  UNL1       -0.2697
     18 N          -5.9514  -14.1584   26.4916 N.am    1  UNL1       -0.2657
     19 H          -5.3705  -13.3572   26.8219 H       1  UNL1        0.1566
     20 C          -5.4235  -14.9266   25.3995 C.ar    1  UNL1        0.1356
     21 C          -4.7429  -16.1336   25.6097 C.ar    1  UNL1        0.0485
     22 C          -4.2669  -16.8720   24.5172 C.ar    1  UNL1        0.0497
     23 N          -3.5733  -18.1031   24.7696 N.pl3   1  UNL1       -0.3569
     24 C          -4.4916  -16.3942   23.2021 C.ar    1  UNL1        0.1035
     25 C          -5.2084  -15.1931   23.0455 C.ar    1  UNL1        0.1054
     26 N          -5.6523  -14.5061   24.1290 N.ar    1  UNL1       -0.2290
     27 H          -3.2095  -18.7115   24.0054 H       1  UNL1        0.1424
     28 H          -3.4170  -18.4301   25.7492 H       1  UNL1        0.1424
     29 C          -3.9965  -17.1495   21.9858 C.3     1  UNL1        0.4212
     30 F          -4.3493  -16.5147   20.8070 F       1  UNL1       -0.1658
     31 F          -2.6169  -17.2436   22.0252 F       1  UNL1       -0.1658
     32 F          -4.5445  -18.4193   21.9719 F       1  UNL1       -0.1658
     33 N         -11.2155  -11.9416   32.6902 N.pl3   1  UNL1       -0.2827
     34 H         -11.2452  -10.9810   33.0999 H       1  UNL1        0.1551
     35 C         -11.9554  -12.9882   33.3341 C.ar    1  UNL1        0.0718
     36 C         -11.4297  -13.6572   34.4597 C.ar    1  UNL1        0.0719
     37 CL         -9.8260  -13.2877   35.0823 Cl      1  UNL1       -0.0809
     38 C         -12.1669  -14.6767   35.0729 C.ar    1  UNL1        0.0127
     39 C         -13.4164  -15.0430   34.5693 C.ar    1  UNL1        0.0018
     40 C         -13.9334  -14.3986   33.4442 C.ar    1  UNL1        0.0127
     41 C         -13.2072  -13.3779   32.8209 C.ar    1  UNL1        0.0719
     42 CL        -13.8997  -12.5770   31.4167 Cl      1  UNL1       -0.0809
@<TRIPOS>BOND
     1     1     2    1
     2     2     3    1
     3     2     4    1
     4     4     5    1
     5     5     6   ar
     6     6     7   ar
     7     7    16    1
     8    16    17    2
     9    16    18   am
    10    18    20    1
    11    20    21   ar
    12    21    22   ar
    13    22    23    1
    14    22    24   ar
    15    24    29    1
    16    29    30    1
    17    29    31    1
    18    29    32    1
    19    24    25   ar
    20    25    26   ar
    21     7     8   ar
    22     8     9   ar
    23     9    10   ar
    24    10    11   ar
    25    11    33    1
    26    33    35    1
    27    35    36   ar
    28    36    37    1
    29    36    38   ar
    30    38    39   ar
    31    39    40   ar
    32    40    41   ar
    33    41    42    1
    34    11    12   ar
    35    12    13   ar
    36     6    14    1
    37    14     2    1
    38    13     5   ar
    39    26    20   ar
    40    13     9   ar
    41    41    35   ar
    42    18    19    1
    43    23    27    1
    44    23    28    1
    45    33    34    1
    46    12    15    1
@<TRIPOS>MOLECULE
*****
 42 46 0 0 0
SMALL
GASTEIGER

@<TRIPOS>ATOM
      1 C          -5.2969   -9.6285   27.8443 C.3     1  UNL1        0.0439
      2 C          -5.3636  -10.7842   28.8514 C.3     1  UNL1        0.1375
      3 C          -3.9933  -11.0036   29.5059 C.3     1  UNL1        0.0439
      4 C          -6.4747  -10.5378   29.9263 C.3     1  UNL1        0.0709
      5 C          -7.3977  -11.6758   29.6903 C.ar    1  UNL1        0.0325
      6 C          -6.9427  -12.4691   28.6662 C.ar    1  UNL1        0.1401
      7 C          -7.6334  -13.6382   28.2545 C.ar    1  UNL1        0.0889
      8 C          -8.8137  -13.9979   28.9605 C.ar    1  UNL1        0.0282
      9 C          -9.2447  -13.1647   30.0027 C.ar    1  UNL1        0.0997
     10 N         -10.3232  -13.3192   30.7911 N.ar    1  UNL1       -0.2137
     11 C         -10.2448  -12.2375   31.6149 C.ar    1  UNL1        0.1983
     12 N          -9.1755  -11.4375   31.3804 N.ar    1  UNL1       -0.3255
     13 C          -8.5599  -12.0377   30.3562 C.ar    1  UNL1        0.0755
     14 O          -5.7534  -11.9794   28.1670 O.3     1  UNL1       -0.4824
     15 H          -8.8980  -10.5639   31.8808 H       1  UNL1        0.1686
     16 C          -7.1431  -14.4912   27.1512 C.2     1  UNL1        0.2535
     17 O          -7.8048  -15.5176   26.8369 O.2     1  UNL1       -0.2697
     18 N          -5.9330  -14.1636   26.4434 N.am    1  UNL1       -0.2657
     19 H          -5.3558  -13.3586   26.7710 H       1  UNL1        0.1566
     20 C          -5.4057  -14.9276   25.3480 C.ar    1  UNL1        0.1356
     21 C          -4.7458  -16.1472   25.5514 C.ar    1  UNL1        0.0485
     22 C          -4.2700  -16.8807   24.4556 C.ar    1  UNL1        0.0497
     23 N          -3.5979  -18.1251   24.7010 N.pl3   1  UNL1       -0.3569
     24 C          -4.4739  -16.3849   23.1437 C.ar    1  UNL1        0.1035
     25 C          -5.1706  -15.1712   22.9935 C.ar    1  UNL1        0.1054
     26 N          -5.6150  -14.4896   24.0801 N.ar    1  UNL1       -0.2290
     27 H          -3.2356  -18.7304   23.9337 H       1  UNL1        0.1424
     28 H          -3.4568  -18.4653   25.6784 H       1  UNL1        0.1424
     29 C          -3.9779  -17.1341   21.9241 C.3     1  UNL1        0.4212
     30 F          -4.4279  -16.5582   20.7481 F       1  UNL1       -0.1658
     31 F          -2.5947  -17.1264   21.9027 F       1  UNL1       -0.1658
     32 F          -4.4305  -18.4404   21.9647 F       1  UNL1       -0.1658
     33 N         -11.1887  -11.9769   32.6600 N.pl3   1  UNL1       -0.2827
     34 H         -11.2181  -11.0180   33.0735 H       1  UNL1        0.1551
     35 C         -11.9280  -13.0262   33.3001 C.ar    1  UNL1        0.0718
     36 C         -13.1912  -13.4215   32.8113 C.ar    1  UNL1        0.0719
     37 CL        -13.9433  -12.6083   31.4441 Cl      1  UNL1       -0.0809
     38 C         -13.8975  -14.4467   33.4510 C.ar    1  UNL1        0.0127
     39 C         -13.3627  -15.0734   34.5780 C.ar    1  UNL1        0.0018
     40 C         -12.1223  -14.6736   35.0783 C.ar    1  UNL1        0.0127
     41 C         -11.4056  -13.6498   34.4491 C.ar    1  UNL1        0.0719
     42 CL         -9.8380  -13.1864   35.0979 Cl      1  UNL1       -0.0809
@<TRIPOS>BOND
     1     1     2    1
     2     2     3    1
     3     2     4    1
     4     4     5    1
     5     5     6   ar
     6     6     7   ar
     7     7    16    1
     8    16    17    2
     9    16    18   am
    10    18    20    1
    11    20    21   ar
    12    21    22   ar
    13    22    23    1
    14    22    24   ar
    15    24    29    1
    16    29    30    1
    17    29    31    1
    18    29    32    1
    19    24    25   ar
    20    25    26   ar
    21     7     8   ar
    22     8     9   ar
    23     9    10   ar
    24    10    11   ar
    25    11    33    1
    26    33    35    1
    27    35    36   ar
    28    36    37    1
    29    36    38   ar
    30    38    39   ar
    31    39    40   ar
    32    40    41   ar
    33    41    42    1
    34    11    12   ar
    35    12    13   ar
    36     6    14    1
    37    14     2    1
    38    13     5   ar
    39    26    20   ar
    40    13     9   ar
    41    41    35   ar
    42    18    19    1
    43    23    27    1
    44    23    28    1
    45    33    34    1
    46    12    15    1
@<TRIPOS>MOLECULE
*****
 42 46 0 0 0
SMALL
GASTEIGER

@<TRIPOS>ATOM
      1 C         -11.8226  -14.9056   33.3337 C.3     1  UNL1        0.0439
      2 C         -11.9282  -13.5770   32.5732 C.3     1  UNL1        0.1375
      3 C         -13.3983  -13.1692   32.4098 C.3     1  UNL1        0.0439
      4 C         -11.1005  -12.4511   33.2787 C.3     1  UNL1        0.0709
      5 C         -10.0942  -12.1060   32.2438 C.ar    1  UNL1        0.0325
      6 C         -10.2684  -12.8731   31.1185 C.ar    1  UNL1        0.1401
      7 C          -9.4471  -12.7250   29.9709 C.ar    1  UNL1        0.0889
      8 C          -8.4397  -11.7224   29.9977 C.ar    1  UNL1        0.0282
      9 C          -8.2949  -10.9567   31.1633 C.ar    1  UNL1        0.0997
     10 N          -7.4150   -9.9667   31.3970 N.ar    1  UNL1       -0.2137
     11 C          -7.7289   -9.5856   32.6663 C.ar    1  UNL1        0.1983
     12 N          -8.7555  -10.2796   33.2165 N.ar    1  UNL1       -0.3255
     13 C          -9.0952  -11.1431   32.2536 C.ar    1  UNL1        0.0755
     14 O         -11.3372  -13.7306   31.2786 O.3     1  UNL1       -0.4824
     15 H          -9.1802  -10.1658   34.1638 H       1  UNL1        0.1686
     16 C          -9.6350  -13.5521   28.7601 C.2     1  UNL1        0.2535
     17 O         -10.6340  -13.3314   28.0229 O.2     1  UNL1       -0.2697
     18 N          -8.6996  -14.5929   28.4215 N.am    1  UNL1       -0.2657
     19 H          -7.9265  -14.8157   29.0857 H       1  UNL1        0.1566
     20 C          -8.8007  -15.4211   27.2530 C.ar    1  UNL1        0.1356
     21 C          -8.6291  -14.8992   25.9637 C.ar    1  UNL1        0.0485
     22 C          -8.7055  -15.7435   24.8473 C.ar    1  UNL1        0.0497
     23 N          -8.5259  -15.1747   23.5417 N.pl3   1  UNL1       -0.3569
     24 C          -8.9440  -17.1278   25.0355 C.ar    1  UNL1        0.1035
     25 C          -9.0771  -17.6054   26.3527 C.ar    1  UNL1        0.1054
     26 N          -8.9978  -16.7554   27.4082 N.ar    1  UNL1       -0.2290
     27 H          -8.5512  -15.7458   22.6702 H       1  UNL1        0.1424
     28 H          -8.3560  -14.1501   23.4308 H       1  UNL1        0.1424
     29 C          -9.0397  -18.0849   23.8652 C.3     1  UNL1        0.4212
     30 F          -7.8872  -18.0765   23.0980 F       1  UNL1       -0.1658
     31 F          -9.2347  -19.3728   24.3310 F       1  UNL1       -0.1658
     32 F         -10.0999  -17.7232   23.0539 F       1  UNL1       -0.1658
     33 N          -7.0578   -8.5247   33.3556 N.pl3   1  UNL1       -0.2827
     34 H          -7.2271   -8.4146   34.3806 H       1  UNL1        0.1551
     35 C          -6.3481   -7.4907   32.6596 C.ar    1  UNL1        0.0718
     36 C          -7.0302   -6.5883   31.8163 C.ar    1  UNL1        0.0719
     37 CL         -8.7605   -6.7280   31.5287 Cl      1  UNL1       -0.0809
     38 C          -6.3192   -5.5870   31.1449 C.ar    1  UNL1        0.0127
     39 C          -4.9353   -5.4833   31.2970 C.ar    1  UNL1        0.0018
     40 C          -4.2518   -6.3852   32.1143 C.ar    1  UNL1        0.0127
     41 C          -4.9499   -7.3913   32.7912 C.ar    1  UNL1        0.0719
     42 CL         -4.0564   -8.4973   33.8262 Cl      1  UNL1       -0.0809
@<TRIPOS>BOND
     1     1     2    1
     2     2     3    1
     3     2     4    1
     4     4     5    1
     5     5     6   ar
     6     6     7   ar
     7     7    16    1
     8    16    17    2
     9    16    18   am
    10    18    20    1
    11    20    21   ar
    12    21    22   ar
    13    22    23    1
    14    22    24   ar
    15    24    29    1
    16    29    30    1
    17    29    31    1
    18    29    32    1
    19    24    25   ar
    20    25    26   ar
    21     7     8   ar
    22     8     9   ar
    23     9    10   ar
    24    10    11   ar
    25    11    33    1
    26    33    35    1
    27    35    36   ar
    28    36    37    1
    29    36    38   ar
    30    38    39   ar
    31    39    40   ar
    32    40    41   ar
    33    41    42    1
    34    11    12   ar
    35    12    13   ar
    36     6    14    1
    37    14     2    1
    38    13     5   ar
    39    26    20   ar
    40    13     9   ar
    41    41    35   ar
    42    18    19    1
    43    23    27    1
    44    23    28    1
    45    33    34    1
    46    12    15    1
@<TRIPOS>MOLECULE
*****
 42 46 0 0 0
SMALL
GASTEIGER

@<TRIPOS>ATOM
      1 C         -11.7938  -14.8416   33.3633 C.3     1  UNL1        0.0439
      2 C         -11.9303  -13.5267   32.5843 C.3     1  UNL1        0.1375
      3 C         -13.4089  -13.1472   32.4294 C.3     1  UNL1        0.0439
      4 C         -11.1158  -12.3759   33.2647 C.3     1  UNL1        0.0709
      5 C         -10.1259  -12.0287   32.2149 C.ar    1  UNL1        0.0325
      6 C         -10.2973  -12.8156   31.1029 C.ar    1  UNL1        0.1401
      7 C          -9.4899  -12.6704   29.9451 C.ar    1  UNL1        0.0889
      8 C          -8.5003  -11.6499   29.9469 C.ar    1  UNL1        0.0282
      9 C          -8.3577  -10.8643   31.0996 C.ar    1  UNL1        0.0997
     10 N          -7.4934   -9.8557   31.3098 N.ar    1  UNL1       -0.2137
     11 C          -7.8017   -9.4611   32.5763 C.ar    1  UNL1        0.1983
     12 N          -8.8104  -10.1647   33.1470 N.ar    1  UNL1       -0.3255
     13 C          -9.1441  -11.0483   32.2004 C.ar    1  UNL1        0.0755
     14 O         -11.3492  -13.6893   31.2863 O.3     1  UNL1       -0.4824
     15 H          -9.2279  -10.0441   34.0966 H       1  UNL1        0.1686
     16 C          -9.6748  -13.5187   28.7487 C.2     1  UNL1        0.2535
     17 O         -10.6828  -13.3244   28.0163 O.2     1  UNL1       -0.2697
     18 N          -8.7265  -14.5505   28.4185 N.am    1  UNL1       -0.2657
     19 H          -7.9449  -14.7514   29.0796 H       1  UNL1        0.1566
     20 C          -8.8243  -15.3980   27.2636 C.ar    1  UNL1        0.1356
     21 C          -8.6677  -14.8941   25.9653 C.ar    1  UNL1        0.0485
     22 C          -8.7403  -15.7566   24.8626 C.ar    1  UNL1        0.0497
     23 N          -8.5765  -15.2059   23.5472 N.pl3   1  UNL1       -0.3569
     24 C          -8.9595  -17.1408   25.0738 C.ar    1  UNL1        0.1035
     25 C          -9.0778  -17.5995   26.3991 C.ar    1  UNL1        0.1054
     26 N          -9.0029  -16.7322   27.4407 N.ar    1  UNL1       -0.2290
     27 H          -8.5998  -15.7908   22.6848 H       1  UNL1        0.1424
     28 H          -8.4207  -14.1811   23.4193 H       1  UNL1        0.1424
     29 C          -9.0501  -18.1172   23.9191 C.3     1  UNL1        0.4212
     30 F          -7.9078  -18.0967   23.1371 F       1  UNL1       -0.1658
     31 F          -9.2127  -19.4016   24.4063 F       1  UNL1       -0.1658
     32 F         -10.1277  -17.7895   23.1163 F       1  UNL1       -0.1658
     33 N          -7.1429   -8.3783   33.2431 N.pl3   1  UNL1       -0.2827
     34 H          -7.3552   -8.2155   34.2530 H       1  UNL1        0.1551
     35 C          -6.3849   -7.3908   32.5306 C.ar    1  UNL1        0.0718
     36 C          -4.9885   -7.2883   32.7043 C.ar    1  UNL1        0.0719
     37 CL         -4.1263   -8.3151   33.8438 Cl      1  UNL1       -0.0809
     38 C          -4.2671   -6.3170   32.0007 C.ar    1  UNL1        0.0127
     39 C          -4.9245   -5.4409   31.1351 C.ar    1  UNL1        0.0018
     40 C          -6.3086   -5.5242   30.9737 C.ar    1  UNL1        0.0127
     41 C          -7.0423   -6.4901   31.6711 C.ar    1  UNL1        0.0719
     42 CL         -8.7819   -6.5760   31.4277 Cl      1  UNL1       -0.0809
@<TRIPOS>BOND
     1     1     2    1
     2     2     3    1
     3     2     4    1
     4     4     5    1
     5     5     6   ar
     6     6     7   ar
     7     7    16    1
     8    16    17    2
     9    16    18   am
    10    18    20    1
    11    20    21   ar
    12    21    22   ar
    13    22    23    1
    14    22    24   ar
    15    24    29    1
    16    29    30    1
    17    29    31    1
    18    29    32    1
    19    24    25   ar
    20    25    26   ar
    21     7     8   ar
    22     8     9   ar
    23     9    10   ar
    24    10    11   ar
    25    11    33    1
    26    33    35    1
    27    35    36   ar
    28    36    37    1
    29    36    38   ar
    30    38    39   ar
    31    39    40   ar
    32    40    41   ar
    33    41    42    1
    34    11    12   ar
    35    12    13   ar
    36     6    14    1
    37    14     2    1
    38    13     5   ar
    39    26    20   ar
    40    13     9   ar
    41    41    35   ar
    42    18    19    1
    43    23    27    1
    44    23    28    1
    45    33    34    1
    46    12    15    1
@<TRIPOS>MOLECULE
*****
 42 46 0 0 0
SMALL
GASTEIGER

@<TRIPOS>ATOM
      1 C          -5.0469  -15.4365   24.9995 C.3     1  UNL1        0.0439
      2 C          -5.1091  -15.7285   23.4944 C.3     1  UNL1        0.1375
      3 C          -5.3613  -14.4352   22.7081 C.3     1  UNL1        0.0439
      4 C          -3.8102  -16.4499   23.0014 C.3     1  UNL1        0.0709
      5 C          -4.3375  -17.7505   22.5186 C.ar    1  UNL1        0.0325
      6 C          -5.6989  -17.8171   22.6841 C.ar    1  UNL1        0.1401
      7 C          -6.4525  -18.9503   22.2822 C.ar    1  UNL1        0.0889
      8 C          -5.7594  -20.0249   21.6612 C.ar    1  UNL1        0.0282
      9 C          -4.3699  -19.9186   21.5064 C.ar    1  UNL1        0.0997
     10 N          -3.5303  -20.8102   20.9506 N.ar    1  UNL1       -0.2137
     11 C          -2.3232  -20.1897   21.0632 C.ar    1  UNL1        0.1983
     12 N          -2.3796  -18.9673   21.6470 N.ar    1  UNL1       -0.3255
     13 C          -3.6793  -18.8171   21.9233 C.ar    1  UNL1        0.0755
     14 O          -6.1762  -16.6480   23.2398 O.3     1  UNL1       -0.4824
     15 H          -1.5966  -18.3020   21.8339 H       1  UNL1        0.1686
     16 C          -7.9181  -19.0212   22.4616 C.2     1  UNL1        0.2535
     17 O          -8.5387  -20.0182   22.0023 O.2     1  UNL1       -0.2697
     18 N          -8.6319  -17.9753   23.1467 N.am    1  UNL1       -0.2657
     19 H          -8.1146  -17.1202   23.4462 H       1  UNL1        0.1566
     20 C         -10.0486  -17.9832   23.3805 C.ar    1  UNL1        0.1356
     21 C         -10.9508  -17.4447   22.4531 C.ar    1  UNL1        0.0485
     22 C         -12.3295  -17.4967   22.7014 C.ar    1  UNL1        0.0497
     23 N         -13.2245  -16.9344   21.7303 N.pl3   1  UNL1       -0.3569
     24 C         -12.8010  -18.1089   23.8894 C.ar    1  UNL1        0.1035
     25 C         -11.8545  -18.6626   24.7718 C.ar    1  UNL1        0.1054
     26 N         -10.5271  -18.5912   24.4962 N.ar    1  UNL1       -0.2290
     27 H         -14.2607  -16.9548   21.8410 H       1  UNL1        0.1424
     28 H         -12.8502  -16.4846   20.8651 H       1  UNL1        0.1424
     29 C         -14.2793  -18.1898   24.2101 C.3     1  UNL1        0.4212
     30 F         -14.5243  -18.9963   25.3085 F       1  UNL1       -0.1658
     31 F         -14.7655  -16.9253   24.4903 F       1  UNL1       -0.1658
     32 F         -14.9619  -18.7162   23.1284 F       1  UNL1       -0.1658
     33 N          -1.1003  -20.7592   20.5821 N.pl3   1  UNL1       -0.2827
     34 H          -1.1222  -21.7325   20.2033 H       1  UNL1        0.1551
     35 C           0.1717  -20.1342   20.8027 C.ar    1  UNL1        0.0718
     36 C           0.3953  -18.7956   20.4169 C.ar    1  UNL1        0.0719
     37 CL         -0.8446  -17.8571   19.5934 Cl      1  UNL1       -0.0809
     38 C           1.6442  -18.2044   20.6396 C.ar    1  UNL1        0.0127
     39 C           2.6744  -18.9367   21.2325 C.ar    1  UNL1        0.0018
     40 C           2.4657  -20.2675   21.5986 C.ar    1  UNL1        0.0127
     41 C           1.2224  -20.8713   21.3814 C.ar    1  UNL1        0.0719
     42 CL          0.9921  -22.5441   21.8729 Cl      1  UNL1       -0.0809
@<TRIPOS>BOND
     1     1     2    1
     2     2     3    1
     3     2     4    1
     4     4     5    1
     5     5     6   ar
     6     6     7   ar
     7     7    16    1
     8    16    17    2
     9    16    18   am
    10    18    20    1
    11    20    21   ar
    12    21    22   ar
    13    22    23    1
    14    22    24   ar
    15    24    29    1
    16    29    30    1
    17    29    31    1
    18    29    32    1
    19    24    25   ar
    20    25    26   ar
    21     7     8   ar
    22     8     9   ar
    23     9    10   ar
    24    10    11   ar
    25    11    33    1
    26    33    35    1
    27    35    36   ar
    28    36    37    1
    29    36    38   ar
    30    38    39   ar
    31    39    40   ar
    32    40    41   ar
    33    41    42    1
    34    11    12   ar
    35    12    13   ar
    36     6    14    1
    37    14     2    1
    38    13     5   ar
    39    26    20   ar
    40    13     9   ar
    41    41    35   ar
    42    18    19    1
    43    23    27    1
    44    23    28    1
    45    33    34    1
    46    12    15    1
@<TRIPOS>MOLECULE
*****
 42 46 0 0 0
SMALL
GASTEIGER

@<TRIPOS>ATOM
      1 C         -11.5387  -13.6250   32.6540 C.3     1  UNL1        0.0439
      2 C         -11.2847  -12.7053   31.4522 C.3     1  UNL1        0.1375
      3 C         -12.6036  -12.1012   30.9523 C.3     1  UNL1        0.0439
      4 C         -10.2437  -11.5893   31.8008 C.3     1  UNL1        0.0709
      5 C          -9.1364  -11.8875   30.8586 C.ar    1  UNL1        0.0325
      6 C          -9.4376  -12.9782   30.0809 C.ar    1  UNL1        0.1401
      7 C          -8.5520  -13.4593   29.0821 C.ar    1  UNL1        0.0889
      8 C          -7.3348  -12.7546   28.8757 C.ar    1  UNL1        0.0282
      9 C          -7.0642  -11.6435   29.6871 C.ar    1  UNL1        0.0997
     10 N          -5.9834  -10.8437   29.6584 N.ar    1  UNL1       -0.2137
     11 C          -6.2552   -9.9438   30.6440 C.ar    1  UNL1        0.1983
     12 N          -7.4436  -10.1432   31.2654 N.ar    1  UNL1       -0.3255
     13 C          -7.9362  -11.2234   30.6500 C.ar    1  UNL1        0.0755
     14 O         -10.6882  -13.4674   30.3976 O.3     1  UNL1       -0.4824
     15 H          -7.8723   -9.5859   32.0376 H       1  UNL1        0.1686
     16 C          -8.8769  -14.6342   28.2459 C.2     1  UNL1        0.2535
     17 O          -9.4810  -15.6071   28.7738 O.2     1  UNL1       -0.2697
     18 N          -8.5137  -14.6755   26.8533 N.am    1  UNL1       -0.2657
     19 H          -7.9423  -13.8988   26.4549 H       1  UNL1        0.1566
     20 C          -8.8143  -15.7685   25.9721 C.ar    1  UNL1        0.1356
     21 C          -8.8115  -15.6132   24.5792 C.ar    1  UNL1        0.0485
     22 C          -9.0808  -16.7101   23.7488 C.ar    1  UNL1        0.0497
     23 N          -9.0706  -16.5144   22.3268 N.pl3   1  UNL1       -0.3569
     24 C          -9.3419  -17.9762   24.3294 C.ar    1  UNL1        0.1035
     25 C          -9.3009  -18.0845   25.7321 C.ar    1  UNL1        0.1054
     26 N          -9.0374  -16.9982   26.5024 N.ar    1  UNL1       -0.2290
     27 H          -9.2435  -17.2885   21.6506 H       1  UNL1        0.1424
     28 H          -8.8798  -15.5694   21.9250 H       1  UNL1        0.1424
     29 C          -9.6423  -19.1942   23.4802 C.3     1  UNL1        0.4212
     30 F          -9.8625  -20.3202   24.2551 F       1  UNL1       -0.1658
     31 F         -10.7777  -18.9664   22.7234 F       1  UNL1       -0.1658
     32 F          -8.5734  -19.4511   22.6409 F       1  UNL1       -0.1658
     33 N          -5.3810   -8.8604   30.9802 N.pl3   1  UNL1       -0.2827
     34 H          -4.3530   -9.0442   31.0107 H       1  UNL1        0.1551
     35 C          -5.8727   -7.6109   31.4843 C.ar    1  UNL1        0.0718
     36 C          -6.8263   -6.8648   30.7599 C.ar    1  UNL1        0.0719
     37 CL         -7.4042   -7.3948   29.1847 Cl      1  UNL1       -0.0809
     38 C          -7.2925   -5.6470   31.2684 C.ar    1  UNL1        0.0127
     39 C          -6.8101   -5.1609   32.4850 C.ar    1  UNL1        0.0018
     40 C          -5.8521   -5.8846   33.1971 C.ar    1  UNL1        0.0127
     41 C          -5.3769   -7.1033   32.7004 C.ar    1  UNL1        0.0719
     42 CL         -4.1835   -7.9951   33.6350 Cl      1  UNL1       -0.0809
@<TRIPOS>BOND
     1     1     2    1
     2     2     3    1
     3     2     4    1
     4     4     5    1
     5     5     6   ar
     6     6     7   ar
     7     7    16    1
     8    16    17    2
     9    16    18   am
    10    18    20    1
    11    20    21   ar
    12    21    22   ar
    13    22    23    1
    14    22    24   ar
    15    24    29    1
    16    29    30    1
    17    29    31    1
    18    29    32    1
    19    24    25   ar
    20    25    26   ar
    21     7     8   ar
    22     8     9   ar
    23     9    10   ar
    24    10    11   ar
    25    11    33    1
    26    33    35    1
    27    35    36   ar
    28    36    37    1
    29    36    38   ar
    30    38    39   ar
    31    39    40   ar
    32    40    41   ar
    33    41    42    1
    34    11    12   ar
    35    12    13   ar
    36     6    14    1
    37    14     2    1
    38    13     5   ar
    39    26    20   ar
    40    13     9   ar
    41    41    35   ar
    42    18    19    1
    43    23    27    1
    44    23    28    1
    45    33    34    1
    46    12    15    1
