@<TRIPOS>MOLECULE
*****
 50 55 0 0 0
SMALL
GASTEIGER

@<TRIPOS>ATOM
      1 N         -63.1509  -44.8242  -27.8580 N.am    1  UNL1       -0.2945
      2 C         -62.2965  -45.1807  -26.7539 C.2     1  UNL1        0.2483
      3 O         -61.4947  -46.1481  -26.8571 O.2     1  UNL1       -0.2701
      4 H         -63.9171  -44.1352  -27.6848 H       1  UNL1        0.1501
      5 C         -62.3614  -44.4364  -25.4765 C.ar    1  UNL1        0.0808
      6 C         -62.5780  -43.0485  -25.4936 C.ar    1  UNL1        0.0080
      7 C         -62.6415  -42.3242  -24.3005 C.ar    1  UNL1        0.0148
      8 C         -62.4955  -42.9747  -23.0662 C.ar    1  UNL1        0.0502
      9 C         -62.3026  -44.3648  -23.0450 C.ar    1  UNL1        0.0443
     10 C         -62.2385  -45.0934  -24.2370 C.ar    1  UNL1        0.1457
     11 F         -62.1129  -46.4430  -24.1704 F       1  UNL1       -0.2040
     12 N         -62.5731  -42.2316  -21.8353 N.pl3   1  UNL1       -0.3040
     13 C         -63.7282  -42.3829  -20.9443 C.3     1  UNL1        0.1123
     14 C         -64.3119  -41.0055  -20.6302 C.3     1  UNL1        0.1136
     15 N         -63.2657  -40.0626  -20.2019 N.pl3   1  UNL1       -0.2897
     16 C         -61.8484  -40.4630  -20.2338 C.3     1  UNL1        0.1136
     17 C         -61.5280  -41.2485  -21.5146 C.3     1  UNL1        0.1123
     18 C         -63.6705  -38.7870  -19.6630 C.ar    1  UNL1        0.1318
     19 C         -64.7019  -38.6851  -18.7142 C.ar    1  UNL1        0.0343
     20 C         -65.0704  -37.4299  -18.2277 C.ar    1  UNL1        0.0083
     21 C         -64.4347  -36.2729  -18.7019 C.ar    1  UNL1        0.0906
     22 C         -63.4014  -36.4176  -19.6402 C.ar    1  UNL1        0.1041
     23 N         -63.0577  -37.6505  -20.0973 N.ar    1  UNL1       -0.2292
     24 C         -64.7894  -34.9164  -18.1482 C.3     1  UNL1        0.4200
     25 F         -65.7945  -34.3305  -18.8982 F       1  UNL1       -0.1658
     26 F         -65.2242  -35.0569  -16.8437 F       1  UNL1       -0.1658
     27 F         -63.6886  -34.0773  -18.1690 F       1  UNL1       -0.1658
     28 C         -63.0771  -45.4064  -29.2066 C.3     1  UNL1        0.1535
     29 C         -64.3565  -46.1280  -29.5808 C.2     1  UNL1        0.2443
     30 O         -65.4713  -45.7027  -29.1750 O.2     1  UNL1       -0.2730
     31 N         -64.2827  -47.3303  -30.3670 N.am    1  UNL1       -0.2825
     32 H         -63.3671  -47.8344  -30.3793 H       1  UNL1        0.1549
     33 C         -65.3542  -47.8882  -31.1528 C.ar    1  UNL1        0.0535
     34 C         -65.6675  -47.4175  -32.4414 C.ar    1  UNL1        0.0353
     35 C         -66.6803  -48.0380  -33.1768 C.ar    1  UNL1        0.1002
     36 N         -67.3549  -49.0953  -32.6545 N.ar    1  UNL1       -0.2422
     37 C         -67.0688  -49.5795  -31.4179 C.ar    1  UNL1        0.1002
     38 C         -66.0618  -48.9904  -30.6504 C.ar    1  UNL1        0.0353
     39 C         -62.6425  -44.3502  -30.2494 C.3     1  UNL1        0.0569
     40 C         -62.1698  -43.1591  -33.2878 C.3     1  UNL1        0.0311
     41 C         -60.8042  -43.6924  -32.9628 C.ar    1  UNL1       -0.0207
     42 C         -59.7998  -43.6776  -33.9575 C.ar    1  UNL1       -0.0042
     43 C         -58.4916  -44.1125  -33.6733 C.ar    1  UNL1        0.0012
     44 C         -58.1551  -44.5585  -32.3890 C.ar    1  UNL1        0.0169
     45 C         -59.1509  -44.5697  -31.4162 C.ar    1  UNL1        0.0560
     46 N         -59.0163  -44.9964  -30.1506 N.ar    1  UNL1       -0.3523
     47 C         -60.2356  -44.8901  -29.5871 C.ar    1  UNL1        0.0681
     48 C         -61.1566  -44.3830  -30.4982 C.ar    1  UNL1       -0.0020
     49 C         -60.4442  -44.1692  -31.6822 C.ar    1  UNL1        0.0092
     50 H         -58.1526  -45.3736  -29.7007 H       1  UNL1        0.1660
@<TRIPOS>BOND
     1    40    41    1
     2    41    42   ar
     3    42    43   ar
     4    43    44   ar
     5    44    45   ar
     6    45    46   ar
     7    46    47   ar
     8    47    48   ar
     9    48    39    1
    10    39    28    1
    11    28     1    1
    12     1     2   am
    13     2     3    2
    14     2     5    1
    15     5     6   ar
    16     6     7   ar
    17     7     8   ar
    18     8    12    1
    19    12    13    1
    20    13    14    1
    21    14    15    1
    22    15    18    1
    23    18    19   ar
    24    19    20   ar
    25    20    21   ar
    26    21    24    1
    27    24    25    1
    28    24    26    1
    29    24    27    1
    30    21    22   ar
    31    22    23   ar
    32    15    16    1
    33    16    17    1
    34     8     9   ar
    35     9    10   ar
    36    10    11    1
    37    28    29    1
    38    29    30    2
    39    29    31   am
    40    31    33    1
    41    33    34   ar
    42    34    35   ar
    43    35    36   ar
    44    36    37   ar
    45    37    38   ar
    46    48    49   ar
    47    49    41   ar
    48    49    45   ar
    49    10     5   ar
    50    38    33   ar
    51    17    12    1
    52    23    18   ar
    53    46    50    1
    54     1     4    1
    55    31    32    1
@<TRIPOS>MOLECULE
*****
 50 55 0 0 0
SMALL
GASTEIGER

@<TRIPOS>ATOM
      1 N         -62.8799  -45.6211  -27.3269 N.am    1  UNL1       -0.2945
      2 C         -62.1190  -45.9084  -26.1376 C.2     1  UNL1        0.2483
      3 O         -61.3604  -46.9146  -26.0956 O.2     1  UNL1       -0.2701
      4 H         -63.6211  -44.8868  -27.2715 H       1  UNL1        0.1501
      5 C         -62.2317  -45.0452  -24.9408 C.ar    1  UNL1        0.0808
      6 C         -62.0170  -45.5962  -23.6666 C.ar    1  UNL1        0.0080
      7 C         -62.1194  -44.8013  -22.5220 C.ar    1  UNL1        0.0148
      8 C         -62.4329  -43.4382  -22.6297 C.ar    1  UNL1        0.0502
      9 C         -62.6247  -42.8797  -23.9031 C.ar    1  UNL1        0.0443
     10 C         -62.5231  -43.6718  -25.0511 C.ar    1  UNL1        0.1457
     11 F         -62.6546  -43.0802  -26.2654 F       1  UNL1       -0.2040
     12 N         -62.5266  -42.6150  -21.4521 N.pl3   1  UNL1       -0.3040
     13 C         -63.7111  -42.6791  -20.5896 C.3     1  UNL1        0.1123
     14 C         -64.2662  -41.2700  -20.3828 C.3     1  UNL1        0.1136
     15 N         -63.2080  -40.3279  -19.9835 N.pl3   1  UNL1       -0.2897
     16 C         -61.8017  -40.7649  -19.9456 C.3     1  UNL1        0.1136
     17 C         -61.4651  -41.6397  -21.1628 C.3     1  UNL1        0.1123
     18 C         -63.5938  -39.0102  -19.5404 C.ar    1  UNL1        0.1318
     19 C         -64.5574  -38.8272  -18.5343 C.ar    1  UNL1        0.0343
     20 C         -64.9104  -37.5345  -18.1439 C.ar    1  UNL1        0.0083
     21 C         -64.3278  -36.4225  -18.7698 C.ar    1  UNL1        0.0906
     22 C         -63.3607  -36.6472  -19.7615 C.ar    1  UNL1        0.1041
     23 N         -63.0308  -37.9150  -20.1232 N.ar    1  UNL1       -0.2292
     24 C         -64.6638  -35.0225  -18.3233 C.3     1  UNL1        0.4200
     25 F         -65.2582  -35.0381  -17.0734 F       1  UNL1       -0.1658
     26 F         -63.5033  -34.2740  -18.2609 F       1  UNL1       -0.1658
     27 F         -65.5398  -34.4234  -19.2119 F       1  UNL1       -0.1658
     28 C         -62.7455  -46.3301  -28.6085 C.3     1  UNL1        0.1535
     29 C         -64.0931  -46.6045  -29.2459 C.2     1  UNL1        0.2443
     30 O         -65.0394  -45.7821  -29.1172 O.2     1  UNL1       -0.2730
     31 N         -64.2958  -47.8354  -29.9620 N.am    1  UNL1       -0.2825
     32 H         -63.6396  -48.6213  -29.7511 H       1  UNL1        0.1549
     33 C         -65.3113  -48.0720  -30.9567 C.ar    1  UNL1        0.0535
     34 C         -65.3763  -47.3390  -32.1562 C.ar    1  UNL1        0.0353
     35 C         -66.3495  -47.6545  -33.1074 C.ar    1  UNL1        0.1002
     36 N         -67.2246  -48.6685  -32.8799 N.ar    1  UNL1       -0.2422
     37 C         -67.1808  -49.4013  -31.7369 C.ar    1  UNL1        0.1002
     38 C         -66.2220  -49.1210  -30.7611 C.ar    1  UNL1        0.0353
     39 C         -61.7596  -45.6011  -29.5510 C.3     1  UNL1        0.0569
     40 C         -63.8723  -43.3887  -30.7821 C.3     1  UNL1        0.0311
     41 C         -62.8354  -42.4959  -30.1633 C.ar    1  UNL1       -0.0207
     42 C         -62.9289  -41.0970  -30.3437 C.ar    1  UNL1       -0.0042
     43 C         -62.0115  -40.2239  -29.7294 C.ar    1  UNL1        0.0012
     44 C         -60.9906  -40.7267  -28.9129 C.ar    1  UNL1        0.0169
     45 C         -60.9064  -42.1057  -28.7416 C.ar    1  UNL1        0.0560
     46 N         -59.9761  -42.7592  -28.0279 N.ar    1  UNL1       -0.3523
     47 C         -60.2346  -44.0720  -28.1873 C.ar    1  UNL1        0.0681
     48 C         -61.3454  -44.2595  -29.0037 C.ar    1  UNL1       -0.0020
     49 C         -61.7823  -42.9783  -29.3541 C.ar    1  UNL1        0.0092
     50 H         -59.1854  -42.3407  -27.4891 H       1  UNL1        0.1660
@<TRIPOS>BOND
     1    40    41    1
     2    41    42   ar
     3    42    43   ar
     4    43    44   ar
     5    44    45   ar
     6    45    46   ar
     7    46    47   ar
     8    47    48   ar
     9    48    39    1
    10    39    28    1
    11    28     1    1
    12     1     2   am
    13     2     3    2
    14     2     5    1
    15     5     6   ar
    16     6     7   ar
    17     7     8   ar
    18     8    12    1
    19    12    13    1
    20    13    14    1
    21    14    15    1
    22    15    18    1
    23    18    19   ar
    24    19    20   ar
    25    20    21   ar
    26    21    24    1
    27    24    25    1
    28    24    26    1
    29    24    27    1
    30    21    22   ar
    31    22    23   ar
    32    15    16    1
    33    16    17    1
    34     8     9   ar
    35     9    10   ar
    36    10    11    1
    37    28    29    1
    38    29    30    2
    39    29    31   am
    40    31    33    1
    41    33    34   ar
    42    34    35   ar
    43    35    36   ar
    44    36    37   ar
    45    37    38   ar
    46    48    49   ar
    47    49    41   ar
    48    49    45   ar
    49    10     5   ar
    50    38    33   ar
    51    17    12    1
    52    23    18   ar
    53    46    50    1
    54     1     4    1
    55    31    32    1
@<TRIPOS>MOLECULE
*****
 50 55 0 0 0
SMALL
GASTEIGER

@<TRIPOS>ATOM
      1 N         -60.6456  -44.5156  -27.1177 N.am    1  UNL1       -0.2945
      2 C         -60.5995  -45.1401  -25.8200 C.2     1  UNL1        0.2483
      3 O         -60.1136  -46.2959  -25.6876 O.2     1  UNL1       -0.2701
      4 H         -61.2038  -43.6385  -27.2221 H       1  UNL1        0.1501
      5 C         -61.1409  -44.4492  -24.6286 C.ar    1  UNL1        0.0808
      6 C         -60.9855  -43.0586  -24.5040 C.ar    1  UNL1        0.0080
      7 C         -61.4868  -42.3845  -23.3874 C.ar    1  UNL1        0.0148
      8 C         -62.1587  -43.0873  -22.3762 C.ar    1  UNL1        0.0502
      9 C         -62.3362  -44.4733  -22.5094 C.ar    1  UNL1        0.0443
     10 C         -61.8360  -45.1516  -23.6253 C.ar    1  UNL1        0.1457
     11 F         -62.0830  -46.4806  -23.7454 F       1  UNL1       -0.2040
     12 N         -62.6868  -42.3924  -21.2310 N.pl3   1  UNL1       -0.3040
     13 C         -64.1347  -42.2423  -21.0520 C.3     1  UNL1        0.1123
     14 C         -64.4694  -40.7673  -20.8303 C.3     1  UNL1        0.1136
     15 N         -63.6100  -40.1701  -19.7952 N.pl3   1  UNL1       -0.2897
     16 C         -62.5093  -40.9507  -19.2042 C.3     1  UNL1        0.1136
     17 C         -61.7639  -41.7528  -20.2818 C.3     1  UNL1        0.1123
     18 C         -63.9346  -38.8502  -19.3114 C.ar    1  UNL1        0.1318
     19 C         -64.9168  -38.6506  -18.3267 C.ar    1  UNL1        0.0343
     20 C         -65.2084  -37.3555  -17.8957 C.ar    1  UNL1        0.0083
     21 C         -64.5453  -36.2559  -18.4602 C.ar    1  UNL1        0.0906
     22 C         -63.5625  -36.4978  -19.4321 C.ar    1  UNL1        0.1041
     23 N         -63.2933  -37.7678  -19.8341 N.ar    1  UNL1       -0.2292
     24 C         -64.8157  -34.8568  -17.9683 C.3     1  UNL1        0.4200
     25 F         -65.2052  -34.8729  -16.6402 F       1  UNL1       -0.1658
     26 F         -63.6649  -34.1009  -18.0912 F       1  UNL1       -0.1658
     27 F         -65.8251  -34.2654  -18.7083 F       1  UNL1       -0.1658
     28 C         -60.0219  -45.0520  -28.3369 C.3     1  UNL1        0.1535
     29 C         -60.8480  -46.1646  -28.9511 C.2     1  UNL1        0.2443
     30 O         -60.2863  -47.1187  -29.5533 O.2     1  UNL1       -0.2730
     31 N         -62.2830  -46.0981  -28.8793 N.am    1  UNL1       -0.2825
     32 H         -62.7068  -45.1589  -28.7033 H       1  UNL1        0.1549
     33 C         -63.1841  -47.2151  -29.0101 C.ar    1  UNL1        0.0535
     34 C         -64.1196  -47.3099  -30.0571 C.ar    1  UNL1        0.0353
     35 C         -64.9261  -48.4456  -30.1629 C.ar    1  UNL1        0.1002
     36 N         -64.8036  -49.4573  -29.2645 N.ar    1  UNL1       -0.2422
     37 C         -63.9029  -49.4003  -28.2491 C.ar    1  UNL1        0.1002
     38 C         -63.0752  -48.2844  -28.1086 C.ar    1  UNL1        0.0353
     39 C         -59.6799  -43.9211  -29.3349 C.3     1  UNL1        0.0569
     40 C         -58.4029  -44.7613  -32.2567 C.3     1  UNL1        0.0311
     41 C         -59.7024  -44.1329  -32.6710 C.ar    1  UNL1       -0.0207
     42 C         -59.9785  -43.9545  -34.0458 C.ar    1  UNL1       -0.0042
     43 C         -61.2101  -43.4253  -34.4752 C.ar    1  UNL1        0.0012
     44 C         -62.1958  -43.0755  -33.5436 C.ar    1  UNL1        0.0169
     45 C         -61.9146  -43.2545  -32.1920 C.ar    1  UNL1        0.0560
     46 N         -62.7229  -42.9413  -31.1671 N.ar    1  UNL1       -0.3523
     47 C         -62.0306  -43.2186  -30.0449 C.ar    1  UNL1        0.0681
     48 C         -60.7710  -43.7214  -30.3550 C.ar    1  UNL1       -0.0020
     49 C         -60.7046  -43.7500  -31.7513 C.ar    1  UNL1        0.0092
     50 H         -63.6804  -42.5281  -31.2226 H       1  UNL1        0.1660
@<TRIPOS>BOND
     1    40    41    1
     2    41    42   ar
     3    42    43   ar
     4    43    44   ar
     5    44    45   ar
     6    45    46   ar
     7    46    47   ar
     8    47    48   ar
     9    48    39    1
    10    39    28    1
    11    28     1    1
    12     1     2   am
    13     2     3    2
    14     2     5    1
    15     5     6   ar
    16     6     7   ar
    17     7     8   ar
    18     8    12    1
    19    12    13    1
    20    13    14    1
    21    14    15    1
    22    15    18    1
    23    18    19   ar
    24    19    20   ar
    25    20    21   ar
    26    21    24    1
    27    24    25    1
    28    24    26    1
    29    24    27    1
    30    21    22   ar
    31    22    23   ar
    32    15    16    1
    33    16    17    1
    34     8     9   ar
    35     9    10   ar
    36    10    11    1
    37    28    29    1
    38    29    30    2
    39    29    31   am
    40    31    33    1
    41    33    34   ar
    42    34    35   ar
    43    35    36   ar
    44    36    37   ar
    45    37    38   ar
    46    48    49   ar
    47    49    41   ar
    48    49    45   ar
    49    10     5   ar
    50    38    33   ar
    51    17    12    1
    52    23    18   ar
    53    46    50    1
    54     1     4    1
    55    31    32    1
@<TRIPOS>MOLECULE
*****
 50 55 0 0 0
SMALL
GASTEIGER

@<TRIPOS>ATOM
      1 N         -61.9564  -49.1245  -23.8417 N.am    1  UNL1       -0.2945
      2 C         -61.6285  -50.5260  -23.7749 C.2     1  UNL1        0.2483
      3 O         -60.4275  -50.9023  -23.8500 O.2     1  UNL1       -0.2701
      4 H         -62.9612  -48.8588  -23.9483 H       1  UNL1        0.1501
      5 C         -62.6924  -51.5460  -23.6416 C.ar    1  UNL1        0.0808
      6 C         -63.8227  -51.4808  -24.4731 C.ar    1  UNL1        0.0080
      7 C         -64.8408  -52.4316  -24.3647 C.ar    1  UNL1        0.0148
      8 C         -64.7456  -53.4700  -23.4263 C.ar    1  UNL1        0.0502
      9 C         -63.6064  -53.5515  -22.6104 C.ar    1  UNL1        0.0443
     10 C         -62.5853  -52.6018  -22.7158 C.ar    1  UNL1        0.1457
     11 F         -61.4735  -52.7521  -21.9522 F       1  UNL1       -0.2040
     12 N         -65.7881  -54.4578  -23.3219 N.pl3   1  UNL1       -0.3040
     13 C         -66.7062  -54.6943  -24.4407 C.3     1  UNL1        0.1123
     14 C         -68.1487  -54.5933  -23.9448 C.3     1  UNL1        0.1136
     15 N         -68.3595  -55.4035  -22.7341 N.pl3   1  UNL1       -0.2897
     16 C         -67.2226  -56.0827  -22.0891 C.3     1  UNL1        0.1136
     17 C         -65.9870  -55.1706  -22.0514 C.3     1  UNL1        0.1123
     18 C         -69.7094  -55.5919  -22.2610 C.ar    1  UNL1        0.1318
     19 C         -70.5775  -56.5151  -22.8678 C.ar    1  UNL1        0.0343
     20 C         -71.8798  -56.6572  -22.3862 C.ar    1  UNL1        0.0083
     21 C         -72.3302  -55.8647  -21.3201 C.ar    1  UNL1        0.0906
     22 C         -71.4291  -54.9631  -20.7333 C.ar    1  UNL1        0.1041
     23 N         -70.1649  -54.8440  -21.2173 N.ar    1  UNL1       -0.2292
     24 C         -73.7179  -56.0436  -20.7589 C.3     1  UNL1        0.4200
     25 F         -74.6560  -56.0719  -21.7762 F       1  UNL1       -0.1658
     26 F         -73.7757  -57.2344  -20.0593 F       1  UNL1       -0.1658
     27 F         -74.0371  -55.0024  -19.9044 F       1  UNL1       -0.1658
     28 C         -60.9781  -48.0263  -23.8408 C.3     1  UNL1        0.1535
     29 C         -61.4570  -46.8430  -24.6582 C.2     1  UNL1        0.2443
     30 O         -62.6144  -46.3748  -24.4859 O.2     1  UNL1       -0.2730
     31 N         -60.5934  -46.2871  -25.6652 N.am    1  UNL1       -0.2825
     32 H         -59.8210  -46.8968  -26.0179 H       1  UNL1        0.1549
     33 C         -60.6893  -44.9585  -26.2150 C.ar    1  UNL1        0.0535
     34 C         -60.8348  -43.8168  -25.4053 C.ar    1  UNL1        0.0353
     35 C         -60.8638  -42.5505  -25.9945 C.ar    1  UNL1        0.1002
     36 N         -60.7448  -42.4202  -27.3415 N.ar    1  UNL1       -0.2422
     37 C         -60.5926  -43.5020  -28.1490 C.ar    1  UNL1        0.1002
     38 C         -60.5556  -44.7858  -27.6008 C.ar    1  UNL1        0.0353
     39 C         -60.5631  -47.6473  -22.4000 C.3     1  UNL1        0.0569
     40 C         -62.3828  -45.1681  -21.2101 C.3     1  UNL1        0.0311
     41 C         -61.1595  -44.4370  -21.6837 C.ar    1  UNL1       -0.0207
     42 C         -61.1336  -43.0245  -21.6334 C.ar    1  UNL1       -0.0042
     43 C         -59.9833  -42.3067  -22.0111 C.ar    1  UNL1        0.0012
     44 C         -58.8319  -42.9825  -22.4342 C.ar    1  UNL1        0.0169
     45 C         -58.8670  -44.3735  -22.4807 C.ar    1  UNL1        0.0560
     46 N         -57.8739  -45.1769  -22.8931 N.ar    1  UNL1       -0.3523
     47 C         -58.3585  -46.4329  -22.8343 C.ar    1  UNL1        0.0681
     48 C         -59.6707  -46.4332  -22.3721 C.ar    1  UNL1       -0.0020
     49 C         -59.9928  -45.0931  -22.1365 C.ar    1  UNL1        0.0092
     50 H         -56.9286  -44.8889  -23.2307 H       1  UNL1        0.1660
@<TRIPOS>BOND
     1    40    41    1
     2    41    42   ar
     3    42    43   ar
     4    43    44   ar
     5    44    45   ar
     6    45    46   ar
     7    46    47   ar
     8    47    48   ar
     9    48    39    1
    10    39    28    1
    11    28     1    1
    12     1     2   am
    13     2     3    2
    14     2     5    1
    15     5     6   ar
    16     6     7   ar
    17     7     8   ar
    18     8    12    1
    19    12    13    1
    20    13    14    1
    21    14    15    1
    22    15    18    1
    23    18    19   ar
    24    19    20   ar
    25    20    21   ar
    26    21    24    1
    27    24    25    1
    28    24    26    1
    29    24    27    1
    30    21    22   ar
    31    22    23   ar
    32    15    16    1
    33    16    17    1
    34     8     9   ar
    35     9    10   ar
    36    10    11    1
    37    28    29    1
    38    29    30    2
    39    29    31   am
    40    31    33    1
    41    33    34   ar
    42    34    35   ar
    43    35    36   ar
    44    36    37   ar
    45    37    38   ar
    46    48    49   ar
    47    49    41   ar
    48    49    45   ar
    49    10     5   ar
    50    38    33   ar
    51    17    12    1
    52    23    18   ar
    53    46    50    1
    54     1     4    1
    55    31    32    1
@<TRIPOS>MOLECULE
*****
 50 55 0 0 0
SMALL
GASTEIGER

@<TRIPOS>ATOM
      1 N         -61.8136  -44.7326  -25.6686 N.am    1  UNL1       -0.2945
      2 C         -61.0487  -45.6095  -24.8188 C.2     1  UNL1        0.2483
      3 O         -60.0055  -45.1907  -24.2477 O.2     1  UNL1       -0.2701
      4 H         -62.5679  -45.1525  -26.2571 H       1  UNL1        0.1501
      5 C         -61.4583  -47.0176  -24.6208 C.ar    1  UNL1        0.0808
      6 C         -62.6832  -47.4630  -25.1448 C.ar    1  UNL1        0.0080
      7 C         -63.0919  -48.7875  -24.9693 C.ar    1  UNL1        0.0148
      8 C         -62.2807  -49.6945  -24.2712 C.ar    1  UNL1        0.0502
      9 C         -61.0455  -49.2585  -23.7671 C.ar    1  UNL1        0.0443
     10 C         -60.6328  -47.9336  -23.9406 C.ar    1  UNL1        0.1457
     11 F         -59.4050  -47.5689  -23.4919 F       1  UNL1       -0.2040
     12 N         -62.6947  -51.0629  -24.1003 N.pl3   1  UNL1       -0.3040
     13 C         -63.3077  -51.8008  -25.2097 C.3     1  UNL1        0.1123
     14 C         -64.6332  -52.4057  -24.7471 C.3     1  UNL1        0.1136
     15 N         -64.4790  -53.1314  -23.4757 N.pl3   1  UNL1       -0.2897
     16 C         -63.1930  -53.1042  -22.7576 C.3     1  UNL1        0.1136
     17 C         -62.5822  -51.6947  -22.7774 C.3     1  UNL1        0.1123
     18 C         -65.5787  -53.9409  -23.0100 C.ar    1  UNL1        0.1318
     19 C         -65.3774  -55.0119  -22.1231 C.ar    1  UNL1        0.0343
     20 C         -66.4678  -55.7773  -21.7068 C.ar    1  UNL1        0.0083
     21 C         -67.7543  -55.4979  -22.1910 C.ar    1  UNL1        0.0906
     22 C         -67.9156  -54.4125  -23.0657 C.ar    1  UNL1        0.1041
     23 N         -66.8395  -53.6794  -23.4548 N.ar    1  UNL1       -0.2292
     24 C         -68.9466  -56.2855  -21.7110 C.3     1  UNL1        0.4200
     25 F         -70.0115  -55.4433  -21.4412 F       1  UNL1       -0.1658
     26 F         -69.3214  -57.1860  -22.6905 F       1  UNL1       -0.1658
     27 F         -68.6396  -56.9797  -20.5535 F       1  UNL1       -0.1658
     28 C         -61.5740  -43.2905  -25.8299 C.3     1  UNL1        0.1535
     29 C         -61.0437  -42.6604  -24.5574 C.2     1  UNL1        0.2443
     30 O         -59.9991  -41.9556  -24.5814 O.2     1  UNL1       -0.2730
     31 N         -61.7192  -42.9118  -23.3126 N.am    1  UNL1       -0.2825
     32 H         -62.3375  -43.7535  -23.2692 H       1  UNL1        0.1549
     33 C         -61.6321  -42.0947  -22.1288 C.ar    1  UNL1        0.0535
     34 C         -60.7476  -42.3880  -21.0743 C.ar    1  UNL1        0.0353
     35 C         -60.6678  -41.5251  -19.9786 C.ar    1  UNL1        0.1002
     36 N         -61.4343  -40.4044  -19.9336 N.ar    1  UNL1       -0.2422
     37 C         -62.2898  -40.0882  -20.9404 C.ar    1  UNL1        0.1002
     38 C         -62.3984  -40.9219  -22.0554 C.ar    1  UNL1        0.0353
     39 C         -60.6926  -43.0044  -27.0681 C.3     1  UNL1        0.0569
     40 C         -59.5947  -45.0030  -29.4501 C.3     1  UNL1        0.0311
     41 C         -60.4981  -44.0871  -30.2248 C.ar    1  UNL1       -0.0207
     42 C         -60.5572  -44.2002  -31.6326 C.ar    1  UNL1       -0.0042
     43 C         -61.4363  -43.4014  -32.3878 C.ar    1  UNL1        0.0012
     44 C         -62.2831  -42.4833  -31.7539 C.ar    1  UNL1        0.0169
     45 C         -62.2175  -42.3789  -30.3672 C.ar    1  UNL1        0.0560
     46 N         -62.9250  -41.5320  -29.6030 N.ar    1  UNL1       -0.3523
     47 C         -62.5017  -41.7249  -28.3384 C.ar    1  UNL1        0.0681
     48 C         -61.5204  -42.7100  -28.2925 C.ar    1  UNL1       -0.0020
     49 C         -61.3459  -43.1368  -29.6125 C.ar    1  UNL1        0.0092
     50 H         -63.6327  -40.8342  -29.9236 H       1  UNL1        0.1660
@<TRIPOS>BOND
     1    40    41    1
     2    41    42   ar
     3    42    43   ar
     4    43    44   ar
     5    44    45   ar
     6    45    46   ar
     7    46    47   ar
     8    47    48   ar
     9    48    39    1
    10    39    28    1
    11    28     1    1
    12     1     2   am
    13     2     3    2
    14     2     5    1
    15     5     6   ar
    16     6     7   ar
    17     7     8   ar
    18     8    12    1
    19    12    13    1
    20    13    14    1
    21    14    15    1
    22    15    18    1
    23    18    19   ar
    24    19    20   ar
    25    20    21   ar
    26    21    24    1
    27    24    25    1
    28    24    26    1
    29    24    27    1
    30    21    22   ar
    31    22    23   ar
    32    15    16    1
    33    16    17    1
    34     8     9   ar
    35     9    10   ar
    36    10    11    1
    37    28    29    1
    38    29    30    2
    39    29    31   am
    40    31    33    1
    41    33    34   ar
    42    34    35   ar
    43    35    36   ar
    44    36    37   ar
    45    37    38   ar
    46    48    49   ar
    47    49    41   ar
    48    49    45   ar
    49    10     5   ar
    50    38    33   ar
    51    17    12    1
    52    23    18   ar
    53    46    50    1
    54     1     4    1
    55    31    32    1
@<TRIPOS>MOLECULE
*****
 50 55 0 0 0
SMALL
GASTEIGER

@<TRIPOS>ATOM
      1 N         -62.4777  -46.6448  -25.7189 N.am    1  UNL1       -0.2945
      2 C         -61.6347  -46.5529  -24.5540 C.2     1  UNL1        0.2483
      3 O         -60.8888  -47.5168  -24.2313 O.2     1  UNL1       -0.2701
      4 H         -63.2028  -45.9062  -25.8611 H       1  UNL1        0.1501
      5 C         -61.6468  -45.3404  -23.7056 C.ar    1  UNL1        0.0808
      6 C         -62.0000  -45.4468  -22.3502 C.ar    1  UNL1        0.0080
      7 C         -62.0201  -44.3159  -21.5299 C.ar    1  UNL1        0.0148
      8 C         -61.6815  -43.0569  -22.0478 C.ar    1  UNL1        0.0502
      9 C         -61.3053  -42.9512  -23.3959 C.ar    1  UNL1        0.0443
     10 C         -61.2839  -44.0808  -24.2202 C.ar    1  UNL1        0.1457
     11 F         -60.8549  -43.9456  -25.5006 F       1  UNL1       -0.2040
     12 N         -61.6896  -41.8925  -21.2008 N.pl3   1  UNL1       -0.3040
     13 C         -62.2548  -41.9574  -19.8491 C.3     1  UNL1        0.1123
     14 C         -63.2849  -40.8415  -19.6746 C.3     1  UNL1        0.1136
     15 N         -62.7469  -39.5405  -20.1043 N.pl3   1  UNL1       -0.2897
     16 C         -61.4164  -39.4588  -20.7313 C.3     1  UNL1        0.1136
     17 C         -61.2078  -40.6079  -21.7295 C.3     1  UNL1        0.1123
     18 C         -63.5078  -38.3513  -19.8070 C.ar    1  UNL1        0.1318
     19 C         -64.8430  -38.4232  -19.3754 C.ar    1  UNL1        0.0343
     20 C         -65.5467  -37.2474  -19.1103 C.ar    1  UNL1        0.0083
     21 C         -64.9353  -35.9992  -19.2990 C.ar    1  UNL1        0.0906
     22 C         -63.5968  -35.9699  -19.7194 C.ar    1  UNL1        0.1041
     23 N         -62.9306  -37.1279  -19.9686 N.ar    1  UNL1       -0.2292
     24 C         -65.6682  -34.7238  -18.9690 C.3     1  UNL1        0.4200
     25 F         -65.5137  -34.4042  -17.6311 F       1  UNL1       -0.1658
     26 F         -65.1603  -33.6948  -19.7396 F       1  UNL1       -0.1658
     27 F         -67.0213  -34.8568  -19.2289 F       1  UNL1       -0.1658
     28 C         -62.4483  -47.7406  -26.6996 C.3     1  UNL1        0.1535
     29 C         -63.1373  -48.9852  -26.1764 C.2     1  UNL1        0.2443
     30 O         -63.8525  -49.6877  -26.9403 O.2     1  UNL1       -0.2730
     31 N         -63.0039  -49.3326  -24.7870 N.am    1  UNL1       -0.2825
     32 H         -62.7192  -48.5695  -24.1317 H       1  UNL1        0.1549
     33 C         -63.2098  -50.6433  -24.2245 C.ar    1  UNL1        0.0535
     34 C         -64.2714  -51.4763  -24.6240 C.ar    1  UNL1        0.0353
     35 C         -64.3842  -52.7596  -24.0837 C.ar    1  UNL1        0.1002
     36 N         -63.4700  -53.2049  -23.1827 N.ar    1  UNL1       -0.2422
     37 C         -62.4283  -52.4289  -22.7851 C.ar    1  UNL1        0.1002
     38 C         -62.2767  -51.1407  -23.3026 C.ar    1  UNL1        0.0353
     39 C         -62.9840  -47.2763  -28.0742 C.3     1  UNL1        0.0569
     40 C         -64.9758  -45.4200  -29.9343 C.3     1  UNL1        0.0311
     41 C         -63.6259  -44.8948  -30.3306 C.ar    1  UNL1       -0.0207
     42 C         -63.5311  -43.9411  -31.3697 C.ar    1  UNL1       -0.0042
     43 C         -62.2908  -43.3807  -31.7283 C.ar    1  UNL1        0.0012
     44 C         -61.1223  -43.7498  -31.0500 C.ar    1  UNL1        0.0169
     45 C         -61.2255  -44.6898  -30.0284 C.ar    1  UNL1        0.0560
     46 N         -60.2107  -45.1835  -29.3016 N.ar    1  UNL1       -0.3523
     47 C         -60.7512  -46.1042  -28.4794 C.ar    1  UNL1        0.0681
     48 C         -62.1254  -46.1942  -28.6766 C.ar    1  UNL1       -0.0020
     49 C         -62.4289  -45.2672  -29.6784 C.ar    1  UNL1        0.0092
     50 H         -59.1992  -44.9365  -29.3813 H       1  UNL1        0.1660
@<TRIPOS>BOND
     1    40    41    1
     2    41    42   ar
     3    42    43   ar
     4    43    44   ar
     5    44    45   ar
     6    45    46   ar
     7    46    47   ar
     8    47    48   ar
     9    48    39    1
    10    39    28    1
    11    28     1    1
    12     1     2   am
    13     2     3    2
    14     2     5    1
    15     5     6   ar
    16     6     7   ar
    17     7     8   ar
    18     8    12    1
    19    12    13    1
    20    13    14    1
    21    14    15    1
    22    15    18    1
    23    18    19   ar
    24    19    20   ar
    25    20    21   ar
    26    21    24    1
    27    24    25    1
    28    24    26    1
    29    24    27    1
    30    21    22   ar
    31    22    23   ar
    32    15    16    1
    33    16    17    1
    34     8     9   ar
    35     9    10   ar
    36    10    11    1
    37    28    29    1
    38    29    30    2
    39    29    31   am
    40    31    33    1
    41    33    34   ar
    42    34    35   ar
    43    35    36   ar
    44    36    37   ar
    45    37    38   ar
    46    48    49   ar
    47    49    41   ar
    48    49    45   ar
    49    10     5   ar
    50    38    33   ar
    51    17    12    1
    52    23    18   ar
    53    46    50    1
    54     1     4    1
    55    31    32    1
@<TRIPOS>MOLECULE
*****
 50 55 0 0 0
SMALL
GASTEIGER

@<TRIPOS>ATOM
      1 N         -61.4199  -44.9999  -25.7680 N.am    1  UNL1       -0.2945
      2 C         -60.7807  -45.9067  -24.8487 C.2     1  UNL1        0.2483
      3 O         -59.7609  -45.5431  -24.2027 O.2     1  UNL1       -0.2701
      4 H         -62.1510  -45.3829  -26.4087 H       1  UNL1        0.1501
      5 C         -61.2928  -47.2829  -24.6648 C.ar    1  UNL1        0.0808
      6 C         -60.5379  -48.2102  -23.9275 C.ar    1  UNL1        0.0080
      7 C         -61.0001  -49.5156  -23.7418 C.ar    1  UNL1        0.0148
      8 C         -62.2294  -49.9178  -24.2850 C.ar    1  UNL1        0.0502
      9 C         -62.9969  -48.9867  -25.0021 C.ar    1  UNL1        0.0443
     10 C         -62.5378  -47.6792  -25.1902 C.ar    1  UNL1        0.1457
     11 F         -63.3381  -46.7936  -25.8359 F       1  UNL1       -0.2040
     12 N         -62.7130  -51.2591  -24.0840 N.pl3   1  UNL1       -0.3040
     13 C         -63.3385  -51.9992  -25.1848 C.3     1  UNL1        0.1123
     14 C         -64.7010  -52.5256  -24.7340 C.3     1  UNL1        0.1136
     15 N         -64.6081  -53.2199  -23.4394 N.pl3   1  UNL1       -0.2897
     16 C         -63.3373  -53.2333  -22.6946 C.3     1  UNL1        0.1136
     17 C         -62.6583  -51.8560  -22.7415 C.3     1  UNL1        0.1123
     18 C         -65.7552  -53.9614  -22.9746 C.ar    1  UNL1        0.1318
     19 C         -65.6160  -55.0726  -22.1261 C.ar    1  UNL1        0.0343
     20 C         -66.7515  -55.7693  -21.7097 C.ar    1  UNL1        0.0083
     21 C         -68.0232  -55.3808  -22.1562 C.ar    1  UNL1        0.0906
     22 C         -68.1212  -54.2586  -22.9930 C.ar    1  UNL1        0.1041
     23 N         -67.0018  -53.5940  -23.3830 N.ar    1  UNL1       -0.2292
     24 C         -69.2607  -56.0942  -21.6745 C.3     1  UNL1        0.4200
     25 F         -70.3061  -55.2018  -21.5107 F       1  UNL1       -0.1658
     26 F         -69.6258  -57.0501  -22.6039 F       1  UNL1       -0.1658
     27 F         -69.0257  -56.7134  -20.4590 F       1  UNL1       -0.1658
     28 C         -61.0778  -43.5786  -25.9293 C.3     1  UNL1        0.1535
     29 C         -60.8279  -43.2191  -27.3805 C.2     1  UNL1        0.2443
     30 O         -60.3381  -42.0986  -27.6853 O.2     1  UNL1       -0.2730
     31 N         -61.1976  -44.1523  -28.4108 N.am    1  UNL1       -0.2825
     32 H         -61.9017  -44.8829  -28.1596 H       1  UNL1        0.1549
     33 C         -60.6681  -44.1785  -29.7508 C.ar    1  UNL1        0.0535
     34 C         -59.4530  -44.8134  -30.0685 C.ar    1  UNL1        0.0353
     35 C         -59.0212  -44.8549  -31.3963 C.ar    1  UNL1        0.1002
     36 N         -59.7732  -44.2921  -32.3778 N.ar    1  UNL1       -0.2422
     37 C         -60.9555  -43.6814  -32.1047 C.ar    1  UNL1        0.1002
     38 C         -61.4254  -43.6200  -30.7912 C.ar    1  UNL1        0.0353
     39 C         -62.1252  -42.6694  -25.2450 C.3     1  UNL1        0.0569
     40 C         -64.6328  -40.9488  -23.9703 C.3     1  UNL1        0.0311
     41 C         -63.5885  -40.7848  -22.9037 C.ar    1  UNL1       -0.0207
     42 C         -63.8474  -39.9330  -21.8057 C.ar    1  UNL1       -0.0042
     43 C         -62.9187  -39.8004  -20.7563 C.ar    1  UNL1        0.0012
     44 C         -61.7196  -40.5238  -20.7740 C.ar    1  UNL1        0.0169
     45 C         -61.4733  -41.3598  -21.8596 C.ar    1  UNL1        0.0560
     46 N         -60.3676  -42.0946  -22.0579 N.ar    1  UNL1       -0.3523
     47 C         -60.5248  -42.6936  -23.2546 C.ar    1  UNL1        0.0681
     48 C         -61.7458  -42.3451  -23.8230 C.ar    1  UNL1       -0.0020
     49 C         -62.3610  -41.4849  -22.9084 C.ar    1  UNL1        0.0092
     50 H         -59.5336  -42.1604  -21.4328 H       1  UNL1        0.1660
@<TRIPOS>BOND
     1    40    41    1
     2    41    42   ar
     3    42    43   ar
     4    43    44   ar
     5    44    45   ar
     6    45    46   ar
     7    46    47   ar
     8    47    48   ar
     9    48    39    1
    10    39    28    1
    11    28     1    1
    12     1     2   am
    13     2     3    2
    14     2     5    1
    15     5     6   ar
    16     6     7   ar
    17     7     8   ar
    18     8    12    1
    19    12    13    1
    20    13    14    1
    21    14    15    1
    22    15    18    1
    23    18    19   ar
    24    19    20   ar
    25    20    21   ar
    26    21    24    1
    27    24    25    1
    28    24    26    1
    29    24    27    1
    30    21    22   ar
    31    22    23   ar
    32    15    16    1
    33    16    17    1
    34     8     9   ar
    35     9    10   ar
    36    10    11    1
    37    28    29    1
    38    29    30    2
    39    29    31   am
    40    31    33    1
    41    33    34   ar
    42    34    35   ar
    43    35    36   ar
    44    36    37   ar
    45    37    38   ar
    46    48    49   ar
    47    49    41   ar
    48    49    45   ar
    49    10     5   ar
    50    38    33   ar
    51    17    12    1
    52    23    18   ar
    53    46    50    1
    54     1     4    1
    55    31    32    1
@<TRIPOS>MOLECULE
*****
 50 55 0 0 0
SMALL
GASTEIGER

@<TRIPOS>ATOM
      1 N         -62.9702  -40.5749  -21.3309 N.am    1  UNL1       -0.2945
      2 C         -63.9850  -40.2518  -22.3014 C.2     1  UNL1        0.2483
      3 O         -64.9692  -39.5337  -21.9770 O.2     1  UNL1       -0.2701
      4 H         -62.2653  -41.3046  -21.5804 H       1  UNL1        0.1501
      5 C         -63.9034  -40.7744  -23.6834 C.ar    1  UNL1        0.0808
      6 C         -63.0380  -41.8433  -23.9700 C.ar    1  UNL1        0.0080
      7 C         -62.9428  -42.3526  -25.2676 C.ar    1  UNL1        0.0148
      8 C         -63.7157  -41.8067  -26.3032 C.ar    1  UNL1        0.0502
      9 C         -64.5987  -40.7544  -26.0152 C.ar    1  UNL1        0.0443
     10 C         -64.6970  -40.2418  -24.7177 C.ar    1  UNL1        0.1457
     11 F         -65.6073  -39.2664  -24.4691 F       1  UNL1       -0.2040
     12 N         -63.6279  -42.3386  -27.6384 N.pl3   1  UNL1       -0.3040
     13 C         -64.4785  -41.8094  -28.7095 C.3     1  UNL1        0.1123
     14 C         -65.2171  -42.9625  -29.3888 C.3     1  UNL1        0.1136
     15 N         -64.2959  -44.0512  -29.7533 N.pl3   1  UNL1       -0.2897
     16 C         -62.8805  -43.9915  -29.3494 C.3     1  UNL1        0.1136
     17 C         -62.7417  -43.4806  -27.9072 C.3     1  UNL1        0.1123
     18 C         -64.7900  -45.1163  -30.5918 C.ar    1  UNL1        0.1318
     19 C         -64.6740  -46.4638  -30.2112 C.ar    1  UNL1        0.0343
     20 C         -65.1545  -47.4639  -31.0580 C.ar    1  UNL1        0.0083
     21 C         -65.7259  -47.1295  -32.2946 C.ar    1  UNL1        0.0906
     22 C         -65.8345  -45.7719  -32.6329 C.ar    1  UNL1        0.1041
     23 N         -65.3622  -44.8153  -31.7909 N.ar    1  UNL1       -0.2292
     24 C         -66.2932  -48.1966  -33.1957 C.3     1  UNL1        0.4200
     25 F         -66.3711  -49.4074  -32.5294 F       1  UNL1       -0.1658
     26 F         -67.5608  -47.8231  -33.6012 F       1  UNL1       -0.1658
     27 F         -65.4942  -48.3679  -34.3129 F       1  UNL1       -0.1658
     28 C         -62.8830  -40.0062  -19.9773 C.3     1  UNL1        0.1535
     29 C         -63.9500  -38.9571  -19.7358 C.2     1  UNL1        0.2443
     30 O         -65.1028  -39.2951  -19.3547 O.2     1  UNL1       -0.2730
     31 N         -63.6478  -37.5739  -19.9896 N.am    1  UNL1       -0.2825
     32 H         -62.8401  -37.3724  -20.6220 H       1  UNL1        0.1549
     33 C         -64.3489  -36.4443  -19.4336 C.ar    1  UNL1        0.0535
     34 C         -65.6724  -36.1280  -19.7925 C.ar    1  UNL1        0.0353
     35 C         -66.3182  -35.0540  -19.1751 C.ar    1  UNL1        0.1002
     36 N         -65.6754  -34.3227  -18.2277 N.ar    1  UNL1       -0.2422
     37 C         -64.4017  -34.6095  -17.8520 C.ar    1  UNL1        0.1002
     38 C         -63.7206  -35.6763  -18.4419 C.ar    1  UNL1        0.0353
     39 C         -62.8639  -41.1186  -18.9029 C.3     1  UNL1        0.0569
     40 C         -60.1272  -42.0793  -20.4715 C.3     1  UNL1        0.0311
     41 C         -61.1115  -43.1161  -20.9310 C.ar    1  UNL1       -0.0207
     42 C         -60.7175  -44.0622  -21.9047 C.ar    1  UNL1       -0.0042
     43 C         -61.5915  -45.0860  -22.3160 C.ar    1  UNL1        0.0012
     44 C         -62.8706  -45.1951  -21.7559 C.ar    1  UNL1        0.0169
     45 C         -63.2497  -44.2587  -20.7980 C.ar    1  UNL1        0.0560
     46 N         -64.4428  -44.1904  -20.1867 N.ar    1  UNL1       -0.3523
     47 C         -64.3958  -43.1027  -19.3928 C.ar    1  UNL1        0.0681
     48 C         -63.1584  -42.4744  -19.4911 C.ar    1  UNL1       -0.0020
     49 C         -62.4154  -43.2346  -20.3993 C.ar    1  UNL1        0.0092
     50 H         -65.2598  -44.8259  -20.3254 H       1  UNL1        0.1660
@<TRIPOS>BOND
     1    40    41    1
     2    41    42   ar
     3    42    43   ar
     4    43    44   ar
     5    44    45   ar
     6    45    46   ar
     7    46    47   ar
     8    47    48   ar
     9    48    39    1
    10    39    28    1
    11    28     1    1
    12     1     2   am
    13     2     3    2
    14     2     5    1
    15     5     6   ar
    16     6     7   ar
    17     7     8   ar
    18     8    12    1
    19    12    13    1
    20    13    14    1
    21    14    15    1
    22    15    18    1
    23    18    19   ar
    24    19    20   ar
    25    20    21   ar
    26    21    24    1
    27    24    25    1
    28    24    26    1
    29    24    27    1
    30    21    22   ar
    31    22    23   ar
    32    15    16    1
    33    16    17    1
    34     8     9   ar
    35     9    10   ar
    36    10    11    1
    37    28    29    1
    38    29    30    2
    39    29    31   am
    40    31    33    1
    41    33    34   ar
    42    34    35   ar
    43    35    36   ar
    44    36    37   ar
    45    37    38   ar
    46    48    49   ar
    47    49    41   ar
    48    49    45   ar
    49    10     5   ar
    50    38    33   ar
    51    17    12    1
    52    23    18   ar
    53    46    50    1
    54     1     4    1
    55    31    32    1
@<TRIPOS>MOLECULE
*****
 50 55 0 0 0
SMALL
GASTEIGER

@<TRIPOS>ATOM
      1 N         -61.0415  -44.9548  -22.8583 N.am    1  UNL1       -0.2945
      2 C         -60.2579  -46.0681  -23.3300 C.2     1  UNL1        0.2483
      3 O         -59.0538  -45.9017  -23.6647 O.2     1  UNL1       -0.2701
      4 H         -62.0724  -45.0881  -22.7530 H       1  UNL1        0.1501
      5 C         -60.8563  -47.4161  -23.4523 C.ar    1  UNL1        0.0808
      6 C         -60.3796  -48.4616  -22.6443 C.ar    1  UNL1        0.0080
      7 C         -60.9278  -49.7430  -22.7430 C.ar    1  UNL1        0.0148
      8 C         -61.9679  -50.0026  -23.6479 C.ar    1  UNL1        0.0502
      9 C         -62.4623  -48.9544  -24.4397 C.ar    1  UNL1        0.0443
     10 C         -61.9163  -47.6705  -24.3439 C.ar    1  UNL1        0.1457
     11 F         -62.4643  -46.6721  -25.0819 F       1  UNL1       -0.2040
     12 N         -62.5424  -51.3196  -23.7421 N.pl3   1  UNL1       -0.3040
     13 C         -63.3233  -51.7102  -24.9204 C.3     1  UNL1        0.1123
     14 C         -64.6795  -52.2557  -24.4736 C.3     1  UNL1        0.1136
     15 N         -64.5304  -53.2671  -23.4145 N.pl3   1  UNL1       -0.2897
     16 C         -63.2038  -53.5476  -22.8386 C.3     1  UNL1        0.1136
     17 C         -62.4186  -52.2474  -22.6082 C.3     1  UNL1        0.1123
     18 C         -65.6896  -54.0361  -23.0319 C.ar    1  UNL1        0.1318
     19 C         -65.5794  -55.1694  -22.2086 C.ar    1  UNL1        0.0343
     20 C         -66.7251  -55.8920  -21.8724 C.ar    1  UNL1        0.0083
     21 C         -67.9771  -55.5069  -22.3743 C.ar    1  UNL1        0.0906
     22 C         -68.0470  -54.3625  -23.1834 C.ar    1  UNL1        0.1041
     23 N         -66.9182  -53.6728  -23.4951 N.ar    1  UNL1       -0.2292
     24 C         -69.2279  -56.2494  -21.9787 C.3     1  UNL1        0.4200
     25 F         -70.3093  -55.3874  -21.9200 F       1  UNL1       -0.1658
     26 F         -69.4872  -57.2344  -22.9133 F       1  UNL1       -0.1658
     27 F         -69.0745  -56.8368  -20.7348 F       1  UNL1       -0.1658
     28 C         -60.5158  -43.6108  -22.5743 C.3     1  UNL1        0.1535
     29 C         -61.1298  -42.5615  -23.4794 C.2     1  UNL1        0.2443
     30 O         -60.4013  -41.7073  -24.0522 O.2     1  UNL1       -0.2730
     31 N         -62.5582  -42.5215  -23.6432 N.am    1  UNL1       -0.2825
     32 H         -63.1342  -42.9877  -22.9059 H       1  UNL1        0.1549
     33 C         -63.2617  -41.9118  -24.7433 C.ar    1  UNL1        0.0535
     34 C         -62.9891  -42.2374  -26.0850 C.ar    1  UNL1        0.0353
     35 C         -63.7452  -41.6551  -27.1051 C.ar    1  UNL1        0.1002
     36 N         -64.7437  -40.7844  -26.8043 N.ar    1  UNL1       -0.2422
     37 C         -65.0381  -40.4580  -25.5189 C.ar    1  UNL1        0.1002
     38 C         -64.3087  -41.0195  -24.4687 C.ar    1  UNL1        0.0353
     39 C         -60.6362  -43.2687  -21.0708 C.3     1  UNL1        0.0569
     40 C         -63.7065  -44.3702  -20.5877 C.3     1  UNL1        0.0311
     41 C         -63.9383  -42.8917  -20.7123 C.ar    1  UNL1       -0.0207
     42 C         -65.2623  -42.3964  -20.7221 C.ar    1  UNL1       -0.0042
     43 C         -65.5185  -41.0134  -20.7763 C.ar    1  UNL1        0.0012
     44 C         -64.4604  -40.0962  -20.8087 C.ar    1  UNL1        0.0169
     45 C         -63.1602  -40.5935  -20.7989 C.ar    1  UNL1        0.0560
     46 N         -62.0340  -39.8658  -20.8620 N.ar    1  UNL1       -0.3523
     47 C         -61.0173  -40.7496  -20.8906 C.ar    1  UNL1        0.0681
     48 C         -61.4974  -42.0542  -20.8371 C.ar    1  UNL1       -0.0020
     49 C         -62.8897  -41.9462  -20.7695 C.ar    1  UNL1        0.0092
     50 H         -61.9575  -38.8258  -20.9184 H       1  UNL1        0.1660
@<TRIPOS>BOND
     1    40    41    1
     2    41    42   ar
     3    42    43   ar
     4    43    44   ar
     5    44    45   ar
     6    45    46   ar
     7    46    47   ar
     8    47    48   ar
     9    48    39    1
    10    39    28    1
    11    28     1    1
    12     1     2   am
    13     2     3    2
    14     2     5    1
    15     5     6   ar
    16     6     7   ar
    17     7     8   ar
    18     8    12    1
    19    12    13    1
    20    13    14    1
    21    14    15    1
    22    15    18    1
    23    18    19   ar
    24    19    20   ar
    25    20    21   ar
    26    21    24    1
    27    24    25    1
    28    24    26    1
    29    24    27    1
    30    21    22   ar
    31    22    23   ar
    32    15    16    1
    33    16    17    1
    34     8     9   ar
    35     9    10   ar
    36    10    11    1
    37    28    29    1
    38    29    30    2
    39    29    31   am
    40    31    33    1
    41    33    34   ar
    42    34    35   ar
    43    35    36   ar
    44    36    37   ar
    45    37    38   ar
    46    48    49   ar
    47    49    41   ar
    48    49    45   ar
    49    10     5   ar
    50    38    33   ar
    51    17    12    1
    52    23    18   ar
    53    46    50    1
    54     1     4    1
    55    31    32    1
