@<TRIPOS>MOLECULE
*****
 50 55 0 0 0
SMALL
GASTEIGER

@<TRIPOS>ATOM
      1 O         -29.1881   45.9988   -4.9453 O.2     1  UNL1       -0.2701
      2 C         -28.7892   47.1177   -4.5200 C.2     1  UNL1        0.2483
      3 N         -29.1725   47.5596   -3.2087 N.am    1  UNL1       -0.2945
      4 H         -28.6394   48.3429   -2.7672 H       1  UNL1        0.1501
      5 C         -27.9031   47.9433   -5.3709 C.ar    1  UNL1        0.0808
      6 C         -27.3051   47.3743   -6.5066 C.ar    1  UNL1        0.0080
      7 C         -26.4618   48.1331   -7.3220 C.ar    1  UNL1        0.0148
      8 C         -26.2042   49.4828   -7.0257 C.ar    1  UNL1        0.0502
      9 C         -26.8205   50.0575   -5.9003 C.ar    1  UNL1        0.0443
     10 C         -27.6633   49.2998   -5.0811 C.ar    1  UNL1        0.1457
     11 F         -28.2767   49.9109   -4.0363 F       1  UNL1       -0.2040
     12 N         -25.3351   50.2701   -7.8707 N.pl3   1  UNL1       -0.3040
     13 C         -25.8913   51.0317   -8.9986 C.3     1  UNL1        0.1122
     14 C         -24.8666   51.1545  -10.1307 C.3     1  UNL1        0.1122
     15 N         -23.5734   51.6538   -9.6380 N.pl3   1  UNL1       -0.3041
     16 C         -23.2696   51.6100   -8.2003 C.3     1  UNL1        0.1122
     17 C         -23.9037   50.3781   -7.5470 C.3     1  UNL1        0.1122
     18 C         -22.6423   52.2627  -10.5607 C.ar    1  UNL1        0.0479
     19 C         -23.0823   53.2243  -11.4873 C.ar    1  UNL1        0.0145
     20 C         -22.1859   53.8026  -12.3876 C.ar    1  UNL1        0.0012
     21 C         -20.8383   53.4401  -12.3693 C.ar    1  UNL1        0.0039
     22 C         -20.3672   52.5055  -11.4324 C.ar    1  UNL1        0.0726
     23 C         -21.2801   51.9053  -10.5468 C.ar    1  UNL1        0.0184
     24 C         -18.9202   52.0791  -11.4381 C.3     1  UNL1        0.4186
     25 F         -18.6605   51.3675  -12.5943 F       1  UNL1       -0.1659
     26 F         -18.6447   51.2778  -10.3436 F       1  UNL1       -0.1659
     27 F         -18.0826   53.1801  -11.3887 F       1  UNL1       -0.1659
     28 C         -30.1665   46.8407   -2.4060 C.3     1  UNL1        0.1535
     29 C         -29.8236   46.9567   -0.9454 C.2     1  UNL1        0.2443
     30 O         -29.1515   46.0412   -0.3976 O.2     1  UNL1       -0.2730
     31 N         -30.2251   48.1151   -0.1945 N.am    1  UNL1       -0.2825
     32 H         -30.5264   48.9630   -0.7260 H       1  UNL1        0.1549
     33 C         -30.1361   48.2176    1.2366 C.ar    1  UNL1        0.0535
     34 C         -31.1871   47.7352    2.0283 C.ar    1  UNL1        0.0353
     35 C         -31.0955   47.8108    3.4202 C.ar    1  UNL1        0.1002
     36 N         -29.9848   48.3342    4.0030 N.ar    1  UNL1       -0.2422
     37 C         -28.9408   48.7915    3.2626 C.ar    1  UNL1        0.1002
     38 C         -28.9922   48.7357    1.8674 C.ar    1  UNL1        0.0353
     39 C         -31.5812   47.3876   -2.6648 C.3     1  UNL1        0.0569
     40 C         -31.5585   48.8742   -2.8744 C.ar    1  UNL1       -0.0016
     41 C         -31.5812   49.8519   -1.8842 C.ar    1  UNL1        0.0681
     42 N         -31.4656   51.0825   -2.4334 N.ar    1  UNL1       -0.3523
     43 C         -31.3608   50.8890   -3.7597 C.ar    1  UNL1        0.0564
     44 C         -31.2011   51.8616   -4.7455 C.ar    1  UNL1        0.0174
     45 C         -31.0904   51.4327   -6.0808 C.ar    1  UNL1        0.0073
     46 C         -31.1385   50.0559   -6.3977 C.ar    1  UNL1        0.0301
     47 I         -30.9644   49.4330   -8.4043 I       1  UNL1       -0.0425
     48 C         -31.2991   49.0968   -5.3803 C.ar    1  UNL1        0.0069
     49 C         -31.4097   49.5537   -4.0671 C.ar    1  UNL1        0.0135
     50 H         -31.4455   51.9943   -1.9250 H       1  UNL1        0.1660
@<TRIPOS>BOND
     1     1     2    2
     2     2     3   am
     3     3    28    1
     4    28    39    1
     5    39    40    1
     6    40    41   ar
     7    41    42   ar
     8    42    43   ar
     9    43    44   ar
    10    44    45   ar
    11    45    46   ar
    12    46    47    1
    13    46    48   ar
    14    48    49   ar
    15    28    29    1
    16    29    30    2
    17    29    31   am
    18    31    33    1
    19    33    34   ar
    20    34    35   ar
    21    35    36   ar
    22    36    37   ar
    23    37    38   ar
    24     2     5    1
    25     5     6   ar
    26     6     7   ar
    27     7     8   ar
    28     8    12    1
    29    12    13    1
    30    13    14    1
    31    14    15    1
    32    15    18    1
    33    18    19   ar
    34    19    20   ar
    35    20    21   ar
    36    21    22   ar
    37    22    24    1
    38    24    25    1
    39    24    26    1
    40    24    27    1
    41    22    23   ar
    42    15    16    1
    43    16    17    1
    44     8     9   ar
    45     9    10   ar
    46    10    11    1
    47    49    40   ar
    48    38    33   ar
    49    10     5   ar
    50    49    43   ar
    51    17    12    1
    52    23    18   ar
    53     3     4    1
    54    42    50    1
    55    31    32    1
@<TRIPOS>MOLECULE
*****
 50 55 0 0 0
SMALL
GASTEIGER

@<TRIPOS>ATOM
      1 O         -24.6203   51.3149  -10.8140 O.2     1  UNL1       -0.2701
      2 C         -24.1850   51.3771   -9.6314 C.2     1  UNL1        0.2483
      3 N         -22.8653   51.8858   -9.3835 N.am    1  UNL1       -0.2945
      4 H         -22.6141   52.1774   -8.4116 H       1  UNL1        0.1501
      5 C         -25.0580   50.9535   -8.5138 C.ar    1  UNL1        0.0808
      6 C         -24.6743   49.8712   -7.7058 C.ar    1  UNL1        0.0080
      7 C         -25.4843   49.4508   -6.6480 C.ar    1  UNL1        0.0148
      8 C         -26.6937   50.1099   -6.3672 C.ar    1  UNL1        0.0502
      9 C         -27.0666   51.2070   -7.1635 C.ar    1  UNL1        0.0443
     10 C         -26.2589   51.6285   -8.2243 C.ar    1  UNL1        0.1457
     11 F         -26.6335   52.7239   -8.9320 F       1  UNL1       -0.2040
     12 N         -27.5308   49.6786   -5.2706 N.pl3   1  UNL1       -0.3040
     13 C         -26.9788   49.5842   -3.9112 C.3     1  UNL1        0.1122
     14 C         -27.6872   48.4868   -3.1109 C.3     1  UNL1        0.1122
     15 N         -29.1498   48.6365   -3.1648 N.pl3   1  UNL1       -0.3041
     16 C         -29.7631   49.4827   -4.1988 C.3     1  UNL1        0.1122
     17 C         -28.9605   49.4181   -5.5019 C.3     1  UNL1        0.1122
     18 C         -29.9709   48.0181   -2.1487 C.ar    1  UNL1        0.0479
     19 C         -30.7791   46.9108   -2.4613 C.ar    1  UNL1        0.0145
     20 C         -31.5824   46.3218   -1.4835 C.ar    1  UNL1        0.0012
     21 C         -31.5826   46.8196   -0.1796 C.ar    1  UNL1        0.0039
     22 C         -30.7603   47.9046    0.1662 C.ar    1  UNL1        0.0726
     23 C         -29.9745   48.5118   -0.8297 C.ar    1  UNL1        0.0184
     24 C         -30.7902   48.4727    1.5634 C.3     1  UNL1        0.4186
     25 F         -31.4971   49.6605    1.5560 F       1  UNL1       -0.1659
     26 F         -29.5054   48.7149    2.0179 F       1  UNL1       -0.1659
     27 F         -31.3991   47.5912    2.4400 F       1  UNL1       -0.1659
     28 C         -21.9244   52.1685  -10.4716 C.3     1  UNL1        0.1535
     29 C         -21.1742   53.4400  -10.1800 C.2     1  UNL1        0.2443
     30 O         -20.7272   54.1236  -11.1406 O.2     1  UNL1       -0.2730
     31 N         -21.0028   53.8880   -8.8247 N.am    1  UNL1       -0.2825
     32 H         -21.6096   53.4627   -8.0878 H       1  UNL1        0.1549
     33 C         -20.1266   54.9592   -8.4355 C.ar    1  UNL1        0.0535
     34 C         -20.3160   56.2364   -8.9805 C.ar    1  UNL1        0.0353
     35 C         -19.4824   57.2864   -8.5881 C.ar    1  UNL1        0.1002
     36 N         -18.5038   57.0732   -7.6694 N.ar    1  UNL1       -0.2422
     37 C         -18.3085   55.8508   -7.1080 C.ar    1  UNL1        0.1002
     38 C         -19.1192   54.7731   -7.4735 C.ar    1  UNL1        0.0353
     39 C         -20.9393   51.0021  -10.6627 C.3     1  UNL1        0.0569
     40 C         -19.6627   51.4687  -11.3007 C.ar    1  UNL1       -0.0016
     41 C         -19.5115   51.9518  -12.5971 C.ar    1  UNL1        0.0681
     42 N         -18.2379   52.3575  -12.8040 N.ar    1  UNL1       -0.3523
     43 C         -17.5873   52.1434  -11.6471 C.ar    1  UNL1        0.0564
     44 C         -16.2515   52.4241  -11.3645 C.ar    1  UNL1        0.0174
     45 C         -15.7785   52.1369  -10.0710 C.ar    1  UNL1        0.0073
     46 C         -16.6424   51.5842   -9.0982 C.ar    1  UNL1        0.0301
     47 I         -15.9160   51.1670   -7.1635 I       1  UNL1       -0.0425
     48 C         -17.9872   51.3129   -9.4127 C.ar    1  UNL1        0.0069
     49 C         -18.4248   51.6050  -10.7044 C.ar    1  UNL1        0.0135
     50 H         -17.8477   52.7685  -13.6810 H       1  UNL1        0.1660
@<TRIPOS>BOND
     1     1     2    2
     2     2     3   am
     3     3    28    1
     4    28    39    1
     5    39    40    1
     6    40    41   ar
     7    41    42   ar
     8    42    43   ar
     9    43    44   ar
    10    44    45   ar
    11    45    46   ar
    12    46    47    1
    13    46    48   ar
    14    48    49   ar
    15    28    29    1
    16    29    30    2
    17    29    31   am
    18    31    33    1
    19    33    34   ar
    20    34    35   ar
    21    35    36   ar
    22    36    37   ar
    23    37    38   ar
    24     2     5    1
    25     5     6   ar
    26     6     7   ar
    27     7     8   ar
    28     8    12    1
    29    12    13    1
    30    13    14    1
    31    14    15    1
    32    15    18    1
    33    18    19   ar
    34    19    20   ar
    35    20    21   ar
    36    21    22   ar
    37    22    24    1
    38    24    25    1
    39    24    26    1
    40    24    27    1
    41    22    23   ar
    42    15    16    1
    43    16    17    1
    44     8     9   ar
    45     9    10   ar
    46    10    11    1
    47    49    40   ar
    48    38    33   ar
    49    10     5   ar
    50    49    43   ar
    51    17    12    1
    52    23    18   ar
    53     3     4    1
    54    42    50    1
    55    31    32    1
@<TRIPOS>MOLECULE
*****
 50 55 0 0 0
SMALL
GASTEIGER

@<TRIPOS>ATOM
      1 O         -30.5255   50.2985  -11.2637 O.2     1  UNL1       -0.2701
      2 C         -29.5283   49.5266  -11.3012 C.2     1  UNL1        0.2483
      3 N         -29.6876   48.1785  -11.7691 N.am    1  UNL1       -0.2945
      4 H         -28.8357   47.6383  -12.0433 H       1  UNL1        0.1501
      5 C         -28.2005   50.0364  -10.8916 C.ar    1  UNL1        0.0808
      6 C         -27.5751   49.5056   -9.7520 C.ar    1  UNL1        0.0080
      7 C         -26.3239   49.9743   -9.3439 C.ar    1  UNL1        0.0148
      8 C         -25.6638   50.9792  -10.0721 C.ar    1  UNL1        0.0502
      9 C         -26.2812   51.4949  -11.2252 C.ar    1  UNL1        0.0443
     10 C         -27.5345   51.0293  -11.6348 C.ar    1  UNL1        0.1457
     11 F         -28.0674   51.5191  -12.7825 F       1  UNL1       -0.2040
     12 N         -24.3674   51.4622   -9.6533 N.pl3   1  UNL1       -0.3040
     13 C         -23.7642   52.6292  -10.3134 C.3     1  UNL1        0.1122
     14 C         -22.2353   52.5349  -10.2956 C.3     1  UNL1        0.1122
     15 N         -21.7254   52.2707   -8.9410 N.pl3   1  UNL1       -0.3041
     16 C         -22.6332   51.7653   -7.9010 C.3     1  UNL1        0.1122
     17 C         -23.6911   50.8371   -8.5057 C.3     1  UNL1        0.1122
     18 C         -20.3533   52.5897   -8.6175 C.ar    1  UNL1        0.0479
     19 C         -20.0482   53.7216   -7.8413 C.ar    1  UNL1        0.0145
     20 C         -18.7224   54.0375   -7.5400 C.ar    1  UNL1        0.0012
     21 C         -17.6842   53.2245   -7.9973 C.ar    1  UNL1        0.0039
     22 C         -17.9641   52.0704   -8.7475 C.ar    1  UNL1        0.0726
     23 C         -19.2998   51.7728   -9.0719 C.ar    1  UNL1        0.0184
     24 C         -16.8427   51.2133   -9.2800 C.3     1  UNL1        0.4186
     25 F         -15.7503   51.3205   -8.4399 F       1  UNL1       -0.1659
     26 F         -16.4771   51.6242  -10.5503 F       1  UNL1       -0.1659
     27 F         -17.2288   49.8859   -9.3502 F       1  UNL1       -0.1659
     28 C         -31.0077   47.5993  -12.0356 C.3     1  UNL1        0.1535
     29 C         -31.0417   47.0250  -13.4260 C.2     1  UNL1        0.2443
     30 O         -31.5832   45.9018  -13.6137 O.2     1  UNL1       -0.2730
     31 N         -30.4971   47.7654  -14.5316 N.am    1  UNL1       -0.2825
     32 H         -30.3148   48.7854  -14.3955 H       1  UNL1        0.1549
     33 C         -30.2888   47.2163  -15.8437 C.ar    1  UNL1        0.0535
     34 C         -29.8245   48.0474  -16.8723 C.ar    1  UNL1        0.0353
     35 C         -29.5979   47.5141  -18.1433 C.ar    1  UNL1        0.1002
     36 N         -29.8105   46.1919  -18.3758 N.ar    1  UNL1       -0.2422
     37 C         -30.2410   45.3568  -17.3937 C.ar    1  UNL1        0.1002
     38 C         -30.4812   45.8497  -16.1085 C.ar    1  UNL1        0.0353
     39 C         -31.3488   46.5112  -11.0026 C.3     1  UNL1        0.0569
     40 C         -30.1760   46.2229  -10.1105 C.ar    1  UNL1       -0.0016
     41 C         -29.1312   45.3417  -10.3726 C.ar    1  UNL1        0.0681
     42 N         -28.2082   45.3972   -9.3855 N.ar    1  UNL1       -0.3523
     43 C         -28.6569   46.3120   -8.5084 C.ar    1  UNL1        0.0564
     44 C         -28.0355   46.7319   -7.3333 C.ar    1  UNL1        0.0174
     45 C         -28.6761   47.7242   -6.5690 C.ar    1  UNL1        0.0073
     46 C         -29.9088   48.2712   -6.9928 C.ar    1  UNL1        0.0301
     47 I         -30.8495   49.7621   -5.8367 I       1  UNL1       -0.0425
     48 C         -30.5114   47.8281   -8.1851 C.ar    1  UNL1        0.0069
     49 C         -29.8537   46.8407   -8.9184 C.ar    1  UNL1        0.0135
     50 H         -27.3204   44.8505   -9.3287 H       1  UNL1        0.1660
@<TRIPOS>BOND
     1     1     2    2
     2     2     3   am
     3     3    28    1
     4    28    39    1
     5    39    40    1
     6    40    41   ar
     7    41    42   ar
     8    42    43   ar
     9    43    44   ar
    10    44    45   ar
    11    45    46   ar
    12    46    47    1
    13    46    48   ar
    14    48    49   ar
    15    28    29    1
    16    29    30    2
    17    29    31   am
    18    31    33    1
    19    33    34   ar
    20    34    35   ar
    21    35    36   ar
    22    36    37   ar
    23    37    38   ar
    24     2     5    1
    25     5     6   ar
    26     6     7   ar
    27     7     8   ar
    28     8    12    1
    29    12    13    1
    30    13    14    1
    31    14    15    1
    32    15    18    1
    33    18    19   ar
    34    19    20   ar
    35    20    21   ar
    36    21    22   ar
    37    22    24    1
    38    24    25    1
    39    24    26    1
    40    24    27    1
    41    22    23   ar
    42    15    16    1
    43    16    17    1
    44     8     9   ar
    45     9    10   ar
    46    10    11    1
    47    49    40   ar
    48    38    33   ar
    49    10     5   ar
    50    49    43   ar
    51    17    12    1
    52    23    18   ar
    53     3     4    1
    54    42    50    1
    55    31    32    1
@<TRIPOS>MOLECULE
*****
 50 55 0 0 0
SMALL
GASTEIGER

@<TRIPOS>ATOM
      1 O         -24.6416   51.4667  -11.0767 O.2     1  UNL1       -0.2701
      2 C         -24.5656   51.9429   -9.9108 C.2     1  UNL1        0.2483
      3 N         -23.7561   53.1033   -9.6662 N.am    1  UNL1       -0.2945
      4 H         -23.9012   53.6389   -8.7803 H       1  UNL1        0.1501
      5 C         -25.3412   51.3139   -8.8183 C.ar    1  UNL1        0.0808
      6 C         -24.7248   50.3643   -7.9878 C.ar    1  UNL1        0.0080
      7 C         -25.4383   49.7543   -6.9532 C.ar    1  UNL1        0.0148
      8 C         -26.7837   50.0871   -6.7185 C.ar    1  UNL1        0.0502
      9 C         -27.3938   51.0537   -7.5371 C.ar    1  UNL1        0.0443
     10 C         -26.6827   51.6643   -8.5749 C.ar    1  UNL1        0.1457
     11 F         -27.2971   52.6289   -9.3051 F       1  UNL1       -0.2040
     12 N         -27.5220   49.4598   -5.6458 N.pl3   1  UNL1       -0.3040
     13 C         -27.0751   49.6104   -4.2533 C.3     1  UNL1        0.1122
     14 C         -27.4569   48.3811   -3.4229 C.3     1  UNL1        0.1122
     15 N         -28.8824   48.0490   -3.5720 N.pl3   1  UNL1       -0.3041
     16 C         -29.6514   48.6044   -4.6951 C.3     1  UNL1        0.1122
     17 C         -28.7721   48.7423   -5.9418 C.3     1  UNL1        0.1122
     18 C         -29.5397   47.2462   -2.5658 C.ar    1  UNL1        0.0479
     19 C         -29.9711   45.9417   -2.8642 C.ar    1  UNL1        0.0145
     20 C         -30.6180   45.1709   -1.8967 C.ar    1  UNL1        0.0012
     21 C         -30.8332   45.6842   -0.6168 C.ar    1  UNL1        0.0039
     22 C         -30.3835   46.9726   -0.2837 C.ar    1  UNL1        0.0726
     23 C         -29.7577   47.7550   -1.2708 C.ar    1  UNL1        0.0184
     24 C         -30.6526   47.5469    1.0850 C.3     1  UNL1        0.4186
     25 F         -31.4119   48.6946    0.9550 F       1  UNL1       -0.1659
     26 F         -29.4651   47.8613    1.7229 F       1  UNL1       -0.1659
     27 F         -31.3388   46.6393    1.8732 F       1  UNL1       -0.1659
     28 C         -22.8607   53.6555  -10.6872 C.3     1  UNL1        0.1535
     29 C         -22.3799   55.0165  -10.2622 C.2     1  UNL1        0.2443
     30 O         -23.0965   56.0250  -10.5060 O.2     1  UNL1       -0.2730
     31 N         -21.1371   55.1596   -9.5535 N.am    1  UNL1       -0.2825
     32 H         -20.7143   54.3036   -9.1286 H       1  UNL1        0.1549
     33 C         -20.4952   56.4207   -9.3004 C.ar    1  UNL1        0.0535
     34 C         -19.7842   56.6042   -8.1066 C.ar    1  UNL1        0.0353
     35 C         -19.1387   57.8194   -7.8658 C.ar    1  UNL1        0.1002
     36 N         -19.1863   58.8122   -8.7929 N.ar    1  UNL1       -0.2422
     37 C         -19.8506   58.6569   -9.9685 C.ar    1  UNL1        0.1002
     38 C         -20.5108   57.4577  -10.2486 C.ar    1  UNL1        0.0353
     39 C         -21.6629   52.7209  -10.9309 C.3     1  UNL1        0.0569
     40 C         -20.8786   52.5034   -9.6691 C.ar    1  UNL1       -0.0016
     41 C         -21.3915   52.4152   -8.3784 C.ar    1  UNL1        0.0681
     42 N         -20.4052   52.1333   -7.4969 N.ar    1  UNL1       -0.3523
     43 C         -19.2770   52.0337   -8.2212 C.ar    1  UNL1        0.0564
     44 C         -17.9976   51.7345   -7.7556 C.ar    1  UNL1        0.0174
     45 C         -16.9556   51.6593   -8.6979 C.ar    1  UNL1        0.0073
     46 C         -17.2130   51.8795  -10.0703 C.ar    1  UNL1        0.0301
     47 I         -15.6391   51.7560  -11.4675 I       1  UNL1       -0.0425
     48 C         -18.5159   52.1784  -10.5108 C.ar    1  UNL1        0.0069
     49 C         -19.5264   52.2496   -9.5520 C.ar    1  UNL1        0.0135
     50 H         -20.5069   52.0038   -6.4658 H       1  UNL1        0.1660
@<TRIPOS>BOND
     1     1     2    2
     2     2     3   am
     3     3    28    1
     4    28    39    1
     5    39    40    1
     6    40    41   ar
     7    41    42   ar
     8    42    43   ar
     9    43    44   ar
    10    44    45   ar
    11    45    46   ar
    12    46    47    1
    13    46    48   ar
    14    48    49   ar
    15    28    29    1
    16    29    30    2
    17    29    31   am
    18    31    33    1
    19    33    34   ar
    20    34    35   ar
    21    35    36   ar
    22    36    37   ar
    23    37    38   ar
    24     2     5    1
    25     5     6   ar
    26     6     7   ar
    27     7     8   ar
    28     8    12    1
    29    12    13    1
    30    13    14    1
    31    14    15    1
    32    15    18    1
    33    18    19   ar
    34    19    20   ar
    35    20    21   ar
    36    21    22   ar
    37    22    24    1
    38    24    25    1
    39    24    26    1
    40    24    27    1
    41    22    23   ar
    42    15    16    1
    43    16    17    1
    44     8     9   ar
    45     9    10   ar
    46    10    11    1
    47    49    40   ar
    48    38    33   ar
    49    10     5   ar
    50    49    43   ar
    51    17    12    1
    52    23    18   ar
    53     3     4    1
    54    42    50    1
    55    31    32    1
@<TRIPOS>MOLECULE
*****
 50 55 0 0 0
SMALL
GASTEIGER

@<TRIPOS>ATOM
      1 O         -28.1022   46.4126   -1.3839 O.2     1  UNL1       -0.2701
      2 C         -28.5647   47.4928   -1.8434 C.2     1  UNL1        0.2483
      3 N         -29.6321   48.1616   -1.1541 N.am    1  UNL1       -0.2945
      4 H         -29.8277   49.1627   -1.3826 H       1  UNL1        0.1501
      5 C         -27.9743   48.0704   -3.0717 C.ar    1  UNL1        0.0808
      6 C         -27.7186   49.4494   -3.1361 C.ar    1  UNL1        0.0080
      7 C         -27.1658   50.0174   -4.2865 C.ar    1  UNL1        0.0148
      8 C         -26.8467   49.2172   -5.3973 C.ar    1  UNL1        0.0502
      9 C         -27.0834   47.8332   -5.3238 C.ar    1  UNL1        0.0443
     10 C         -27.6385   47.2623   -4.1744 C.ar    1  UNL1        0.1457
     11 F         -27.8003   45.9158   -4.1297 F       1  UNL1       -0.2040
     12 N         -26.2711   49.8029   -6.5867 N.pl3   1  UNL1       -0.3040
     13 C         -25.7001   48.9424   -7.6331 C.3     1  UNL1        0.1122
     14 C         -24.5586   49.6570   -8.3630 C.3     1  UNL1        0.1122
     15 N         -24.9658   50.9921   -8.8280 N.pl3   1  UNL1       -0.3041
     16 C         -26.1636   51.6316   -8.2644 C.3     1  UNL1        0.1122
     17 C         -26.3363   51.2590   -6.7886 C.3     1  UNL1        0.1122
     18 C         -24.2339   51.6319   -9.8976 C.ar    1  UNL1        0.0479
     19 C         -24.7214   51.5968  -11.2159 C.ar    1  UNL1        0.0145
     20 C         -24.0080   52.2030  -12.2513 C.ar    1  UNL1        0.0012
     21 C         -22.8066   52.8620  -11.9860 C.ar    1  UNL1        0.0039
     22 C         -22.3141   52.9389  -10.6728 C.ar    1  UNL1        0.0726
     23 C         -23.0226   52.3020   -9.6382 C.ar    1  UNL1        0.0184
     24 C         -20.9946   53.6126  -10.3887 C.3     1  UNL1        0.4186
     25 F         -20.1657   53.4696  -11.4855 F       1  UNL1       -0.1659
     26 F         -20.3847   53.0423   -9.2847 F       1  UNL1       -0.1659
     27 F         -21.1755   54.9610  -10.1333 F       1  UNL1       -0.1659
     28 C         -30.3377   47.5430   -0.0278 C.3     1  UNL1        0.1535
     29 C         -30.7289   48.5984    0.9710 C.2     1  UNL1        0.2443
     30 O         -31.4009   49.5923    0.5831 O.2     1  UNL1       -0.2730
     31 N         -30.3728   48.4552    2.3565 N.am    1  UNL1       -0.2825
     32 H         -30.0707   47.5118    2.6895 H       1  UNL1        0.1549
     33 C         -30.5091   49.4995    3.3349 C.ar    1  UNL1        0.0535
     34 C         -30.2856   49.2093    4.6877 C.ar    1  UNL1        0.0353
     35 C         -30.3936   50.2255    5.6401 C.ar    1  UNL1        0.1002
     36 N         -30.6972   51.4927    5.2537 N.ar    1  UNL1       -0.2422
     37 C         -30.8996   51.8093    3.9474 C.ar    1  UNL1        0.1002
     38 C         -30.8025   50.8225    2.9629 C.ar    1  UNL1        0.0353
     39 C         -31.5840   46.7815   -0.5119 C.3     1  UNL1        0.0569
     40 C         -31.2706   45.9341   -1.7111 C.ar    1  UNL1       -0.0016
     41 C         -31.0567   44.5589   -1.7220 C.ar    1  UNL1        0.0681
     42 N         -30.8820   44.1186   -2.9889 N.ar    1  UNL1       -0.3523
     43 C         -30.9931   45.2019   -3.7773 C.ar    1  UNL1        0.0564
     44 C         -30.9075   45.2473   -5.1679 C.ar    1  UNL1        0.0174
     45 C         -31.0764   46.4943   -5.7970 C.ar    1  UNL1        0.0073
     46 C         -31.3272   47.6555   -5.0308 C.ar    1  UNL1        0.0301
     47 I         -31.5838   49.5138   -5.9928 I       1  UNL1       -0.0425
     48 C         -31.4098   47.5781   -3.6279 C.ar    1  UNL1        0.0069
     49 C         -31.2341   46.3285   -3.0339 C.ar    1  UNL1        0.0135
     50 H         -30.7120   43.1334   -3.2902 H       1  UNL1        0.1660
@<TRIPOS>BOND
     1     1     2    2
     2     2     3   am
     3     3    28    1
     4    28    39    1
     5    39    40    1
     6    40    41   ar
     7    41    42   ar
     8    42    43   ar
     9    43    44   ar
    10    44    45   ar
    11    45    46   ar
    12    46    47    1
    13    46    48   ar
    14    48    49   ar
    15    28    29    1
    16    29    30    2
    17    29    31   am
    18    31    33    1
    19    33    34   ar
    20    34    35   ar
    21    35    36   ar
    22    36    37   ar
    23    37    38   ar
    24     2     5    1
    25     5     6   ar
    26     6     7   ar
    27     7     8   ar
    28     8    12    1
    29    12    13    1
    30    13    14    1
    31    14    15    1
    32    15    18    1
    33    18    19   ar
    34    19    20   ar
    35    20    21   ar
    36    21    22   ar
    37    22    24    1
    38    24    25    1
    39    24    26    1
    40    24    27    1
    41    22    23   ar
    42    15    16    1
    43    16    17    1
    44     8     9   ar
    45     9    10   ar
    46    10    11    1
    47    49    40   ar
    48    38    33   ar
    49    10     5   ar
    50    49    43   ar
    51    17    12    1
    52    23    18   ar
    53     3     4    1
    54    42    50    1
    55    31    32    1
@<TRIPOS>MOLECULE
*****
 50 55 0 0 0
SMALL
GASTEIGER

@<TRIPOS>ATOM
      1 O         -23.8601   52.5800  -11.7424 O.2     1  UNL1       -0.2701
      2 C         -23.3150   52.0098  -10.7577 C.2     1  UNL1        0.2483
      3 N         -21.9038   52.1592  -10.5391 N.am    1  UNL1       -0.2945
      4 H         -21.5122   51.9131   -9.6016 H       1  UNL1        0.1501
      5 C         -24.1490   51.2207   -9.8236 C.ar    1  UNL1        0.0808
      6 C         -25.3092   50.5866  -10.2960 C.ar    1  UNL1        0.0080
      7 C         -26.1140   49.8402   -9.4318 C.ar    1  UNL1        0.0148
      8 C         -25.7718   49.7024   -8.0754 C.ar    1  UNL1        0.0502
      9 C         -24.5984   50.3199   -7.6080 C.ar    1  UNL1        0.0443
     10 C         -23.7921   51.0694   -8.4702 C.ar    1  UNL1        0.1457
     11 F         -22.6423   51.6032   -7.9863 F       1  UNL1       -0.2040
     12 N         -26.6014   48.9271   -7.1810 N.pl3   1  UNL1       -0.3040
     13 C         -27.2640   49.5741   -6.0391 C.3     1  UNL1        0.1122
     14 C         -27.4353   48.5886   -4.8790 C.3     1  UNL1        0.1122
     15 N         -28.0697   47.3371   -5.3215 N.pl3   1  UNL1       -0.3041
     16 C         -28.1104   47.0012   -6.7522 C.3     1  UNL1        0.1122
     17 C         -26.8523   47.5055   -7.4659 C.3     1  UNL1        0.1122
     18 C         -28.7243   46.4852   -4.3547 C.ar    1  UNL1        0.0479
     19 C         -29.0454   45.1551   -4.6781 C.ar    1  UNL1        0.0145
     20 C         -29.6897   44.3361   -3.7494 C.ar    1  UNL1        0.0012
     21 C         -30.0118   44.8267   -2.4831 C.ar    1  UNL1        0.0039
     22 C         -29.6734   46.1418   -2.1240 C.ar    1  UNL1        0.0726
     23 C         -29.0498   46.9710   -3.0735 C.ar    1  UNL1        0.0184
     24 C         -30.0585   46.6890   -0.7720 C.3     1  UNL1        0.4186
     25 F         -29.6555   45.8024    0.2089 F       1  UNL1       -0.1659
     26 F         -31.4294   46.8612   -0.6891 F       1  UNL1       -0.1659
     27 F         -29.4553   47.9145   -0.5472 F       1  UNL1       -0.1659
     28 C         -21.0287   52.8029  -11.5235 C.3     1  UNL1        0.1535
     29 C         -20.2753   53.9326  -10.8751 C.2     1  UNL1        0.2443
     30 O         -19.2918   54.4412  -11.4784 O.2     1  UNL1       -0.2730
     31 N         -20.6957   54.4496   -9.6011 N.am    1  UNL1       -0.2825
     32 H         -21.6549   54.2054   -9.2659 H       1  UNL1        0.1549
     33 C         -19.9227   55.3678   -8.8100 C.ar    1  UNL1        0.0535
     34 C         -20.0753   56.7465   -9.0096 C.ar    1  UNL1        0.0353
     35 C         -19.3440   57.6437   -8.2274 C.ar    1  UNL1        0.1002
     36 N         -18.5018   57.1810   -7.2663 N.ar    1  UNL1       -0.2422
     37 C         -18.3476   55.8504   -7.0355 C.ar    1  UNL1        0.1002
     38 C         -19.0592   54.9191   -7.7961 C.ar    1  UNL1        0.0353
     39 C         -20.0450   51.7875  -12.1309 C.3     1  UNL1        0.0569
     40 C         -18.6908   51.8942  -11.4913 C.ar    1  UNL1       -0.0016
     41 C         -17.4918   52.1911  -12.1323 C.ar    1  UNL1        0.0681
     42 N         -16.4864   52.2856  -11.2325 N.ar    1  UNL1       -0.3523
     43 C         -17.0424   52.0603  -10.0293 C.ar    1  UNL1        0.0564
     44 C         -16.4063   52.0724   -8.7889 C.ar    1  UNL1        0.0174
     45 C         -17.1895   51.8295   -7.6458 C.ar    1  UNL1        0.0073
     46 C         -18.5767   51.5853   -7.7660 C.ar    1  UNL1        0.0301
     47 I         -19.7342   51.2298   -6.0401 I       1  UNL1       -0.0425
     48 C         -19.1913   51.5809   -9.0321 C.ar    1  UNL1        0.0069
     49 C         -18.3874   51.8211  -10.1462 C.ar    1  UNL1        0.0135
     50 H         -15.4858   52.5055  -11.4343 H       1  UNL1        0.1660
@<TRIPOS>BOND
     1     1     2    2
     2     2     3   am
     3     3    28    1
     4    28    39    1
     5    39    40    1
     6    40    41   ar
     7    41    42   ar
     8    42    43   ar
     9    43    44   ar
    10    44    45   ar
    11    45    46   ar
    12    46    47    1
    13    46    48   ar
    14    48    49   ar
    15    28    29    1
    16    29    30    2
    17    29    31   am
    18    31    33    1
    19    33    34   ar
    20    34    35   ar
    21    35    36   ar
    22    36    37   ar
    23    37    38   ar
    24     2     5    1
    25     5     6   ar
    26     6     7   ar
    27     7     8   ar
    28     8    12    1
    29    12    13    1
    30    13    14    1
    31    14    15    1
    32    15    18    1
    33    18    19   ar
    34    19    20   ar
    35    20    21   ar
    36    21    22   ar
    37    22    24    1
    38    24    25    1
    39    24    26    1
    40    24    27    1
    41    22    23   ar
    42    15    16    1
    43    16    17    1
    44     8     9   ar
    45     9    10   ar
    46    10    11    1
    47    49    40   ar
    48    38    33   ar
    49    10     5   ar
    50    49    43   ar
    51    17    12    1
    52    23    18   ar
    53     3     4    1
    54    42    50    1
    55    31    32    1
