@<TRIPOS>MOLECULE
*****
 52 57 0 0 0
SMALL
GASTEIGER

@<TRIPOS>ATOM
      1 N         -62.7505  -46.0217  -27.1462 N.am    1  UNL1       -0.2945
      2 C         -61.8569  -45.6793  -26.0739 C.2     1  UNL1        0.2483
      3 O         -60.8057  -46.3525  -25.8919 O.2     1  UNL1       -0.2701
      4 H         -63.5429  -45.3751  -27.3602 H       1  UNL1        0.1501
      5 C         -62.1330  -44.5203  -25.1966 C.ar    1  UNL1        0.0808
      6 C         -61.9332  -44.6386  -23.8112 C.ar    1  UNL1        0.0080
      7 C         -62.1780  -43.5557  -22.9634 C.ar    1  UNL1        0.0148
      8 C         -62.6382  -42.3369  -23.4824 C.ar    1  UNL1        0.0502
      9 C         -62.8540  -42.2200  -24.8648 C.ar    1  UNL1        0.0443
     10 C         -62.6097  -43.3015  -25.7171 C.ar    1  UNL1        0.1457
     11 F         -62.8911  -43.1673  -27.0378 F       1  UNL1       -0.2040
     12 N         -62.8848  -41.2230  -22.6035 N.pl3   1  UNL1       -0.3040
     13 C         -64.0256  -40.3325  -22.8482 C.3     1  UNL1        0.1122
     14 C         -64.6644  -39.9295  -21.5206 C.3     1  UNL1        0.1122
     15 N         -63.6300  -39.4606  -20.5907 N.pl3   1  UNL1       -0.3041
     16 C         -62.4805  -40.3395  -20.3438 C.3     1  UNL1        0.1122
     17 C         -61.8474  -40.7671  -21.6701 C.3     1  UNL1        0.1122
     18 C         -63.8963  -38.3443  -19.7206 C.ar    1  UNL1        0.0479
     19 C         -64.9784  -38.3900  -18.8288 C.ar    1  UNL1        0.0145
     20 C         -65.2347  -37.3154  -17.9753 C.ar    1  UNL1        0.0012
     21 C         -64.4207  -36.1810  -18.0098 C.ar    1  UNL1        0.0039
     22 C         -63.3494  -36.1021  -18.9162 C.ar    1  UNL1        0.0726
     23 C         -63.0809  -37.1995  -19.7538 C.ar    1  UNL1        0.0184
     24 C         -62.4387  -34.9000  -18.9205 C.3     1  UNL1        0.4186
     25 F         -61.2890  -35.1569  -18.1937 F       1  UNL1       -0.1659
     26 F         -63.0998  -33.8265  -18.3535 F       1  UNL1       -0.1659
     27 F         -62.0681  -34.5700  -20.2128 F       1  UNL1       -0.1659
     28 C         -62.5317  -47.1905  -28.0064 C.3     1  UNL1        0.1535
     29 C         -62.8594  -48.4663  -27.2691 C.2     1  UNL1        0.2443
     30 O         -63.3974  -49.4253  -27.8879 O.2     1  UNL1       -0.2730
     31 N         -62.4760  -48.6154  -25.8919 N.am    1  UNL1       -0.2825
     32 H         -61.8136  -47.9132  -25.4911 H       1  UNL1        0.1549
     33 C         -62.7836  -49.7732  -25.0987 C.ar    1  UNL1        0.0535
     34 C         -64.0469  -50.3848  -25.1531 C.ar    1  UNL1        0.0353
     35 C         -64.3072  -51.4983  -24.3503 C.ar    1  UNL1        0.1002
     36 N         -63.3478  -51.9767  -23.5145 N.ar    1  UNL1       -0.2422
     37 C         -62.1226  -51.3942  -23.4296 C.ar    1  UNL1        0.1002
     38 C         -61.8217  -50.2779  -24.2136 C.ar    1  UNL1        0.0353
     39 C         -63.3105  -47.0799  -29.3412 C.3     1  UNL1        0.0569
     40 C         -62.2749  -43.9426  -30.3473 C.ar    1  UNL1       -0.0214
     41 C         -62.2576  -42.5943  -30.7865 C.ar    1  UNL1       -0.0042
     42 C         -63.4274  -41.8220  -30.8396 C.ar    1  UNL1        0.0012
     43 C         -64.6495  -42.3656  -30.4457 C.ar    1  UNL1        0.0169
     44 C         -64.6786  -43.6922  -30.0307 C.ar    1  UNL1        0.0560
     45 N         -65.7691  -44.3381  -29.5973 N.ar    1  UNL1       -0.3523
     46 C         -65.3716  -45.5817  -29.2873 C.ar    1  UNL1        0.0681
     47 C         -64.0149  -45.7533  -29.5513 C.ar    1  UNL1       -0.0020
     48 C         -63.5477  -44.4967  -30.0005 C.ar    1  UNL1        0.0091
     49 H         -66.7349  -43.9521  -29.5017 H       1  UNL1        0.1660
     50 C         -60.0994  -44.5228  -31.5185 C.3     1  UNL1        0.0047
     51 C         -60.9309  -44.6471  -30.2290 C.3     1  UNL1        0.0224
     52 C         -60.1947  -44.2840  -28.9276 C.3     1  UNL1        0.0047
@<TRIPOS>BOND
     1    50    51    1
     2    51    52    1
     3    51    40    1
     4    40    41   ar
     5    41    42   ar
     6    42    43   ar
     7    43    44   ar
     8    44    45   ar
     9    45    46   ar
    10    46    47   ar
    11    47    39    1
    12    39    28    1
    13    28     1    1
    14     1     2   am
    15     2     3    2
    16     2     5    1
    17     5     6   ar
    18     6     7   ar
    19     7     8   ar
    20     8    12    1
    21    12    13    1
    22    13    14    1
    23    14    15    1
    24    15    18    1
    25    18    19   ar
    26    19    20   ar
    27    20    21   ar
    28    21    22   ar
    29    22    24    1
    30    24    25    1
    31    24    26    1
    32    24    27    1
    33    22    23   ar
    34    15    16    1
    35    16    17    1
    36     8     9   ar
    37     9    10   ar
    38    10    11    1
    39    28    29    1
    40    29    30    2
    41    29    31   am
    42    31    33    1
    43    33    34   ar
    44    34    35   ar
    45    35    36   ar
    46    36    37   ar
    47    37    38   ar
    48    47    48   ar
    49    48    40   ar
    50    48    44   ar
    51    10     5   ar
    52    38    33   ar
    53    17    12    1
    54    23    18   ar
    55    45    49    1
    56     1     4    1
    57    31    32    1
@<TRIPOS>MOLECULE
*****
 52 57 0 0 0
SMALL
GASTEIGER

@<TRIPOS>ATOM
      1 N         -61.6019  -46.0289  -25.2004 N.am    1  UNL1       -0.2945
      2 C         -60.9810  -45.7707  -23.9303 C.2     1  UNL1        0.2483
      3 O         -60.0968  -46.5560  -23.4911 O.2     1  UNL1       -0.2701
      4 H         -62.2326  -45.3001  -25.6041 H       1  UNL1        0.1501
      5 C         -61.3379  -44.5713  -23.1407 C.ar    1  UNL1        0.0808
      6 C         -61.2262  -43.2994  -23.7265 C.ar    1  UNL1        0.0080
      7 C         -61.5658  -42.1528  -23.0045 C.ar    1  UNL1        0.0148
      8 C         -62.0131  -42.2541  -21.6792 C.ar    1  UNL1        0.0502
      9 C         -62.1110  -43.5226  -21.0855 C.ar    1  UNL1        0.0443
     10 C         -61.7723  -44.6731  -21.8048 C.ar    1  UNL1        0.1457
     11 F         -61.8204  -45.8739  -21.1745 F       1  UNL1       -0.2040
     12 N         -62.3657  -41.0685  -20.9417 N.pl3   1  UNL1       -0.3040
     13 C         -61.6547  -39.8090  -21.1920 C.3     1  UNL1        0.1122
     14 C         -62.6352  -38.6391  -21.1372 C.3     1  UNL1        0.1122
     15 N         -63.4470  -38.7245  -19.9173 N.pl3   1  UNL1       -0.3041
     16 C         -64.1567  -39.9820  -19.6526 C.3     1  UNL1        0.1122
     17 C         -63.1859  -41.1630  -19.7279 C.3     1  UNL1        0.1122
     18 C         -63.7881  -37.5269  -19.1938 C.ar    1  UNL1        0.0479
     19 C         -62.9575  -37.0689  -18.1600 C.ar    1  UNL1        0.0145
     20 C         -63.2773  -35.9027  -17.4626 C.ar    1  UNL1        0.0012
     21 C         -64.4335  -35.1875  -17.7825 C.ar    1  UNL1        0.0039
     22 C         -65.2951  -35.6447  -18.7944 C.ar    1  UNL1        0.0726
     23 C         -64.9523  -36.8053  -19.5109 C.ar    1  UNL1        0.0184
     24 C         -66.5172  -34.8474  -19.1758 C.3     1  UNL1        0.4186
     25 F         -67.4122  -35.6343  -19.8801 F       1  UNL1       -0.1659
     26 F         -66.1354  -33.7804  -19.9674 F       1  UNL1       -0.1659
     27 F         -67.1599  -34.3655  -18.0485 F       1  UNL1       -0.1659
     28 C         -61.3054  -47.2310  -25.9883 C.3     1  UNL1        0.1535
     29 C         -61.7214  -48.4757  -25.2423 C.2     1  UNL1        0.2443
     30 O         -62.9133  -48.8821  -25.3201 O.2     1  UNL1       -0.2730
     31 N         -60.7397  -49.2401  -24.5226 N.am    1  UNL1       -0.2825
     32 H         -59.7316  -49.0206  -24.6901 H       1  UNL1        0.1549
     33 C         -61.0496  -50.4108  -23.7495 C.ar    1  UNL1        0.0535
     34 C         -62.3656  -50.7009  -23.3535 C.ar    1  UNL1        0.0353
     35 C         -62.6177  -51.8415  -22.5869 C.ar    1  UNL1        0.1002
     36 N         -61.5939  -52.6559  -22.2176 N.ar    1  UNL1       -0.2422
     37 C         -60.3090  -52.3900  -22.5727 C.ar    1  UNL1        0.1002
     38 C         -60.0132  -51.2590  -23.3374 C.ar    1  UNL1        0.0353
     39 C         -61.9384  -47.1671  -27.4010 C.3     1  UNL1        0.0569
     40 C         -62.8261  -45.0254  -29.9607 C.ar    1  UNL1       -0.0214
     41 C         -62.7877  -44.0563  -30.9953 C.ar    1  UNL1       -0.0042
     42 C         -61.5744  -43.5620  -31.4967 C.ar    1  UNL1        0.0012
     43 C         -60.3610  -44.0266  -30.9907 C.ar    1  UNL1        0.0169
     44 C         -60.3896  -44.9636  -29.9640 C.ar    1  UNL1        0.0560
     45 N         -59.3089  -45.5204  -29.4015 N.ar    1  UNL1       -0.3523
     46 C         -59.7658  -46.3700  -28.4687 C.ar    1  UNL1        0.0681
     47 C         -61.1568  -46.3413  -28.4046 C.ar    1  UNL1       -0.0020
     48 C         -61.5710  -45.4471  -29.4185 C.ar    1  UNL1        0.0091
     49 H         -58.3089  -45.3452  -29.6466 H       1  UNL1        0.1660
     50 C         -65.2834  -44.4802  -29.6358 C.3     1  UNL1        0.0047
     51 C         -64.1948  -45.5667  -29.5727 C.3     1  UNL1        0.0224
     52 C         -64.5284  -46.8826  -30.2971 C.3     1  UNL1        0.0047
@<TRIPOS>BOND
     1    50    51    1
     2    51    52    1
     3    51    40    1
     4    40    41   ar
     5    41    42   ar
     6    42    43   ar
     7    43    44   ar
     8    44    45   ar
     9    45    46   ar
    10    46    47   ar
    11    47    39    1
    12    39    28    1
    13    28     1    1
    14     1     2   am
    15     2     3    2
    16     2     5    1
    17     5     6   ar
    18     6     7   ar
    19     7     8   ar
    20     8    12    1
    21    12    13    1
    22    13    14    1
    23    14    15    1
    24    15    18    1
    25    18    19   ar
    26    19    20   ar
    27    20    21   ar
    28    21    22   ar
    29    22    24    1
    30    24    25    1
    31    24    26    1
    32    24    27    1
    33    22    23   ar
    34    15    16    1
    35    16    17    1
    36     8     9   ar
    37     9    10   ar
    38    10    11    1
    39    28    29    1
    40    29    30    2
    41    29    31   am
    42    31    33    1
    43    33    34   ar
    44    34    35   ar
    45    35    36   ar
    46    36    37   ar
    47    37    38   ar
    48    47    48   ar
    49    48    40   ar
    50    48    44   ar
    51    10     5   ar
    52    38    33   ar
    53    17    12    1
    54    23    18   ar
    55    45    49    1
    56     1     4    1
    57    31    32    1
@<TRIPOS>MOLECULE
*****
 52 57 0 0 0
SMALL
GASTEIGER

@<TRIPOS>ATOM
      1 N         -61.8154  -46.1980  -25.4852 N.am    1  UNL1       -0.2945
      2 C         -61.2338  -45.6039  -24.3129 C.2     1  UNL1        0.2483
      3 O         -60.1976  -46.1086  -23.8001 O.2     1  UNL1       -0.2701
      4 H         -62.5912  -45.6912  -25.9681 H       1  UNL1        0.1501
      5 C         -61.8131  -44.3808  -23.7149 C.ar    1  UNL1        0.0808
      6 C         -62.0564  -43.2618  -24.5284 C.ar    1  UNL1        0.0080
      7 C         -62.6111  -42.0987  -23.9889 C.ar    1  UNL1        0.0148
      8 C         -62.9229  -42.0274  -22.6234 C.ar    1  UNL1        0.0502
      9 C         -62.6664  -43.1385  -21.8044 C.ar    1  UNL1        0.0443
     10 C         -62.1116  -44.3049  -22.3405 C.ar    1  UNL1        0.1457
     11 F         -61.8207  -45.3329  -21.5038 F       1  UNL1       -0.2040
     12 N         -63.4984  -40.8270  -22.0742 N.pl3   1  UNL1       -0.3040
     13 C         -64.7982  -40.3472  -22.5586 C.3     1  UNL1        0.1122
     14 C         -65.6160  -39.7957  -21.3923 C.3     1  UNL1        0.1122
     15 N         -64.8007  -38.8596  -20.6092 N.pl3   1  UNL1       -0.3041
     16 C         -63.4954  -39.3258  -20.1258 C.3     1  UNL1        0.1122
     17 C         -62.6772  -39.9014  -21.2843 C.3     1  UNL1        0.1122
     18 C         -65.3952  -37.6641  -20.0693 C.ar    1  UNL1        0.0479
     19 C         -66.7071  -37.3111  -20.4192 C.ar    1  UNL1        0.0145
     20 C         -67.2924  -36.1593  -19.8904 C.ar    1  UNL1        0.0012
     21 C         -66.5717  -35.3432  -19.0155 C.ar    1  UNL1        0.0039
     22 C         -65.2460  -35.6623  -18.6751 C.ar    1  UNL1        0.0726
     23 C         -64.6725  -36.8385  -19.1903 C.ar    1  UNL1        0.0184
     24 C         -64.4832  -34.8106  -17.6916 C.3     1  UNL1        0.4186
     25 F         -64.8516  -33.4815  -17.8094 F       1  UNL1       -0.1659
     26 F         -63.1290  -34.9269  -17.9436 F       1  UNL1       -0.1659
     27 F         -64.7365  -35.2154  -16.3923 F       1  UNL1       -0.1659
     28 C         -61.2947  -47.4356  -26.0778 C.3     1  UNL1        0.1535
     29 C         -61.7280  -48.6375  -25.2738 C.2     1  UNL1        0.2443
     30 O         -62.9445  -48.9720  -25.2558 O.2     1  UNL1       -0.2730
     31 N         -60.7434  -49.4456  -24.6080 N.am    1  UNL1       -0.2825
     32 H         -59.7390  -49.2913  -24.8528 H       1  UNL1        0.1549
     33 C         -61.0647  -50.5796  -23.7863 C.ar    1  UNL1        0.0535
     34 C         -62.3818  -50.8336  -23.3697 C.ar    1  UNL1        0.0353
     35 C         -62.6450  -51.9385  -22.5561 C.ar    1  UNL1        0.1002
     36 N         -61.6306  -52.7529  -22.1616 N.ar    1  UNL1       -0.2422
     37 C         -60.3447  -52.5210  -22.5362 C.ar    1  UNL1        0.1002
     38 C         -60.0379  -51.4262  -23.3478 C.ar    1  UNL1        0.0353
     39 C         -61.6845  -47.5702  -27.5713 C.3     1  UNL1        0.0569
     40 C         -62.7940  -45.2059  -29.8310 C.ar    1  UNL1       -0.0214
     41 C         -62.8523  -44.1229  -30.7446 C.ar    1  UNL1       -0.0042
     42 C         -61.6902  -43.4986  -31.2217 C.ar    1  UNL1        0.0012
     43 C         -60.4331  -43.9417  -30.8124 C.ar    1  UNL1        0.0169
     44 C         -60.3672  -44.9913  -29.9031 C.ar    1  UNL1        0.0560
     45 N         -59.2350  -45.5408  -29.4445 N.ar    1  UNL1       -0.3523
     46 C         -59.6051  -46.5199  -28.6048 C.ar    1  UNL1        0.0681
     47 C         -60.9918  -46.5861  -28.4942 C.ar    1  UNL1       -0.0020
     48 C         -61.4964  -45.6081  -29.3819 C.ar    1  UNL1        0.0091
     49 H         -58.2570  -45.2759  -29.6983 H       1  UNL1        0.1660
     50 C         -65.2441  -44.8475  -29.2744 C.3     1  UNL1        0.0047
     51 C         -64.1127  -45.8734  -29.4670 C.3     1  UNL1        0.0224
     52 C         -64.4418  -47.0577  -30.3925 C.3     1  UNL1        0.0047
@<TRIPOS>BOND
     1    50    51    1
     2    51    52    1
     3    51    40    1
     4    40    41   ar
     5    41    42   ar
     6    42    43   ar
     7    43    44   ar
     8    44    45   ar
     9    45    46   ar
    10    46    47   ar
    11    47    39    1
    12    39    28    1
    13    28     1    1
    14     1     2   am
    15     2     3    2
    16     2     5    1
    17     5     6   ar
    18     6     7   ar
    19     7     8   ar
    20     8    12    1
    21    12    13    1
    22    13    14    1
    23    14    15    1
    24    15    18    1
    25    18    19   ar
    26    19    20   ar
    27    20    21   ar
    28    21    22   ar
    29    22    24    1
    30    24    25    1
    31    24    26    1
    32    24    27    1
    33    22    23   ar
    34    15    16    1
    35    16    17    1
    36     8     9   ar
    37     9    10   ar
    38    10    11    1
    39    28    29    1
    40    29    30    2
    41    29    31   am
    42    31    33    1
    43    33    34   ar
    44    34    35   ar
    45    35    36   ar
    46    36    37   ar
    47    37    38   ar
    48    47    48   ar
    49    48    40   ar
    50    48    44   ar
    51    10     5   ar
    52    38    33   ar
    53    17    12    1
    54    23    18   ar
    55    45    49    1
    56     1     4    1
    57    31    32    1
@<TRIPOS>MOLECULE
*****
 52 57 0 0 0
SMALL
GASTEIGER

@<TRIPOS>ATOM
      1 N         -60.9560  -44.4207  -26.3822 N.am    1  UNL1       -0.2945
      2 C         -60.4903  -45.7543  -26.6470 C.2     1  UNL1        0.2483
      3 O         -59.4392  -45.9313  -27.3217 O.2     1  UNL1       -0.2701
      4 H         -61.7498  -44.2934  -25.7147 H       1  UNL1        0.1501
      5 C         -61.2080  -46.9301  -26.1070 C.ar    1  UNL1        0.0808
      6 C         -60.9732  -47.3354  -24.7826 C.ar    1  UNL1        0.0080
      7 C         -61.6454  -48.4367  -24.2472 C.ar    1  UNL1        0.0148
      8 C         -62.5569  -49.1614  -25.0286 C.ar    1  UNL1        0.0502
      9 C         -62.7823  -48.7687  -26.3575 C.ar    1  UNL1        0.0443
     10 C         -62.1117  -47.6666  -26.8973 C.ar    1  UNL1        0.1457
     11 F         -62.3101  -47.3586  -28.2040 F       1  UNL1       -0.2040
     12 N         -63.2498  -50.2933  -24.4693 N.pl3   1  UNL1       -0.3040
     13 C         -64.5944  -50.6400  -24.9449 C.3     1  UNL1        0.1122
     14 C         -64.7408  -52.1581  -25.0282 C.3     1  UNL1        0.1122
     15 N         -64.2896  -52.7729  -23.7740 N.pl3   1  UNL1       -0.3041
     16 C         -62.9494  -52.4278  -23.2846 C.3     1  UNL1        0.1122
     17 C         -62.7854  -50.9074  -23.2194 C.3     1  UNL1        0.1122
     18 C         -64.9969  -53.9037  -23.2310 C.ar    1  UNL1        0.0479
     19 C         -64.3524  -54.7748  -22.3399 C.ar    1  UNL1        0.0145
     20 C         -65.0364  -55.8664  -21.8019 C.ar    1  UNL1        0.0012
     21 C         -66.3664  -56.1056  -22.1549 C.ar    1  UNL1        0.0039
     22 C         -67.0219  -55.2627  -23.0687 C.ar    1  UNL1        0.0726
     23 C         -66.3350  -54.1496  -23.5856 C.ar    1  UNL1        0.0184
     24 C         -68.4727  -55.4892  -23.4126 C.3     1  UNL1        0.4186
     25 F         -68.7914  -56.8332  -23.3205 F       1  UNL1       -0.1659
     26 F         -68.7066  -55.0582  -24.7051 F       1  UNL1       -0.1659
     27 F         -69.2969  -54.7898  -22.5479 F       1  UNL1       -0.1659
     28 C         -60.2954  -43.2344  -26.9392 C.3     1  UNL1        0.1535
     29 C         -60.7383  -42.9939  -28.3621 C.2     1  UNL1        0.2443
     30 O         -61.3430  -41.9264  -28.6566 O.2     1  UNL1       -0.2730
     31 N         -60.3906  -43.9377  -29.3888 N.am    1  UNL1       -0.2825
     32 H         -59.6795  -44.6686  -29.1592 H       1  UNL1        0.1549
     33 C         -60.8047  -43.8149  -30.7592 C.ar    1  UNL1        0.0535
     34 C         -59.9019  -44.0065  -31.8180 C.ar    1  UNL1        0.0353
     35 C         -60.3448  -43.8592  -33.1348 C.ar    1  UNL1        0.1002
     36 N         -61.6370  -43.5206  -33.3867 N.ar    1  UNL1       -0.2422
     37 C         -62.5275  -43.3129  -32.3809 C.ar    1  UNL1        0.1002
     38 C         -62.1254  -43.4482  -31.0500 C.ar    1  UNL1        0.0353
     39 C         -60.5079  -41.9834  -26.0501 C.3     1  UNL1        0.0569
     40 C         -63.2295  -41.7123  -23.9414 C.ar    1  UNL1       -0.0214
     41 C         -64.1022  -41.8248  -22.8293 C.ar    1  UNL1       -0.0042
     42 C         -63.6657  -42.3402  -21.5999 C.ar    1  UNL1        0.0012
     43 C         -62.3427  -42.7488  -21.4365 C.ar    1  UNL1        0.0169
     44 C         -61.4848  -42.6586  -22.5268 C.ar    1  UNL1        0.0560
     45 N         -60.1855  -42.9842  -22.5114 N.ar    1  UNL1       -0.3523
     46 C         -59.7226  -42.7436  -23.7477 C.ar    1  UNL1        0.0681
     47 C         -60.7395  -42.2860  -24.5821 C.ar    1  UNL1       -0.0020
     48 C         -61.8914  -42.1886  -23.7681 C.ar    1  UNL1        0.0091
     49 H         -59.6335  -43.3390  -21.6988 H       1  UNL1        0.1660
     50 C         -63.9827  -42.0384  -26.3430 C.3     1  UNL1        0.0047
     51 C         -63.7844  -41.0393  -25.1888 C.3     1  UNL1        0.0224
     52 C         -64.9919  -40.1381  -24.8770 C.3     1  UNL1        0.0047
@<TRIPOS>BOND
     1    50    51    1
     2    51    52    1
     3    51    40    1
     4    40    41   ar
     5    41    42   ar
     6    42    43   ar
     7    43    44   ar
     8    44    45   ar
     9    45    46   ar
    10    46    47   ar
    11    47    39    1
    12    39    28    1
    13    28     1    1
    14     1     2   am
    15     2     3    2
    16     2     5    1
    17     5     6   ar
    18     6     7   ar
    19     7     8   ar
    20     8    12    1
    21    12    13    1
    22    13    14    1
    23    14    15    1
    24    15    18    1
    25    18    19   ar
    26    19    20   ar
    27    20    21   ar
    28    21    22   ar
    29    22    24    1
    30    24    25    1
    31    24    26    1
    32    24    27    1
    33    22    23   ar
    34    15    16    1
    35    16    17    1
    36     8     9   ar
    37     9    10   ar
    38    10    11    1
    39    28    29    1
    40    29    30    2
    41    29    31   am
    42    31    33    1
    43    33    34   ar
    44    34    35   ar
    45    35    36   ar
    46    36    37   ar
    47    37    38   ar
    48    47    48   ar
    49    48    40   ar
    50    48    44   ar
    51    10     5   ar
    52    38    33   ar
    53    17    12    1
    54    23    18   ar
    55    45    49    1
    56     1     4    1
    57    31    32    1
@<TRIPOS>MOLECULE
*****
 52 57 0 0 0
SMALL
GASTEIGER

@<TRIPOS>ATOM
      1 N         -61.5447  -46.1533  -25.6456 N.am    1  UNL1       -0.2945
      2 C         -61.2397  -45.7703  -24.2944 C.2     1  UNL1        0.2483
      3 O         -60.4488  -46.4710  -23.6052 O.2     1  UNL1       -0.2701
      4 H         -62.0948  -45.4920  -26.2389 H       1  UNL1        0.1501
      5 C         -61.8132  -44.5397  -23.7064 C.ar    1  UNL1        0.0808
      6 C         -61.9423  -43.3886  -24.5012 C.ar    1  UNL1        0.0080
      7 C         -62.4892  -42.2174  -23.9715 C.ar    1  UNL1        0.0148
      8 C         -62.9073  -42.1703  -22.6337 C.ar    1  UNL1        0.0502
      9 C         -62.7653  -43.3141  -21.8321 C.ar    1  UNL1        0.0443
     10 C         -62.2187  -44.4888  -22.3585 C.ar    1  UNL1        0.1457
     11 F         -62.0403  -45.5517  -21.5339 F       1  UNL1       -0.2040
     12 N         -63.4742  -40.9611  -22.0948 N.pl3   1  UNL1       -0.3040
     13 C         -64.7950  -40.5051  -22.5441 C.3     1  UNL1        0.1122
     14 C         -65.5757  -39.9308  -21.3635 C.3     1  UNL1        0.1122
     15 N         -64.7417  -38.9679  -20.6343 N.pl3   1  UNL1       -0.3041
     16 C         -63.4156  -39.4104  -20.1865 C.3     1  UNL1        0.1122
     17 C         -62.6341  -40.0086  -21.3587 C.3     1  UNL1        0.1122
     18 C         -65.3279  -37.7641  -20.1039 C.ar    1  UNL1        0.0479
     19 C         -66.6344  -37.4004  -20.4630 C.ar    1  UNL1        0.0145
     20 C         -67.2116  -36.2403  -19.9434 C.ar    1  UNL1        0.0012
     21 C         -66.4881  -35.4267  -19.0686 C.ar    1  UNL1        0.0039
     22 C         -65.1674  -35.7566  -18.7190 C.ar    1  UNL1        0.0726
     23 C         -64.6023  -36.9408  -19.2250 C.ar    1  UNL1        0.0184
     24 C         -64.4021  -34.9071  -17.7356 C.3     1  UNL1        0.4186
     25 F         -64.7265  -33.5704  -17.8903 F       1  UNL1       -0.1659
     26 F         -63.0466  -35.0699  -17.9523 F       1  UNL1       -0.1659
     27 F         -64.6982  -35.2756  -16.4345 F       1  UNL1       -0.1659
     28 C         -61.0302  -47.3900  -26.2453 C.3     1  UNL1        0.1535
     29 C         -61.5011  -48.5968  -25.4701 C.2     1  UNL1        0.2443
     30 O         -62.6702  -49.0367  -25.6477 O.2     1  UNL1       -0.2730
     31 N         -60.5885  -49.2910  -24.6034 N.am    1  UNL1       -0.2825
     32 H         -59.5724  -49.0571  -24.6768 H       1  UNL1        0.1549
     33 C         -60.9582  -50.4196  -23.7947 C.ar    1  UNL1        0.0535
     34 C         -62.2817  -50.6124  -23.3659 C.ar    1  UNL1        0.0353
     35 C         -62.5918  -51.7149  -22.5656 C.ar    1  UNL1        0.1002
     36 N         -61.6161  -52.5861  -22.1957 N.ar    1  UNL1       -0.2422
     37 C         -60.3244  -52.4144  -22.5825 C.ar    1  UNL1        0.1002
     38 C         -59.9712  -51.3243  -23.3815 C.ar    1  UNL1        0.0353
     39 C         -61.3877  -47.4956  -27.7492 C.3     1  UNL1        0.0569
     40 C         -61.7516  -44.8033  -29.8813 C.ar    1  UNL1       -0.0214
     41 C         -62.3010  -43.7850  -30.7013 C.ar    1  UNL1       -0.0042
     42 C         -63.6753  -43.5039  -30.7049 C.ar    1  UNL1        0.0012
     43 C         -64.5437  -44.2209  -29.8829 C.ar    1  UNL1        0.0169
     44 C         -64.0162  -45.2330  -29.0891 C.ar    1  UNL1        0.0560
     45 N         -64.7204  -45.9828  -28.2311 N.ar    1  UNL1       -0.3523
     46 C         -63.8451  -46.8256  -27.6616 C.ar    1  UNL1        0.0681
     47 C         -62.5649  -46.6411  -28.1782 C.ar    1  UNL1       -0.0020
     48 C         -62.6678  -45.5632  -29.0874 C.ar    1  UNL1        0.0091
     49 H         -65.7431  -45.9182  -28.0288 H       1  UNL1        0.1660
     50 C         -59.6242  -44.6071  -31.2513 C.3     1  UNL1        0.0047
     51 C         -60.2362  -44.9457  -29.8800 C.3     1  UNL1        0.0224
     52 C         -59.5859  -44.2473  -28.6730 C.3     1  UNL1        0.0047
@<TRIPOS>BOND
     1    50    51    1
     2    51    52    1
     3    51    40    1
     4    40    41   ar
     5    41    42   ar
     6    42    43   ar
     7    43    44   ar
     8    44    45   ar
     9    45    46   ar
    10    46    47   ar
    11    47    39    1
    12    39    28    1
    13    28     1    1
    14     1     2   am
    15     2     3    2
    16     2     5    1
    17     5     6   ar
    18     6     7   ar
    19     7     8   ar
    20     8    12    1
    21    12    13    1
    22    13    14    1
    23    14    15    1
    24    15    18    1
    25    18    19   ar
    26    19    20   ar
    27    20    21   ar
    28    21    22   ar
    29    22    24    1
    30    24    25    1
    31    24    26    1
    32    24    27    1
    33    22    23   ar
    34    15    16    1
    35    16    17    1
    36     8     9   ar
    37     9    10   ar
    38    10    11    1
    39    28    29    1
    40    29    30    2
    41    29    31   am
    42    31    33    1
    43    33    34   ar
    44    34    35   ar
    45    35    36   ar
    46    36    37   ar
    47    37    38   ar
    48    47    48   ar
    49    48    40   ar
    50    48    44   ar
    51    10     5   ar
    52    38    33   ar
    53    17    12    1
    54    23    18   ar
    55    45    49    1
    56     1     4    1
    57    31    32    1
@<TRIPOS>MOLECULE
*****
 52 57 0 0 0
SMALL
GASTEIGER

@<TRIPOS>ATOM
      1 N         -63.3460  -40.5691  -19.7185 N.am    1  UNL1       -0.2945
      2 C         -62.1907  -41.3774  -19.9969 C.2     1  UNL1        0.2483
      3 O         -61.4671  -41.7883  -19.0488 O.2     1  UNL1       -0.2701
      4 H         -64.0019  -40.3507  -20.5021 H       1  UNL1        0.1501
      5 C         -61.8542  -41.7684  -21.3837 C.ar    1  UNL1        0.0808
      6 C         -62.8440  -41.7082  -22.3786 C.ar    1  UNL1        0.0080
      7 C         -62.5484  -42.0635  -23.6969 C.ar    1  UNL1        0.0148
      8 C         -61.2606  -42.4967  -24.0442 C.ar    1  UNL1        0.0502
      9 C         -60.2731  -42.5730  -23.0492 C.ar    1  UNL1        0.0443
     10 C         -60.5647  -42.2179  -21.7284 C.ar    1  UNL1        0.1457
     11 F         -59.6003  -42.3662  -20.7852 F       1  UNL1       -0.2040
     12 N         -60.9612  -42.8575  -25.4059 N.pl3   1  UNL1       -0.3040
     13 C         -61.1275  -44.2461  -25.8516 C.3     1  UNL1        0.1122
     14 C         -61.6914  -44.2723  -27.2709 C.3     1  UNL1        0.1122
     15 N         -60.9133  -43.3755  -28.1339 N.pl3   1  UNL1       -0.3041
     16 C         -60.7340  -41.9863  -27.6948 C.3     1  UNL1        0.1122
     17 C         -60.1905  -41.9498  -26.2644 C.3     1  UNL1        0.1122
     18 C         -60.6239  -43.7554  -29.4926 C.ar    1  UNL1        0.0479
     19 C         -59.4976  -44.5414  -29.7786 C.ar    1  UNL1        0.0145
     20 C         -59.2182  -44.9217  -31.0924 C.ar    1  UNL1        0.0012
     21 C         -60.0535  -44.5138  -32.1347 C.ar    1  UNL1        0.0039
     22 C         -61.1704  -43.7013  -31.8742 C.ar    1  UNL1        0.0726
     23 C         -61.4607  -43.3448  -30.5452 C.ar    1  UNL1        0.0184
     24 C         -62.1019  -43.3015  -32.9908 C.3     1  UNL1        0.4186
     25 F         -61.4510  -43.3552  -34.2114 F       1  UNL1       -0.1659
     26 F         -62.5453  -42.0104  -32.7731 F       1  UNL1       -0.1659
     27 F         -63.1941  -44.1501  -33.0461 F       1  UNL1       -0.1659
     28 C         -63.6838  -40.1252  -18.3611 C.3     1  UNL1        0.1535
     29 C         -63.8610  -38.6267  -18.3168 C.2     1  UNL1        0.2443
     30 O         -62.9832  -37.9095  -17.7628 O.2     1  UNL1       -0.2730
     31 N         -64.9803  -38.0187  -18.9827 N.am    1  UNL1       -0.2825
     32 H         -65.5378  -38.6109  -19.6394 H       1  UNL1        0.1549
     33 C         -65.2541  -36.6085  -18.9576 C.ar    1  UNL1        0.0535
     34 C         -64.4364  -35.7154  -18.2459 C.ar    1  UNL1        0.0353
     35 C         -64.7514  -34.3542  -18.2347 C.ar    1  UNL1        0.1002
     36 N         -65.8483  -33.9017  -18.8978 N.ar    1  UNL1       -0.2422
     37 C         -66.6660  -34.7461  -19.5806 C.ar    1  UNL1        0.1002
     38 C         -66.3883  -36.1146  -19.6157 C.ar    1  UNL1        0.0353
     39 C         -64.9223  -40.8688  -17.8009 C.3     1  UNL1        0.0569
     40 C         -65.9925  -42.4578  -20.6744 C.ar    1  UNL1       -0.0214
     41 C         -66.2557  -43.4344  -21.6684 C.ar    1  UNL1       -0.0042
     42 C         -66.0322  -44.7997  -21.4368 C.ar    1  UNL1        0.0012
     43 C         -65.5505  -45.2359  -20.2032 C.ar    1  UNL1        0.0169
     44 C         -65.2729  -44.2837  -19.2290 C.ar    1  UNL1        0.0560
     45 N         -64.8354  -44.5544  -17.9923 N.ar    1  UNL1       -0.3523
     46 C         -64.7040  -43.3716  -17.3723 C.ar    1  UNL1        0.0681
     47 C         -65.0305  -42.3207  -18.2258 C.ar    1  UNL1       -0.0020
     48 C         -65.4468  -42.9220  -19.4358 C.ar    1  UNL1        0.0091
     49 H         -64.6480  -45.4962  -17.5813 H       1  UNL1        0.1660
     50 C         -65.8889  -40.5984  -22.3986 C.3     1  UNL1        0.0047
     51 C         -66.3746  -41.0210  -21.0004 C.3     1  UNL1        0.0224
     52 C         -67.8539  -40.7274  -20.6955 C.3     1  UNL1        0.0047
@<TRIPOS>BOND
     1    50    51    1
     2    51    52    1
     3    51    40    1
     4    40    41   ar
     5    41    42   ar
     6    42    43   ar
     7    43    44   ar
     8    44    45   ar
     9    45    46   ar
    10    46    47   ar
    11    47    39    1
    12    39    28    1
    13    28     1    1
    14     1     2   am
    15     2     3    2
    16     2     5    1
    17     5     6   ar
    18     6     7   ar
    19     7     8   ar
    20     8    12    1
    21    12    13    1
    22    13    14    1
    23    14    15    1
    24    15    18    1
    25    18    19   ar
    26    19    20   ar
    27    20    21   ar
    28    21    22   ar
    29    22    24    1
    30    24    25    1
    31    24    26    1
    32    24    27    1
    33    22    23   ar
    34    15    16    1
    35    16    17    1
    36     8     9   ar
    37     9    10   ar
    38    10    11    1
    39    28    29    1
    40    29    30    2
    41    29    31   am
    42    31    33    1
    43    33    34   ar
    44    34    35   ar
    45    35    36   ar
    46    36    37   ar
    47    37    38   ar
    48    47    48   ar
    49    48    40   ar
    50    48    44   ar
    51    10     5   ar
    52    38    33   ar
    53    17    12    1
    54    23    18   ar
    55    45    49    1
    56     1     4    1
    57    31    32    1
@<TRIPOS>MOLECULE
*****
 52 57 0 0 0
SMALL
GASTEIGER

@<TRIPOS>ATOM
      1 N         -60.9030  -44.5903  -26.2608 N.am    1  UNL1       -0.2945
      2 C         -60.4951  -45.9306  -26.5812 C.2     1  UNL1        0.2483
      3 O         -59.4822  -46.1231  -27.3082 O.2     1  UNL1       -0.2701
      4 H         -61.6610  -44.4555  -25.5543 H       1  UNL1        0.1501
      5 C         -61.2267  -47.0968  -26.0391 C.ar    1  UNL1        0.0808
      6 C         -60.9730  -47.5223  -24.7246 C.ar    1  UNL1        0.0080
      7 C         -61.6576  -48.6150  -24.1872 C.ar    1  UNL1        0.0148
      8 C         -62.6011  -49.3107  -24.9569 C.ar    1  UNL1        0.0502
      9 C         -62.8458  -48.8979  -26.2763 C.ar    1  UNL1        0.0443
     10 C         -62.1628  -47.8043  -26.8181 C.ar    1  UNL1        0.1457
     11 F         -62.3819  -47.4770  -28.1167 F       1  UNL1       -0.2040
     12 N         -63.3065  -50.4338  -24.3956 N.pl3   1  UNL1       -0.3040
     13 C         -64.6478  -50.7769  -24.8830 C.3     1  UNL1        0.1122
     14 C         -64.8020  -52.2949  -24.9548 C.3     1  UNL1        0.1122
     15 N         -64.3682  -52.9012  -23.6904 N.pl3   1  UNL1       -0.3041
     16 C         -63.0315  -52.5595  -23.1892 C.3     1  UNL1        0.1122
     17 C         -62.8595  -51.0395  -23.1354 C.3     1  UNL1        0.1122
     18 C         -65.0880  -54.0233  -23.1455 C.ar    1  UNL1        0.0479
     19 C         -64.4286  -54.9507  -22.3249 C.ar    1  UNL1        0.0145
     20 C         -65.1238  -56.0342  -21.7850 C.ar    1  UNL1        0.0012
     21 C         -66.4806  -56.2090  -22.0662 C.ar    1  UNL1        0.0039
     22 C         -67.1535  -55.3085  -22.9098 C.ar    1  UNL1        0.0726
     23 C         -66.4533  -54.2044  -23.4280 C.ar    1  UNL1        0.0184
     24 C         -68.6298  -55.4664  -23.1743 C.3     1  UNL1        0.4186
     25 F         -68.8451  -56.3206  -24.2420 F       1  UNL1       -0.1659
     26 F         -69.1739  -54.2303  -23.4693 F       1  UNL1       -0.1659
     27 F         -69.2735  -55.9895  -22.0661 F       1  UNL1       -0.1659
     28 C         -60.2288  -43.4113  -26.8170 C.3     1  UNL1        0.1535
     29 C         -60.7112  -43.1310  -28.2196 C.2     1  UNL1        0.2443
     30 O         -61.4428  -42.1270  -28.4402 O.2     1  UNL1       -0.2730
     31 N         -60.2623  -43.9549  -29.3085 N.am    1  UNL1       -0.2825
     32 H         -59.4661  -44.6083  -29.1300 H       1  UNL1        0.1549
     33 C         -60.7013  -43.7913  -30.6668 C.ar    1  UNL1        0.0535
     34 C         -62.0143  -43.3955  -30.9703 C.ar    1  UNL1        0.0353
     35 C         -62.4025  -43.2666  -32.3063 C.ar    1  UNL1        0.1002
     36 N         -61.5180  -43.5348  -33.3032 N.ar    1  UNL1       -0.2422
     37 C         -60.2466  -43.9356  -33.0380 C.ar    1  UNL1        0.1002
     38 C         -59.8183  -44.0788  -31.7161 C.ar    1  UNL1        0.0353
     39 C         -60.3778  -42.1729  -25.8980 C.3     1  UNL1        0.0569
     40 C         -60.5889  -43.4093  -22.6802 C.ar    1  UNL1       -0.0214
     41 C         -61.0383  -43.7198  -21.3715 C.ar    1  UNL1       -0.0042
     42 C         -62.3511  -43.4467  -20.9596 C.ar    1  UNL1        0.0012
     43 C         -63.2608  -42.8663  -21.8427 C.ar    1  UNL1        0.0169
     44 C         -62.8235  -42.5422  -23.1220 C.ar    1  UNL1        0.0560
     45 N         -63.5888  -42.0098  -24.0838 N.ar    1  UNL1       -0.3523
     46 C         -62.7966  -41.8628  -25.1569 C.ar    1  UNL1        0.0681
     47 C         -61.4960  -42.2760  -24.8785 C.ar    1  UNL1       -0.0020
     48 C         -61.5223  -42.7640  -23.5518 C.ar    1  UNL1        0.0091
     49 H         -64.6035  -41.7701  -24.0226 H       1  UNL1        0.1660
     50 C         -58.1084  -43.0622  -22.2707 C.3     1  UNL1        0.0047
     51 C         -59.1789  -43.8491  -23.0481 C.3     1  UNL1        0.0224
     52 C         -59.0217  -45.3796  -23.0286 C.3     1  UNL1        0.0047
@<TRIPOS>BOND
     1    50    51    1
     2    51    52    1
     3    51    40    1
     4    40    41   ar
     5    41    42   ar
     6    42    43   ar
     7    43    44   ar
     8    44    45   ar
     9    45    46   ar
    10    46    47   ar
    11    47    39    1
    12    39    28    1
    13    28     1    1
    14     1     2   am
    15     2     3    2
    16     2     5    1
    17     5     6   ar
    18     6     7   ar
    19     7     8   ar
    20     8    12    1
    21    12    13    1
    22    13    14    1
    23    14    15    1
    24    15    18    1
    25    18    19   ar
    26    19    20   ar
    27    20    21   ar
    28    21    22   ar
    29    22    24    1
    30    24    25    1
    31    24    26    1
    32    24    27    1
    33    22    23   ar
    34    15    16    1
    35    16    17    1
    36     8     9   ar
    37     9    10   ar
    38    10    11    1
    39    28    29    1
    40    29    30    2
    41    29    31   am
    42    31    33    1
    43    33    34   ar
    44    34    35   ar
    45    35    36   ar
    46    36    37   ar
    47    37    38   ar
    48    47    48   ar
    49    48    40   ar
    50    48    44   ar
    51    10     5   ar
    52    38    33   ar
    53    17    12    1
    54    23    18   ar
    55    45    49    1
    56     1     4    1
    57    31    32    1
@<TRIPOS>MOLECULE
*****
 52 57 0 0 0
SMALL
GASTEIGER

@<TRIPOS>ATOM
      1 N         -66.4078  -54.3695  -22.6976 N.am    1  UNL1       -0.2945
      2 C         -67.6968  -53.7632  -22.5073 C.2     1  UNL1        0.2483
      3 O         -68.1766  -53.0120  -23.3999 O.2     1  UNL1       -0.2701
      4 H         -66.0886  -55.0883  -22.0095 H       1  UNL1        0.1501
      5 C         -68.4917  -54.0363  -21.2896 C.ar    1  UNL1        0.0808
      6 C         -67.8965  -53.8833  -20.0264 C.ar    1  UNL1        0.0080
      7 C         -68.6291  -54.1264  -18.8620 C.ar    1  UNL1        0.0148
      8 C         -69.9675  -54.5380  -18.9376 C.ar    1  UNL1        0.0502
      9 C         -70.5610  -54.7071  -20.1987 C.ar    1  UNL1        0.0443
     10 C         -69.8313  -54.4645  -21.3669 C.ar    1  UNL1        0.1457
     11 F         -70.4221  -54.7006  -22.5655 F       1  UNL1       -0.2040
     12 N         -70.7185  -54.7829  -17.7334 N.pl3   1  UNL1       -0.3040
     13 C         -71.9717  -54.0590  -17.4892 C.3     1  UNL1        0.1122
     14 C         -72.9939  -54.9927  -16.8439 C.3     1  UNL1        0.1122
     15 N         -72.3845  -55.6897  -15.7049 N.pl3   1  UNL1       -0.3041
     16 C         -71.1269  -56.4109  -15.9355 C.3     1  UNL1        0.1122
     17 C         -70.1034  -55.4892  -16.6030 C.3     1  UNL1        0.1122
     18 C         -73.1524  -55.9240  -14.5093 C.ar    1  UNL1        0.0479
     19 C         -74.4066  -56.5474  -14.5896 C.ar    1  UNL1        0.0145
     20 C         -75.1505  -56.7870  -13.4329 C.ar    1  UNL1        0.0012
     21 C         -74.6555  -56.3982  -12.1861 C.ar    1  UNL1        0.0039
     22 C         -73.4148  -55.7455  -12.0859 C.ar    1  UNL1        0.0726
     23 C         -72.6589  -55.5320  -13.2525 C.ar    1  UNL1        0.0184
     24 C         -72.8553  -55.3702  -10.7366 C.3     1  UNL1        0.4186
     25 F         -71.7373  -54.5665  -10.8790 F       1  UNL1       -0.1659
     26 F         -72.5002  -56.5196  -10.0557 F       1  UNL1       -0.1659
     27 F         -73.7938  -54.6766   -9.9920 F       1  UNL1       -0.1659
     28 C         -65.5732  -54.0856  -23.8709 C.3     1  UNL1        0.1535
     29 C         -66.2920  -54.4641  -25.1432 C.2     1  UNL1        0.2443
     30 O         -65.7542  -54.2265  -26.2595 O.2     1  UNL1       -0.2730
     31 N         -67.5408  -55.1726  -25.0756 N.am    1  UNL1       -0.2825
     32 H         -67.8248  -55.5739  -24.1531 H       1  UNL1        0.1549
     33 C         -68.3163  -55.5348  -26.2296 C.ar    1  UNL1        0.0535
     34 C         -69.1614  -54.6101  -26.8649 C.ar    1  UNL1        0.0353
     35 C         -69.9108  -55.0117  -27.9735 C.ar    1  UNL1        0.1002
     36 N         -69.8306  -56.2916  -28.4245 N.ar    1  UNL1       -0.2422
     37 C         -69.0338  -57.2112  -27.8186 C.ar    1  UNL1        0.1002
     38 C         -68.2694  -56.8516  -26.7061 C.ar    1  UNL1        0.0353
     39 C         -65.0934  -52.6125  -23.8964 C.3     1  UNL1        0.0569
     40 C         -62.7880  -50.0588  -24.1973 C.ar    1  UNL1       -0.0214
     41 C         -61.6513  -49.2284  -24.0261 C.ar    1  UNL1       -0.0042
     42 C         -60.5524  -49.6341  -23.2544 C.ar    1  UNL1        0.0012
     43 C         -60.5469  -50.8851  -22.6386 C.ar    1  UNL1        0.0169
     44 C         -61.6647  -51.6984  -22.7865 C.ar    1  UNL1        0.0560
     45 N         -61.7900  -52.9320  -22.2799 N.ar    1  UNL1       -0.3523
     46 C         -63.0007  -53.3720  -22.6557 C.ar    1  UNL1        0.0681
     47 C         -63.6802  -52.4016  -23.3880 C.ar    1  UNL1       -0.0020
     48 C         -62.7845  -51.3146  -23.5117 C.ar    1  UNL1        0.0091
     49 H         -61.0839  -53.4583  -21.7182 H       1  UNL1        0.1660
     50 C         -64.8237  -48.5650  -24.4543 C.3     1  UNL1        0.0047
     51 C         -63.8714  -49.5593  -25.1427 C.3     1  UNL1        0.0224
     52 C         -63.2990  -49.1012  -26.4955 C.3     1  UNL1        0.0047
@<TRIPOS>BOND
     1    50    51    1
     2    51    52    1
     3    51    40    1
     4    40    41   ar
     5    41    42   ar
     6    42    43   ar
     7    43    44   ar
     8    44    45   ar
     9    45    46   ar
    10    46    47   ar
    11    47    39    1
    12    39    28    1
    13    28     1    1
    14     1     2   am
    15     2     3    2
    16     2     5    1
    17     5     6   ar
    18     6     7   ar
    19     7     8   ar
    20     8    12    1
    21    12    13    1
    22    13    14    1
    23    14    15    1
    24    15    18    1
    25    18    19   ar
    26    19    20   ar
    27    20    21   ar
    28    21    22   ar
    29    22    24    1
    30    24    25    1
    31    24    26    1
    32    24    27    1
    33    22    23   ar
    34    15    16    1
    35    16    17    1
    36     8     9   ar
    37     9    10   ar
    38    10    11    1
    39    28    29    1
    40    29    30    2
    41    29    31   am
    42    31    33    1
    43    33    34   ar
    44    34    35   ar
    45    35    36   ar
    46    36    37   ar
    47    37    38   ar
    48    47    48   ar
    49    48    40   ar
    50    48    44   ar
    51    10     5   ar
    52    38    33   ar
    53    17    12    1
    54    23    18   ar
    55    45    49    1
    56     1     4    1
    57    31    32    1
@<TRIPOS>MOLECULE
*****
 52 57 0 0 0
SMALL
GASTEIGER

@<TRIPOS>ATOM
      1 N         -61.1281  -44.7093  -26.0729 N.am    1  UNL1       -0.2945
      2 C         -60.4417  -45.9125  -25.6900 C.2     1  UNL1        0.2483
      3 O         -59.1807  -45.9368  -25.6658 O.2     1  UNL1       -0.2701
      4 H         -62.1662  -44.6703  -25.9599 H       1  UNL1        0.1501
      5 C         -61.1949  -47.1202  -25.2858 C.ar    1  UNL1        0.0808
      6 C         -60.7627  -47.8657  -24.1764 C.ar    1  UNL1        0.0080
      7 C         -61.4624  -49.0044  -23.7699 C.ar    1  UNL1        0.0148
      8 C         -62.6011  -49.4267  -24.4710 C.ar    1  UNL1        0.0502
      9 C         -63.0268  -48.6929  -25.5897 C.ar    1  UNL1        0.0443
     10 C         -62.3295  -47.5521  -25.9998 C.ar    1  UNL1        0.1457
     11 F         -62.7364  -46.9079  -27.1228 F       1  UNL1       -0.2040
     12 N         -63.3204  -50.5991  -24.0442 N.pl3   1  UNL1       -0.3040
     13 C         -64.6503  -50.8861  -24.5949 C.3     1  UNL1        0.1122
     14 C         -64.8041  -52.3882  -24.8255 C.3     1  UNL1        0.1122
     15 N         -64.4003  -53.1224  -23.6203 N.pl3   1  UNL1       -0.3041
     16 C         -63.0752  -52.8382  -23.0562 C.3     1  UNL1        0.1122
     17 C         -62.9032  -51.3323  -22.8428 C.3     1  UNL1        0.1122
     18 C         -65.1334  -54.2921  -23.2100 C.ar    1  UNL1        0.0479
     19 C         -64.7321  -55.0113  -22.0743 C.ar    1  UNL1        0.0145
     20 C         -65.4455  -56.1395  -21.6656 C.ar    1  UNL1        0.0012
     21 C         -66.5597  -56.5672  -22.3910 C.ar    1  UNL1        0.0039
     22 C         -66.9612  -55.8789  -23.5487 C.ar    1  UNL1        0.0726
     23 C         -66.2541  -54.7275  -23.9388 C.ar    1  UNL1        0.0184
     24 C         -68.1933  -56.3085  -24.3049 C.3     1  UNL1        0.4186
     25 F         -69.1161  -56.8824  -23.4474 F       1  UNL1       -0.1659
     26 F         -67.8365  -57.2340  -25.2677 F       1  UNL1       -0.1659
     27 F         -68.7932  -55.2243  -24.9220 F       1  UNL1       -0.1659
     28 C         -60.4142  -43.5085  -26.5225 C.3     1  UNL1        0.1535
     29 C         -60.8315  -43.1308  -27.9232 C.2     1  UNL1        0.2443
     30 O         -60.6989  -41.9389  -28.3152 O.2     1  UNL1       -0.2730
     31 N         -61.2921  -44.1459  -28.8306 N.am    1  UNL1       -0.2825
     32 H         -61.1472  -45.1450  -28.5594 H       1  UNL1        0.1549
     33 C         -61.7506  -43.8751  -30.1651 C.ar    1  UNL1        0.0535
     34 C         -60.8501  -43.7080  -31.2300 C.ar    1  UNL1        0.0353
     35 C         -61.3404  -43.4280  -32.5080 C.ar    1  UNL1        0.1002
     36 N         -62.6785  -43.3063  -32.7143 N.ar    1  UNL1       -0.2422
     37 C         -63.5710  -43.4466  -31.6988 C.ar    1  UNL1        0.1002
     38 C         -63.1228  -43.7251  -30.4055 C.ar    1  UNL1        0.0353
     39 C         -60.5857  -42.3291  -25.5324 C.3     1  UNL1        0.0569
     40 C         -62.3155  -42.2077  -22.5457 C.ar    1  UNL1       -0.0214
     41 C         -63.3106  -41.9814  -21.5610 C.ar    1  UNL1       -0.0042
     42 C         -64.6066  -41.5695  -21.9049 C.ar    1  UNL1        0.0012
     43 C         -64.9551  -41.3814  -23.2418 C.ar    1  UNL1        0.0169
     44 C         -63.9807  -41.5837  -24.2126 C.ar    1  UNL1        0.0560
     45 N         -64.1760  -41.4704  -25.5329 N.ar    1  UNL1       -0.3523
     46 C         -62.9999  -41.7548  -26.1130 C.ar    1  UNL1        0.0681
     47 C         -62.0235  -42.0256  -25.1575 C.ar    1  UNL1       -0.0020
     48 C         -62.6786  -41.9554  -23.9065 C.ar    1  UNL1        0.0091
     49 H         -65.0669  -41.2263  -26.0204 H       1  UNL1        0.1660
     50 C         -60.5260  -42.0951  -20.7495 C.3     1  UNL1        0.0047
     51 C         -60.9798  -42.7558  -22.0637 C.3     1  UNL1        0.0224
     52 C         -60.9401  -44.2939  -22.0810 C.3     1  UNL1        0.0047
@<TRIPOS>BOND
     1    50    51    1
     2    51    52    1
     3    51    40    1
     4    40    41   ar
     5    41    42   ar
     6    42    43   ar
     7    43    44   ar
     8    44    45   ar
     9    45    46   ar
    10    46    47   ar
    11    47    39    1
    12    39    28    1
    13    28     1    1
    14     1     2   am
    15     2     3    2
    16     2     5    1
    17     5     6   ar
    18     6     7   ar
    19     7     8   ar
    20     8    12    1
    21    12    13    1
    22    13    14    1
    23    14    15    1
    24    15    18    1
    25    18    19   ar
    26    19    20   ar
    27    20    21   ar
    28    21    22   ar
    29    22    24    1
    30    24    25    1
    31    24    26    1
    32    24    27    1
    33    22    23   ar
    34    15    16    1
    35    16    17    1
    36     8     9   ar
    37     9    10   ar
    38    10    11    1
    39    28    29    1
    40    29    30    2
    41    29    31   am
    42    31    33    1
    43    33    34   ar
    44    34    35   ar
    45    35    36   ar
    46    36    37   ar
    47    37    38   ar
    48    47    48   ar
    49    48    40   ar
    50    48    44   ar
    51    10     5   ar
    52    38    33   ar
    53    17    12    1
    54    23    18   ar
    55    45    49    1
    56     1     4    1
    57    31    32    1
