@<TRIPOS>MOLECULE
*****
 46 50 0 0 0
SMALL
GASTEIGER

@<TRIPOS>ATOM
      1 N          -9.4127   -6.1975   32.2962 N.3     1  UNL1       -0.3183
      2 C          -8.1934   -6.6711   31.6249 C.3     1  UNL1        0.1088
      3 C          -8.4691   -7.5561   30.3801 C.3     1  UNL1        0.1703
      4 N          -8.1495   -8.9225   30.7759 N.am    1  UNL1       -0.2532
      5 C          -8.0342  -10.0055   29.8320 C.2     1  UNL1        0.3081
      6 O          -7.9951   -9.7482   28.5987 O.2     1  UNL1       -0.2522
      7 N          -7.9334  -11.3649   30.2968 N.am    1  UNL1       -0.2681
      8 C          -7.5901   -9.0018   32.1180 C.3     1  UNL1        0.1278
      9 C          -7.3376   -7.5494   32.5813 C.3     1  UNL1        0.1421
     10 O          -7.7951   -7.4153   33.9109 O.3     1  UNL1       -0.3795
     11 H         -10.0254   -7.0064   32.5445 H       1  UNL1        0.1189
     12 H          -9.9378   -5.5558   31.6593 H       1  UNL1        0.1189
     13 H          -7.8252  -11.5196   31.3234 H       1  UNL1        0.1564
     14 H          -7.2773   -8.0515   34.4723 H       1  UNL1        0.2108
     15 C          -5.8553   -7.1269   32.4887 C.ar    1  UNL1        0.0323
     16 C          -5.0491   -7.1682   33.6493 C.ar    1  UNL1        0.0026
     17 C          -3.7163   -6.7513   33.6167 C.ar    1  UNL1        0.0295
     18 C          -3.1649   -6.2598   32.4355 C.ar    1  UNL1        0.1424
     19 F          -1.8720   -5.8524   32.4075 F       1  UNL1       -0.2041
     20 C          -3.9502   -6.1703   31.2872 C.ar    1  UNL1        0.0590
     21 C          -5.2863   -6.5838   31.3076 C.ar    1  UNL1        0.1406
     22 F          -6.0080   -6.4330   30.1712 F       1  UNL1       -0.2043
     23 C          -7.9185  -12.5388   29.4613 C.ar    1  UNL1        0.0516
     24 C          -9.1331  -13.1864   29.1804 C.ar    1  UNL1        0.0156
     25 C          -9.1721  -14.2850   28.3177 C.ar    1  UNL1        0.0127
     26 C          -7.9975  -14.7465   27.7182 C.ar    1  UNL1        0.0578
     27 CL         -8.0491  -16.1167   26.6247 Cl      1  UNL1       -0.0822
     28 C          -6.7838  -14.1057   27.9811 C.ar    1  UNL1        0.0127
     29 C          -6.7414  -13.0061   28.8439 C.ar    1  UNL1        0.0156
     30 C          -9.8650   -7.4196   29.7945 C.2     1  UNL1        0.2467
     31 O          -9.9875   -6.8912   28.6571 O.2     1  UNL1       -0.2729
     32 N         -11.0519   -7.7288   30.5410 N.am    1  UNL1       -0.2680
     33 H         -11.9104   -7.1727   30.3296 H       1  UNL1        0.1563
     34 C         -11.2615   -9.0073   31.1382 C.ar    1  UNL1        0.1346
     35 C         -11.4312  -10.1427   30.3405 C.ar    1  UNL1        0.0406
     36 C         -11.6492  -11.3799   30.9495 C.ar    1  UNL1        0.0736
     37 C         -11.6746  -11.4813   32.3496 C.ar    1  UNL1        0.2466
     38 C         -11.4379  -10.3238   33.1078 C.ar    1  UNL1        0.1691
     39 N         -11.2506   -9.1269   32.4925 N.ar    1  UNL1       -0.2228
     40 N         -11.9441  -12.7413   33.0011 N.am    1  UNL1       -0.0841
     41 C         -13.0541  -13.4532   32.6309 C.2     1  UNL1        0.2905
     42 C         -13.3364  -14.6900   33.2134 C.2     1  UNL1        0.0758
     43 C         -12.4769  -15.2034   34.1804 C.2     1  UNL1        0.0161
     44 C         -11.3485  -14.4786   34.5557 C.2     1  UNL1        0.1156
     45 C         -11.0897  -13.2420   33.9551 C.2     1  UNL1        0.4230
     46 O         -10.0534  -12.6069   34.2926 O.2     1  UNL1       -0.2135
@<TRIPOS>BOND
     1     1     2    1
     2     2     3    1
     3     3    30    1
     4    30    31    2
     5    30    32   am
     6    32    34    1
     7    34    35   ar
     8    35    36   ar
     9    36    37   ar
    10    37    40    1
    11    40    41    1
    12    41    42    2
    13    42    43    1
    14    43    44    2
    15    44    45    1
    16    45    46    2
    17    37    38   ar
    18    38    39   ar
    19     3     4    1
    20     4     5   am
    21     5     6    2
    22     5     7   am
    23     7    23    1
    24    23    24   ar
    25    24    25   ar
    26    25    26   ar
    27    26    27    1
    28    26    28   ar
    29    28    29   ar
    30     4     8    1
    31     8     9    1
    32     9    10    1
    33     9    15    1
    34    15    16   ar
    35    16    17   ar
    36    17    18   ar
    37    18    19    1
    38    18    20   ar
    39    20    21   ar
    40    21    22    1
    41     9     2    1
    42    21    15   ar
    43    39    34   ar
    44    29    23   ar
    45    45    40    1
    46     1    11    1
    47     1    12    1
    48    32    33    1
    49     7    13    1
    50    10    14    1
