@<TRIPOS>MOLECULE
*****
 51 56 0 0 0
SMALL
GASTEIGER

@<TRIPOS>ATOM
      1 O         -66.6438  -39.4460  -21.2029 O.2     1  UNL1       -0.2701
      2 C         -65.4784  -39.9070  -21.3488 C.2     1  UNL1        0.2483
      3 N         -64.5710  -39.9193  -20.2350 N.am    1  UNL1       -0.2945
      4 H         -63.5634  -40.1340  -20.4084 H       1  UNL1        0.1501
      5 C         -65.0546  -40.3954  -22.6798 C.ar    1  UNL1        0.0808
      6 C         -63.7621  -40.9174  -22.8469 C.ar    1  UNL1        0.0080
      7 C         -63.3415  -41.3897  -24.0924 C.ar    1  UNL1        0.0148
      8 C         -64.2014  -41.3421  -25.2033 C.ar    1  UNL1        0.0502
      9 C         -65.4873  -40.7980  -25.0403 C.ar    1  UNL1        0.0443
     10 C         -65.9120  -40.3263  -23.7941 C.ar    1  UNL1        0.1457
     11 F         -67.1418  -39.7607  -23.6963 F       1  UNL1       -0.2040
     12 N         -63.7661  -41.8261  -26.4937 N.pl3   1  UNL1       -0.3040
     13 C         -64.5503  -41.5265  -27.7002 C.3     1  UNL1        0.1123
     14 C         -63.6376  -41.4036  -28.9253 C.3     1  UNL1        0.1136
     15 N         -62.7120  -42.5437  -29.0371 N.pl3   1  UNL1       -0.2897
     16 C         -62.5704  -43.4792  -27.9122 C.3     1  UNL1        0.1136
     17 C         -62.6052  -42.7260  -26.5789 C.3     1  UNL1        0.1123
     18 C         -62.0497  -42.8281  -30.2903 C.ar    1  UNL1        0.1323
     19 C         -62.5800  -42.3916  -31.5142 C.ar    1  UNL1        0.0343
     20 C         -61.9114  -42.6866  -32.7019 C.ar    1  UNL1        0.0087
     21 C         -60.7104  -43.4166  -32.6843 C.ar    1  UNL1        0.0947
     22 C         -60.2061  -43.8325  -31.4324 C.ar    1  UNL1        0.1083
     23 S         -58.6785  -44.7622  -31.2814 S.3     1  UNL1       -0.1228
     24 N         -60.8827  -43.5293  -30.2932 N.ar    1  UNL1       -0.2248
     25 H         -57.9134  -43.5873  -31.1590 H       1  UNL1        0.1086
     26 C         -59.9826  -43.7374  -33.9724 C.3     1  UNL1        0.4204
     27 F         -60.8890  -43.8009  -35.0151 F       1  UNL1       -0.1658
     28 F         -59.0502  -42.7509  -34.2382 F       1  UNL1       -0.1658
     29 F         -59.3198  -44.9508  -33.8991 F       1  UNL1       -0.1658
     30 C         -65.0166  -39.6242  -18.8693 C.3     1  UNL1        0.1535
     31 C         -65.1228  -40.9198  -18.0984 C.2     1  UNL1        0.2443
     32 O         -66.1539  -41.1390  -17.4072 O.2     1  UNL1       -0.2730
     33 N         -64.0263  -41.8439  -18.0190 N.am    1  UNL1       -0.2825
     34 H         -63.9169  -42.3930  -17.1366 H       1  UNL1        0.1549
     35 C         -63.0556  -42.0356  -19.0582 C.ar    1  UNL1        0.0535
     36 C         -63.2329  -43.0205  -20.0410 C.ar    1  UNL1        0.0353
     37 C         -62.2598  -43.1896  -21.0286 C.ar    1  UNL1        0.1002
     38 N         -61.1406  -42.4178  -21.0220 N.ar    1  UNL1       -0.2422
     39 C         -60.9325  -41.4731  -20.0665 C.ar    1  UNL1        0.1002
     40 C         -61.8823  -41.2716  -19.0618 C.ar    1  UNL1        0.0353
     41 C         -64.0416  -38.6568  -18.1697 C.3     1  UNL1        0.0569
     42 C         -64.0945  -37.2883  -18.7877 C.ar    1  UNL1       -0.0017
     43 C         -64.9839  -36.2670  -18.4654 C.ar    1  UNL1        0.0681
     44 N         -64.6884  -35.1456  -19.1615 N.ar    1  UNL1       -0.3523
     45 C         -63.6151  -35.4468  -19.9129 C.ar    1  UNL1        0.0563
     46 C         -62.9318  -34.6021  -20.7868 C.ar    1  UNL1        0.0170
     47 C         -61.8140  -35.1222  -21.4647 C.ar    1  UNL1        0.0015
     48 C         -61.4085  -36.4591  -21.2554 C.ar    1  UNL1        0.0001
     49 C         -62.1170  -37.2877  -20.3668 C.ar    1  UNL1        0.0012
     50 C         -63.2214  -36.7448  -19.7101 C.ar    1  UNL1        0.0131
     51 H         -65.1866  -34.2293  -19.1112 H       1  UNL1        0.1660
@<TRIPOS>BOND
     1     1     2    2
     2     2     3   am
     3     3    30    1
     4    30    41    1
     5    41    42    1
     6    42    43   ar
     7    43    44   ar
     8    44    45   ar
     9    45    46   ar
    10    46    47   ar
    11    47    48   ar
    12    48    49   ar
    13    49    50   ar
    14    30    31    1
    15    31    32    2
    16    31    33   am
    17    33    35    1
    18    35    36   ar
    19    36    37   ar
    20    37    38   ar
    21    38    39   ar
    22    39    40   ar
    23     2     5    1
    24     5     6   ar
    25     6     7   ar
    26     7     8   ar
    27     8    12    1
    28    12    13    1
    29    13    14    1
    30    14    15    1
    31    15    18    1
    32    18    19   ar
    33    19    20   ar
    34    20    21   ar
    35    21    26    1
    36    26    27    1
    37    26    28    1
    38    26    29    1
    39    21    22   ar
    40    22    23    1
    41    22    24   ar
    42    15    16    1
    43    16    17    1
    44     8     9   ar
    45     9    10   ar
    46    10    11    1
    47    50    42   ar
    48    40    35   ar
    49    10     5   ar
    50    50    45   ar
    51    17    12    1
    52    24    18   ar
    53     3     4    1
    54    44    51    1
    55    33    34    1
    56    23    25    1
@<TRIPOS>MOLECULE
*****
 51 56 0 0 0
SMALL
GASTEIGER

@<TRIPOS>ATOM
      1 O         -60.4512  -47.2764  -24.5253 O.2     1  UNL1       -0.2701
      2 C         -61.6138  -46.7875  -24.5606 C.2     1  UNL1        0.2483
      3 N         -62.6285  -47.4160  -25.3601 N.am    1  UNL1       -0.2945
      4 H         -63.5273  -46.9090  -25.5233 H       1  UNL1        0.1501
      5 C         -61.9015  -45.5496  -23.8028 C.ar    1  UNL1        0.0808
      6 C         -62.2849  -45.6359  -22.4550 C.ar    1  UNL1        0.0080
      7 C         -62.5562  -44.4809  -21.7175 C.ar    1  UNL1        0.0148
      8 C         -62.4593  -43.2118  -22.3140 C.ar    1  UNL1        0.0502
      9 C         -62.0978  -43.1278  -23.6700 C.ar    1  UNL1        0.0443
     10 C         -61.8237  -44.2821  -24.4103 C.ar    1  UNL1        0.1457
     11 F         -61.5308  -44.1557  -25.7294 F       1  UNL1       -0.2040
     12 N         -62.7441  -42.0162  -21.5537 N.pl3   1  UNL1       -0.3040
     13 C         -61.7530  -40.9336  -21.4771 C.3     1  UNL1        0.1123
     14 C         -62.4444  -39.5712  -21.3549 C.3     1  UNL1        0.1136
     15 N         -63.4699  -39.5685  -20.2978 N.pl3   1  UNL1       -0.2897
     16 C         -63.8933  -40.8389  -19.6914 C.3     1  UNL1        0.1136
     17 C         -63.9761  -41.9400  -20.7529 C.3     1  UNL1        0.1123
     18 C         -63.9595  -38.3206  -19.7567 C.ar    1  UNL1        0.1323
     19 C         -65.3299  -38.0999  -19.5498 C.ar    1  UNL1        0.0343
     20 C         -65.7628  -36.8819  -19.0263 C.ar    1  UNL1        0.0087
     21 C         -64.8386  -35.8736  -18.7028 C.ar    1  UNL1        0.0947
     22 C         -63.4681  -36.1365  -18.9196 C.ar    1  UNL1        0.1083
     23 S         -62.1943  -34.9314  -18.5376 S.3     1  UNL1       -0.1228
     24 N         -63.0793  -37.3338  -19.4323 N.ar    1  UNL1       -0.2248
     25 H         -62.0452  -35.4253  -17.2282 H       1  UNL1        0.1086
     26 C         -65.3063  -34.5510  -18.1337 C.3     1  UNL1        0.4204
     27 F         -66.6006  -34.2974  -18.5500 F       1  UNL1       -0.1658
     28 F         -65.2735  -34.6012  -16.7518 F       1  UNL1       -0.1658
     29 F         -64.5038  -33.5014  -18.5477 F       1  UNL1       -0.1658
     30 C         -62.4310  -48.7380  -25.9637 C.3     1  UNL1        0.1535
     31 C         -63.6086  -49.6175  -25.6117 C.2     1  UNL1        0.2443
     32 O         -64.6388  -49.5820  -26.3374 O.2     1  UNL1       -0.2730
     33 N         -63.6418  -50.3862  -24.3991 N.am    1  UNL1       -0.2825
     34 H         -64.5696  -50.5294  -23.9399 H       1  UNL1        0.1549
     35 C         -62.4811  -50.9399  -23.7626 C.ar    1  UNL1        0.0535
     36 C         -62.2118  -52.3153  -23.8190 C.ar    1  UNL1        0.0353
     37 C         -61.0809  -52.8218  -23.1746 C.ar    1  UNL1        0.1002
     38 N         -60.2608  -51.9881  -22.4812 N.ar    1  UNL1       -0.2422
     39 C         -60.5124  -50.6550  -22.3900 C.ar    1  UNL1        0.1002
     40 C         -61.6326  -50.1085  -23.0214 C.ar    1  UNL1        0.0353
     41 C         -62.2773  -48.6266  -27.4934 C.3     1  UNL1        0.0569
     42 C         -62.6001  -47.2401  -27.9739 C.ar    1  UNL1       -0.0017
     43 C         -63.8670  -46.6727  -28.0776 C.ar    1  UNL1        0.0681
     44 N         -63.7759  -45.3805  -28.4667 N.ar    1  UNL1       -0.3523
     45 C         -62.4629  -45.1244  -28.6002 C.ar    1  UNL1        0.0563
     46 C         -61.8708  -43.9163  -28.9663 C.ar    1  UNL1        0.0170
     47 C         -60.4662  -43.8643  -29.0269 C.ar    1  UNL1        0.0015
     48 C         -59.6940  -45.0073  -28.7227 C.ar    1  UNL1        0.0001
     49 C         -60.3192  -46.2124  -28.3555 C.ar    1  UNL1        0.0012
     50 C         -61.7130  -46.2341  -28.3051 C.ar    1  UNL1        0.0131
     51 H         -64.5671  -44.7158  -28.6172 H       1  UNL1        0.1660
@<TRIPOS>BOND
     1     1     2    2
     2     2     3   am
     3     3    30    1
     4    30    41    1
     5    41    42    1
     6    42    43   ar
     7    43    44   ar
     8    44    45   ar
     9    45    46   ar
    10    46    47   ar
    11    47    48   ar
    12    48    49   ar
    13    49    50   ar
    14    30    31    1
    15    31    32    2
    16    31    33   am
    17    33    35    1
    18    35    36   ar
    19    36    37   ar
    20    37    38   ar
    21    38    39   ar
    22    39    40   ar
    23     2     5    1
    24     5     6   ar
    25     6     7   ar
    26     7     8   ar
    27     8    12    1
    28    12    13    1
    29    13    14    1
    30    14    15    1
    31    15    18    1
    32    18    19   ar
    33    19    20   ar
    34    20    21   ar
    35    21    26    1
    36    26    27    1
    37    26    28    1
    38    26    29    1
    39    21    22   ar
    40    22    23    1
    41    22    24   ar
    42    15    16    1
    43    16    17    1
    44     8     9   ar
    45     9    10   ar
    46    10    11    1
    47    50    42   ar
    48    40    35   ar
    49    10     5   ar
    50    50    45   ar
    51    17    12    1
    52    24    18   ar
    53     3     4    1
    54    44    51    1
    55    33    34    1
    56    23    25    1
@<TRIPOS>MOLECULE
*****
 51 56 0 0 0
SMALL
GASTEIGER

@<TRIPOS>ATOM
      1 O         -65.7351  -39.7598  -20.6919 O.2     1  UNL1       -0.2701
      2 C         -64.5397  -40.0040  -21.0132 C.2     1  UNL1        0.2483
      3 N         -63.4870  -39.7961  -20.0579 N.am    1  UNL1       -0.2945
      4 H         -62.4955  -39.8291  -20.3856 H       1  UNL1        0.1501
      5 C         -64.2397  -40.4677  -22.3860 C.ar    1  UNL1        0.0808
      6 C         -63.0013  -41.0704  -22.6584 C.ar    1  UNL1        0.0080
      7 C         -62.6976  -41.5212  -23.9452 C.ar    1  UNL1        0.0148
      8 C         -63.6226  -41.3711  -24.9929 C.ar    1  UNL1        0.0502
      9 C         -64.8532  -40.7466  -24.7242 C.ar    1  UNL1        0.0443
     10 C         -65.1608  -40.2961  -23.4366 C.ar    1  UNL1        0.1457
     11 F         -66.3382  -39.6515  -23.2359 F       1  UNL1       -0.2040
     12 N         -63.3081  -41.8328  -26.3258 N.pl3   1  UNL1       -0.3040
     13 C         -64.0520  -41.3160  -27.4834 C.3     1  UNL1        0.1123
     14 C         -63.1582  -41.2707  -28.7277 C.3     1  UNL1        0.1136
     15 N         -62.4532  -42.5454  -28.9443 N.pl3   1  UNL1       -0.2897
     16 C         -62.4566  -43.5676  -27.8879 C.3     1  UNL1        0.1136
     17 C         -62.3282  -42.9151  -26.5081 C.3     1  UNL1        0.1123
     18 C         -61.8790  -42.8538  -30.2347 C.ar    1  UNL1        0.1323
     19 C         -62.5206  -42.4874  -31.4279 C.ar    1  UNL1        0.0343
     20 C         -61.9346  -42.8036  -32.6532 C.ar    1  UNL1        0.0087
     21 C         -60.7064  -43.4852  -32.7040 C.ar    1  UNL1        0.0947
     22 C         -60.0894  -43.8309  -31.4816 C.ar    1  UNL1        0.1083
     23 S         -58.5172  -44.6939  -31.4180 S.3     1  UNL1       -0.1228
     24 N         -60.6875  -43.5088  -30.3043 N.ar    1  UNL1       -0.2248
     25 H         -57.7946  -43.4863  -31.4000 H       1  UNL1        0.1086
     26 C         -60.0682  -43.8289  -34.0330 C.3     1  UNL1        0.4204
     27 F         -59.4388  -45.0571  -33.9427 F       1  UNL1       -0.1658
     28 F         -61.0404  -43.8860  -35.0153 F       1  UNL1       -0.1658
     29 F         -59.1273  -42.8858  -34.4100 F       1  UNL1       -0.1658
     30 C         -63.7663  -39.5245  -18.6441 C.3     1  UNL1        0.1535
     31 C         -64.8977  -38.5267  -18.5516 C.2     1  UNL1        0.2443
     32 O         -65.9790  -38.8751  -18.0051 O.2     1  UNL1       -0.2730
     33 N         -64.8269  -37.2426  -19.1905 N.am    1  UNL1       -0.2825
     34 H         -65.7155  -36.8329  -19.5577 H       1  UNL1        0.1549
     35 C         -63.6121  -36.5042  -19.3856 C.ar    1  UNL1        0.0535
     36 C         -63.1060  -35.6656  -18.3816 C.ar    1  UNL1        0.0353
     37 C         -61.9290  -34.9497  -18.6118 C.ar    1  UNL1        0.1002
     38 N         -61.2927  -35.0511  -19.8090 N.ar    1  UNL1       -0.2422
     39 C         -61.7754  -35.8375  -20.8078 C.ar    1  UNL1        0.1002
     40 C         -62.9491  -36.5709  -20.6171 C.ar    1  UNL1        0.0353
     41 C         -64.1275  -40.8227  -17.8956 C.3     1  UNL1        0.0569
     42 C         -63.9835  -42.0236  -18.7872 C.ar    1  UNL1       -0.0017
     43 C         -64.9881  -42.9216  -19.1368 C.ar    1  UNL1        0.0681
     44 N         -64.5214  -43.8320  -20.0216 N.ar    1  UNL1       -0.3523
     45 C         -63.2345  -43.5112  -20.2408 C.ar    1  UNL1        0.0563
     46 C         -62.3381  -44.1512  -21.0958 C.ar    1  UNL1        0.0170
     47 C         -61.0331  -43.6335  -21.1875 C.ar    1  UNL1        0.0015
     48 C         -60.6582  -42.5002  -20.4323 C.ar    1  UNL1        0.0001
     49 C         -61.5845  -41.8747  -19.5785 C.ar    1  UNL1        0.0012
     50 C         -62.8701  -42.4110  -19.5074 C.ar    1  UNL1        0.0131
     51 H         -65.0595  -44.6148  -20.4553 H       1  UNL1        0.1660
@<TRIPOS>BOND
     1     1     2    2
     2     2     3   am
     3     3    30    1
     4    30    41    1
     5    41    42    1
     6    42    43   ar
     7    43    44   ar
     8    44    45   ar
     9    45    46   ar
    10    46    47   ar
    11    47    48   ar
    12    48    49   ar
    13    49    50   ar
    14    30    31    1
    15    31    32    2
    16    31    33   am
    17    33    35    1
    18    35    36   ar
    19    36    37   ar
    20    37    38   ar
    21    38    39   ar
    22    39    40   ar
    23     2     5    1
    24     5     6   ar
    25     6     7   ar
    26     7     8   ar
    27     8    12    1
    28    12    13    1
    29    13    14    1
    30    14    15    1
    31    15    18    1
    32    18    19   ar
    33    19    20   ar
    34    20    21   ar
    35    21    26    1
    36    26    27    1
    37    26    28    1
    38    26    29    1
    39    21    22   ar
    40    22    23    1
    41    22    24   ar
    42    15    16    1
    43    16    17    1
    44     8     9   ar
    45     9    10   ar
    46    10    11    1
    47    50    42   ar
    48    40    35   ar
    49    10     5   ar
    50    50    45   ar
    51    17    12    1
    52    24    18   ar
    53     3     4    1
    54    44    51    1
    55    33    34    1
    56    23    25    1
@<TRIPOS>MOLECULE
*****
 51 56 0 0 0
SMALL
GASTEIGER

@<TRIPOS>ATOM
      1 O         -59.7076  -46.2207  -25.9715 O.2     1  UNL1       -0.2701
      2 C         -60.5581  -45.3652  -26.3412 C.2     1  UNL1        0.2483
      3 N         -60.9808  -45.3257  -27.7137 N.am    1  UNL1       -0.2945
      4 H         -61.5428  -44.5096  -28.0445 H       1  UNL1        0.1501
      5 C         -61.0795  -44.3909  -25.3571 C.ar    1  UNL1        0.0808
      6 C         -60.5302  -43.1001  -25.3024 C.ar    1  UNL1        0.0080
      7 C         -61.0098  -42.1614  -24.3858 C.ar    1  UNL1        0.0148
      8 C         -62.0446  -42.4952  -23.4950 C.ar    1  UNL1        0.0502
      9 C         -62.5782  -43.7952  -23.5349 C.ar    1  UNL1        0.0443
     10 C         -62.1015  -44.7364  -24.4528 C.ar    1  UNL1        0.1457
     11 F         -62.6094  -45.9946  -24.4190 F       1  UNL1       -0.2040
     12 N         -62.5388  -41.5267  -22.5429 N.pl3   1  UNL1       -0.3040
     13 C         -61.6804  -41.0650  -21.4427 C.3     1  UNL1        0.1123
     14 C         -62.0048  -39.6136  -21.0723 C.3     1  UNL1        0.1136
     15 N         -63.4500  -39.4058  -20.8795 N.pl3   1  UNL1       -0.2897
     16 C         -64.3969  -40.4522  -21.2909 C.3     1  UNL1        0.1136
     17 C         -63.9455  -41.0998  -22.6035 C.3     1  UNL1        0.1123
     18 C         -63.9333  -38.2462  -20.1643 C.ar    1  UNL1        0.1323
     19 C         -65.2945  -38.0878  -19.8612 C.ar    1  UNL1        0.0343
     20 C         -65.7216  -36.9544  -19.1701 C.ar    1  UNL1        0.0087
     21 C         -64.8008  -35.9694  -18.7732 C.ar    1  UNL1        0.0947
     22 C         -63.4393  -36.1685  -19.0913 C.ar    1  UNL1        0.1083
     23 S         -62.1700  -34.9864  -18.6303 S.3     1  UNL1       -0.1228
     24 N         -63.0560  -37.2839  -19.7669 N.ar    1  UNL1       -0.2248
     25 H         -61.9403  -35.6322  -17.4011 H       1  UNL1        0.1086
     26 C         -65.2621  -34.7385  -18.0222 C.3     1  UNL1        0.4204
     27 F         -66.5710  -34.4494  -18.3630 F       1  UNL1       -0.1658
     28 F         -65.1858  -34.9684  -16.6604 F       1  UNL1       -0.1658
     29 F         -64.4823  -33.6337  -18.3190 F       1  UNL1       -0.1658
     30 C         -60.6324  -46.3884  -28.6625 C.3     1  UNL1        0.1535
     31 C         -59.2321  -46.1457  -29.1767 C.2     1  UNL1        0.2443
     32 O         -58.2930  -46.8805  -28.7675 O.2     1  UNL1       -0.2730
     33 N         -58.9171  -45.0175  -30.0076 N.am    1  UNL1       -0.2825
     34 H         -57.9687  -44.5900  -29.9072 H       1  UNL1        0.1549
     35 C         -59.8309  -44.4218  -30.9398 C.ar    1  UNL1        0.0535
     36 C         -61.0731  -43.9252  -30.5184 C.ar    1  UNL1        0.0353
     37 C         -61.9443  -43.3659  -31.4560 C.ar    1  UNL1        0.1002
     38 N         -61.5963  -43.3238  -32.7696 N.ar    1  UNL1       -0.2422
     39 C         -60.4089  -43.8206  -33.2081 C.ar    1  UNL1        0.1002
     40 C         -59.5089  -44.3871  -32.3020 C.ar    1  UNL1        0.0353
     41 C         -60.7313  -47.7747  -27.9961 C.3     1  UNL1        0.0569
     42 C         -62.1112  -48.0222  -27.4556 C.ar    1  UNL1       -0.0017
     43 C         -63.3135  -47.8175  -28.1269 C.ar    1  UNL1        0.0681
     44 N         -64.3550  -48.2248  -27.3661 N.ar    1  UNL1       -0.3523
     45 C         -63.8206  -48.6934  -26.2250 C.ar    1  UNL1        0.0563
     46 C         -64.4991  -49.2416  -25.1372 C.ar    1  UNL1        0.0170
     47 C         -63.7354  -49.6902  -24.0441 C.ar    1  UNL1        0.0015
     48 C         -62.3270  -49.5832  -24.0632 C.ar    1  UNL1        0.0001
     49 C         -61.6698  -49.0265  -25.1752 C.ar    1  UNL1        0.0012
     50 C         -62.4532  -48.5894  -26.2432 C.ar    1  UNL1        0.0131
     51 H         -65.3666  -48.1936  -27.6231 H       1  UNL1        0.1660
@<TRIPOS>BOND
     1     1     2    2
     2     2     3   am
     3     3    30    1
     4    30    41    1
     5    41    42    1
     6    42    43   ar
     7    43    44   ar
     8    44    45   ar
     9    45    46   ar
    10    46    47   ar
    11    47    48   ar
    12    48    49   ar
    13    49    50   ar
    14    30    31    1
    15    31    32    2
    16    31    33   am
    17    33    35    1
    18    35    36   ar
    19    36    37   ar
    20    37    38   ar
    21    38    39   ar
    22    39    40   ar
    23     2     5    1
    24     5     6   ar
    25     6     7   ar
    26     7     8   ar
    27     8    12    1
    28    12    13    1
    29    13    14    1
    30    14    15    1
    31    15    18    1
    32    18    19   ar
    33    19    20   ar
    34    20    21   ar
    35    21    26    1
    36    26    27    1
    37    26    28    1
    38    26    29    1
    39    21    22   ar
    40    22    23    1
    41    22    24   ar
    42    15    16    1
    43    16    17    1
    44     8     9   ar
    45     9    10   ar
    46    10    11    1
    47    50    42   ar
    48    40    35   ar
    49    10     5   ar
    50    50    45   ar
    51    17    12    1
    52    24    18   ar
    53     3     4    1
    54    44    51    1
    55    33    34    1
    56    23    25    1
@<TRIPOS>MOLECULE
*****
 51 56 0 0 0
SMALL
GASTEIGER

@<TRIPOS>ATOM
      1 O         -61.0173  -45.6087  -27.9072 O.2     1  UNL1       -0.2701
      2 C         -62.1431  -45.5561  -27.3399 C.2     1  UNL1        0.2483
      3 N         -63.2096  -46.4070  -27.7897 N.am    1  UNL1       -0.2945
      4 H         -64.1772  -46.2312  -27.4372 H       1  UNL1        0.1501
      5 C         -62.3549  -44.5886  -26.2405 C.ar    1  UNL1        0.0808
      6 C         -63.3506  -43.6066  -26.3641 C.ar    1  UNL1        0.0080
      7 C         -63.5729  -42.6860  -25.3373 C.ar    1  UNL1        0.0148
      8 C         -62.7974  -42.7202  -24.1654 C.ar    1  UNL1        0.0502
      9 C         -61.7852  -43.6893  -24.0523 C.ar    1  UNL1        0.0443
     10 C         -61.5617  -44.6135  -25.0778 C.ar    1  UNL1        0.1457
     11 F         -60.5390  -45.4962  -24.9477 F       1  UNL1       -0.2040
     12 N         -63.0230  -41.7656  -23.1040 N.pl3   1  UNL1       -0.3040
     13 C         -61.9698  -41.4945  -22.1153 C.3     1  UNL1        0.1123
     14 C         -62.0417  -40.0430  -21.6283 C.3     1  UNL1        0.1136
     15 N         -63.4062  -39.6675  -21.2208 N.pl3   1  UNL1       -0.2897
     16 C         -64.5329  -40.5539  -21.5462 C.3     1  UNL1        0.1136
     17 C         -64.3543  -41.1604  -22.9413 C.3     1  UNL1        0.1123
     18 C         -63.6274  -38.5087  -20.3853 C.ar    1  UNL1        0.1323
     19 C         -64.6277  -38.4959  -19.4011 C.ar    1  UNL1        0.0343
     20 C         -64.8103  -37.3582  -18.6155 C.ar    1  UNL1        0.0087
     21 C         -64.0005  -36.2242  -18.7999 C.ar    1  UNL1        0.0947
     22 C         -63.0009  -36.2787  -19.7960 C.ar    1  UNL1        0.1083
     23 S         -61.9004  -34.8983  -20.1186 S.3     1  UNL1       -0.1228
     24 N         -62.8497  -37.4027  -20.5453 N.ar    1  UNL1       -0.2248
     25 H         -60.9519  -35.3690  -19.1916 H       1  UNL1        0.1086
     26 C         -64.1964  -34.9884  -17.9478 C.3     1  UNL1        0.4204
     27 F         -62.9829  -34.3491  -17.7699 F       1  UNL1       -0.1658
     28 F         -65.0783  -34.1263  -18.5741 F       1  UNL1       -0.1658
     29 F         -64.7093  -35.3008  -16.7003 F       1  UNL1       -0.1658
     30 C         -62.9799  -47.5013  -28.7387 C.3     1  UNL1        0.1535
     31 C         -63.7496  -48.7178  -28.2786 C.2     1  UNL1        0.2443
     32 O         -64.2451  -49.4920  -29.1413 O.2     1  UNL1       -0.2730
     33 N         -64.0516  -48.9413  -26.8925 N.am    1  UNL1       -0.2825
     34 H         -64.9523  -49.4188  -26.6624 H       1  UNL1        0.1549
     35 C         -63.2133  -48.5218  -25.8062 C.ar    1  UNL1        0.0535
     36 C         -61.8812  -48.9512  -25.7127 C.ar    1  UNL1        0.0353
     37 C         -61.0987  -48.5356  -24.6331 C.ar    1  UNL1        0.1002
     38 N         -61.6335  -47.7379  -23.6707 N.ar    1  UNL1       -0.2422
     39 C         -62.9289  -47.3279  -23.7243 C.ar    1  UNL1        0.1002
     40 C         -63.7447  -47.7204  -24.7884 C.ar    1  UNL1        0.0353
     41 C         -63.4109  -47.0947  -30.1617 C.3     1  UNL1        0.0569
     42 C         -63.9914  -45.7089  -30.1800 C.ar    1  UNL1       -0.0017
     43 C         -65.2767  -45.3433  -29.7900 C.ar    1  UNL1        0.0681
     44 N         -65.4281  -44.0011  -29.8599 N.ar    1  UNL1       -0.3523
     45 C         -64.2475  -43.5155  -30.2814 C.ar    1  UNL1        0.0563
     46 C         -63.9092  -42.1787  -30.4880 C.ar    1  UNL1        0.0170
     47 C         -62.6006  -41.8904  -30.9168 C.ar    1  UNL1        0.0015
     48 C         -61.6702  -42.9324  -31.1259 C.ar    1  UNL1        0.0001
     49 C         -62.0398  -44.2719  -30.9084 C.ar    1  UNL1        0.0012
     50 C         -63.3441  -44.5271  -30.4847 C.ar    1  UNL1        0.0131
     51 H         -66.2855  -43.4555  -29.6199 H       1  UNL1        0.1660
@<TRIPOS>BOND
     1     1     2    2
     2     2     3   am
     3     3    30    1
     4    30    41    1
     5    41    42    1
     6    42    43   ar
     7    43    44   ar
     8    44    45   ar
     9    45    46   ar
    10    46    47   ar
    11    47    48   ar
    12    48    49   ar
    13    49    50   ar
    14    30    31    1
    15    31    32    2
    16    31    33   am
    17    33    35    1
    18    35    36   ar
    19    36    37   ar
    20    37    38   ar
    21    38    39   ar
    22    39    40   ar
    23     2     5    1
    24     5     6   ar
    25     6     7   ar
    26     7     8   ar
    27     8    12    1
    28    12    13    1
    29    13    14    1
    30    14    15    1
    31    15    18    1
    32    18    19   ar
    33    19    20   ar
    34    20    21   ar
    35    21    26    1
    36    26    27    1
    37    26    28    1
    38    26    29    1
    39    21    22   ar
    40    22    23    1
    41    22    24   ar
    42    15    16    1
    43    16    17    1
    44     8     9   ar
    45     9    10   ar
    46    10    11    1
    47    50    42   ar
    48    40    35   ar
    49    10     5   ar
    50    50    45   ar
    51    17    12    1
    52    24    18   ar
    53     3     4    1
    54    44    51    1
    55    33    34    1
    56    23    25    1
@<TRIPOS>MOLECULE
*****
 51 56 0 0 0
SMALL
GASTEIGER

@<TRIPOS>ATOM
      1 O         -60.5201  -47.3006  -24.4791 O.2     1  UNL1       -0.2701
      2 C         -61.6589  -46.7758  -24.6191 C.2     1  UNL1        0.2483
      3 N         -62.6591  -47.4404  -25.4077 N.am    1  UNL1       -0.2945
      4 H         -63.5278  -46.9192  -25.6630 H       1  UNL1        0.1501
      5 C         -61.9319  -45.4621  -23.9951 C.ar    1  UNL1        0.0808
      6 C         -62.2589  -44.3643  -24.8068 C.ar    1  UNL1        0.0080
      7 C         -62.5263  -43.1157  -24.2404 C.ar    1  UNL1        0.0148
      8 C         -62.4638  -42.9335  -22.8480 C.ar    1  UNL1        0.0502
      9 C         -62.1137  -44.0278  -22.0378 C.ar    1  UNL1        0.0443
     10 C         -61.8475  -45.2795  -22.6019 C.ar    1  UNL1        0.1457
     11 F         -61.4615  -46.2930  -21.7859 F       1  UNL1       -0.2040
     12 N         -62.7357  -41.6413  -22.2607 N.pl3   1  UNL1       -0.3040
     13 C         -63.5684  -40.6634  -22.9752 C.3     1  UNL1        0.1123
     14 C         -64.3528  -39.7925  -21.9876 C.3     1  UNL1        0.1136
     15 N         -63.4848  -39.2378  -20.9350 N.pl3   1  UNL1       -0.2897
     16 C         -62.1138  -39.7452  -20.7799 C.3     1  UNL1        0.1136
     17 C         -62.0726  -41.2598  -21.0038 C.3     1  UNL1        0.1123
     18 C         -63.9209  -38.1064  -20.1480 C.ar    1  UNL1        0.1323
     19 C         -65.2564  -37.9708  -19.7383 C.ar    1  UNL1        0.0343
     20 C         -65.6381  -36.8642  -18.9803 C.ar    1  UNL1        0.0087
     21 C         -64.6970  -35.8837  -18.6219 C.ar    1  UNL1        0.0947
     22 C         -63.3620  -36.0594  -19.0480 C.ar    1  UNL1        0.1083
     23 S         -62.0700  -34.8806  -18.6457 S.3     1  UNL1       -0.1228
     24 N         -63.0230  -37.1489  -19.7866 N.ar    1  UNL1       -0.2248
     25 H         -61.7434  -35.5631  -17.4590 H       1  UNL1        0.1086
     26 C         -65.1090  -34.6820  -17.7986 C.3     1  UNL1        0.4204
     27 F         -64.2441  -33.6312  -18.0447 F       1  UNL1       -0.1658
     28 F         -66.3950  -34.3033  -18.1391 F       1  UNL1       -0.1658
     29 F         -65.0837  -34.9561  -16.4417 F       1  UNL1       -0.1658
     30 C         -62.4869  -48.8198  -25.8750 C.3     1  UNL1        0.1535
     31 C         -63.6614  -49.6463  -25.4041 C.2     1  UNL1        0.2443
     32 O         -64.7487  -49.5835  -26.0388 O.2     1  UNL1       -0.2730
     33 N         -63.6176  -50.3913  -24.1772 N.am    1  UNL1       -0.2825
     34 H         -64.5066  -50.4899  -23.6367 H       1  UNL1        0.1549
     35 C         -62.4273  -50.9784  -23.6317 C.ar    1  UNL1        0.0535
     36 C         -62.2099  -52.3627  -23.6929 C.ar    1  UNL1        0.0353
     37 C         -61.0471  -52.9015  -23.1376 C.ar    1  UNL1        0.1002
     38 N         -60.1450  -52.0899  -22.5245 N.ar    1  UNL1       -0.2422
     39 C         -60.3435  -50.7481  -22.4295 C.ar    1  UNL1        0.1002
     40 C         -61.4931  -50.1695  -22.9733 C.ar    1  UNL1        0.0353
     41 C         -62.3718  -48.8695  -27.4114 C.3     1  UNL1        0.0569
     42 C         -61.9231  -47.5477  -27.9671 C.ar    1  UNL1       -0.0017
     43 C         -60.6089  -47.1103  -28.1070 C.ar    1  UNL1        0.0681
     44 N         -60.5744  -45.9054  -28.7205 N.ar    1  UNL1       -0.3523
     45 C         -61.8539  -45.5826  -28.9775 C.ar    1  UNL1        0.0563
     46 C         -62.3237  -44.4368  -29.6183 C.ar    1  UNL1        0.0170
     47 C         -63.7128  -44.3085  -29.8012 C.ar    1  UNL1        0.0015
     48 C         -64.5906  -45.3172  -29.3458 C.ar    1  UNL1        0.0001
     49 C         -64.0876  -46.4628  -28.7033 C.ar    1  UNL1        0.0012
     50 C         -62.7064  -46.5616  -28.5353 C.ar    1  UNL1        0.0131
     51 H         -59.7232  -45.3490  -28.9578 H       1  UNL1        0.1660
@<TRIPOS>BOND
     1     1     2    2
     2     2     3   am
     3     3    30    1
     4    30    41    1
     5    41    42    1
     6    42    43   ar
     7    43    44   ar
     8    44    45   ar
     9    45    46   ar
    10    46    47   ar
    11    47    48   ar
    12    48    49   ar
    13    49    50   ar
    14    30    31    1
    15    31    32    2
    16    31    33   am
    17    33    35    1
    18    35    36   ar
    19    36    37   ar
    20    37    38   ar
    21    38    39   ar
    22    39    40   ar
    23     2     5    1
    24     5     6   ar
    25     6     7   ar
    26     7     8   ar
    27     8    12    1
    28    12    13    1
    29    13    14    1
    30    14    15    1
    31    15    18    1
    32    18    19   ar
    33    19    20   ar
    34    20    21   ar
    35    21    26    1
    36    26    27    1
    37    26    28    1
    38    26    29    1
    39    21    22   ar
    40    22    23    1
    41    22    24   ar
    42    15    16    1
    43    16    17    1
    44     8     9   ar
    45     9    10   ar
    46    10    11    1
    47    50    42   ar
    48    40    35   ar
    49    10     5   ar
    50    50    45   ar
    51    17    12    1
    52    24    18   ar
    53     3     4    1
    54    44    51    1
    55    33    34    1
    56    23    25    1
@<TRIPOS>MOLECULE
*****
 51 56 0 0 0
SMALL
GASTEIGER

@<TRIPOS>ATOM
      1 O         -61.1710  -46.5955  -25.8528 O.2     1  UNL1       -0.2701
      2 C         -61.5617  -45.4578  -26.2336 C.2     1  UNL1        0.2483
      3 N         -61.6036  -45.1499  -27.6362 N.am    1  UNL1       -0.2945
      4 H         -61.7551  -44.1589  -27.9301 H       1  UNL1        0.1501
      5 C         -61.9369  -44.4455  -25.2216 C.ar    1  UNL1        0.0808
      6 C         -62.5050  -43.2301  -25.6352 C.ar    1  UNL1        0.0080
      7 C         -62.8725  -42.2615  -24.6981 C.ar    1  UNL1        0.0148
      8 C         -62.6714  -42.4823  -23.3245 C.ar    1  UNL1        0.0502
      9 C         -62.0811  -43.6900  -22.9130 C.ar    1  UNL1        0.0443
     10 C         -61.7141  -44.6623  -23.8487 C.ar    1  UNL1        0.1457
     11 F         -61.0990  -45.7896  -23.4096 F       1  UNL1       -0.2040
     12 N         -63.0467  -41.4793  -22.3540 N.pl3   1  UNL1       -0.3040
     13 C         -62.0618  -40.9840  -21.3820 C.3     1  UNL1        0.1123
     14 C         -62.3386  -39.5192  -21.0258 C.3     1  UNL1        0.1136
     15 N         -63.7499  -39.2984  -20.6675 N.pl3   1  UNL1       -0.2897
     16 C         -64.7400  -40.3539  -20.9253 C.3     1  UNL1        0.1136
     17 C         -64.4504  -41.0484  -22.2595 C.3     1  UNL1        0.1123
     18 C         -64.1431  -38.1127  -19.9399 C.ar    1  UNL1        0.1323
     19 C         -65.4785  -37.8897  -19.5704 C.ar    1  UNL1        0.0343
     20 C         -65.8180  -36.7328  -18.8694 C.ar    1  UNL1        0.0087
     21 C         -64.8343  -35.7884  -18.5287 C.ar    1  UNL1        0.0947
     22 C         -63.5012  -36.0522  -18.9130 C.ar    1  UNL1        0.1083
     23 S         -62.1577  -34.9265  -18.5276 S.3     1  UNL1       -0.1228
     24 N         -63.2039  -37.1889  -19.5963 N.ar    1  UNL1       -0.2248
     25 H         -61.8956  -35.5733  -17.3055 H       1  UNL1        0.1086
     26 C         -65.2005  -34.5323  -17.7672 C.3     1  UNL1        0.4204
     27 F         -66.5302  -34.2243  -17.9904 F       1  UNL1       -0.1658
     28 F         -65.0002  -34.7336  -16.4135 F       1  UNL1       -0.1658
     29 F         -64.4323  -33.4502  -18.1620 F       1  UNL1       -0.1658
     30 C         -61.4245  -46.1827  -28.6618 C.3     1  UNL1        0.1535
     31 C         -59.9457  -46.3857  -28.8990 C.2     1  UNL1        0.2443
     32 O         -59.3469  -47.3078  -28.2822 O.2     1  UNL1       -0.2730
     33 N         -59.1762  -45.4732  -29.6975 N.am    1  UNL1       -0.2825
     34 H         -58.1783  -45.3157  -29.4297 H       1  UNL1        0.1549
     35 C         -59.6985  -44.7413  -30.8157 C.ar    1  UNL1        0.0535
     36 C         -59.0937  -44.8209  -32.0788 C.ar    1  UNL1        0.0353
     37 C         -59.6198  -44.0824  -33.1411 C.ar    1  UNL1        0.1002
     38 N         -60.6974  -43.2772  -32.9439 N.ar    1  UNL1       -0.2422
     39 C         -61.2871  -43.1627  -31.7241 C.ar    1  UNL1        0.1002
     40 C         -60.7922  -43.8857  -30.6358 C.ar    1  UNL1        0.0353
     41 C         -62.0900  -47.5052  -28.2327 C.3     1  UNL1        0.0569
     42 C         -63.2775  -47.8229  -29.0966 C.ar    1  UNL1       -0.0017
     43 C         -64.0157  -49.0031  -29.0896 C.ar    1  UNL1        0.0681
     44 N         -65.0651  -48.9094  -29.9378 N.ar    1  UNL1       -0.3523
     45 C         -65.0014  -47.6778  -30.4728 C.ar    1  UNL1        0.0563
     46 C         -65.8827  -47.1095  -31.3918 C.ar    1  UNL1        0.0170
     47 C         -65.6364  -45.7885  -31.8086 C.ar    1  UNL1        0.0015
     48 C         -64.5284  -45.0732  -31.3025 C.ar    1  UNL1        0.0001
     49 C         -63.6568  -45.6724  -30.3755 C.ar    1  UNL1        0.0012
     50 C         -63.9256  -46.9833  -29.9818 C.ar    1  UNL1        0.0131
     51 H         -65.7849  -49.6425  -30.1248 H       1  UNL1        0.1660
@<TRIPOS>BOND
     1     1     2    2
     2     2     3   am
     3     3    30    1
     4    30    41    1
     5    41    42    1
     6    42    43   ar
     7    43    44   ar
     8    44    45   ar
     9    45    46   ar
    10    46    47   ar
    11    47    48   ar
    12    48    49   ar
    13    49    50   ar
    14    30    31    1
    15    31    32    2
    16    31    33   am
    17    33    35    1
    18    35    36   ar
    19    36    37   ar
    20    37    38   ar
    21    38    39   ar
    22    39    40   ar
    23     2     5    1
    24     5     6   ar
    25     6     7   ar
    26     7     8   ar
    27     8    12    1
    28    12    13    1
    29    13    14    1
    30    14    15    1
    31    15    18    1
    32    18    19   ar
    33    19    20   ar
    34    20    21   ar
    35    21    26    1
    36    26    27    1
    37    26    28    1
    38    26    29    1
    39    21    22   ar
    40    22    23    1
    41    22    24   ar
    42    15    16    1
    43    16    17    1
    44     8     9   ar
    45     9    10   ar
    46    10    11    1
    47    50    42   ar
    48    40    35   ar
    49    10     5   ar
    50    50    45   ar
    51    17    12    1
    52    24    18   ar
    53     3     4    1
    54    44    51    1
    55    33    34    1
    56    23    25    1
