@<TRIPOS>MOLECULE
*****
 35 38 0 0 0
SMALL
GASTEIGER

@<TRIPOS>ATOM
      1 C         -29.1335   48.8353   -3.1911 C.ar    1  UNL1        0.0875
      2 C         -30.3550   48.4498   -2.6113 C.ar    1  UNL1        0.0076
      3 C         -31.5607   48.9472   -3.0961 C.ar    1  UNL1        0.0000
      4 C         -31.5676   49.8417   -4.1609 C.ar    1  UNL1       -0.0012
      5 C         -30.3630   50.2566   -4.7503 C.ar    1  UNL1        0.0128
      6 C         -29.1349   49.7488   -4.2762 C.ar    1  UNL1        0.1455
      7 O         -27.8990   50.1737   -4.7905 O.3     1  UNL1       -0.4540
      8 C         -27.5046   50.4667   -6.1109 C.ar    1  UNL1        0.1412
      9 C         -26.1255   50.6178   -6.3034 C.ar    1  UNL1        0.0371
     10 C         -25.5876   50.8172   -7.5731 C.ar    1  UNL1        0.0070
     11 C         -26.4252   50.8974   -8.6914 C.ar    1  UNL1        0.0713
     12 C         -27.8092   50.7596   -8.5140 C.ar    1  UNL1        0.0026
     13 C         -28.3701   50.5829   -7.2340 C.ar    1  UNL1        0.0126
     14 C         -29.8715   50.5101   -7.1444 C.3     1  UNL1        0.0342
     15 C         -30.4028   51.2100   -5.9008 C.3     1  UNL1        0.0342
     16 N         -26.7069   48.0991   -3.4654 N.am    1  UNL1       -0.2986
     17 C         -27.8770   48.2492   -2.6526 C.2     1  UNL1        0.2490
     18 O         -27.8292   47.8717   -1.4506 O.2     1  UNL1       -0.2700
     19 H         -25.9722   48.8381   -3.3896 H       1  UNL1        0.1500
     20 C         -26.9799   45.6230   -3.5116 C.3     1  UNL1        0.0262
     21 C         -26.3749   46.8629   -4.1854 C.3     1  UNL1        0.0944
     22 C         -26.7599   46.9717   -5.6481 C.ar    1  UNL1       -0.0045
     23 C         -28.1008   46.7996   -6.0299 C.ar    1  UNL1       -0.0025
     24 C         -28.4689   46.8302   -7.3772 C.ar    1  UNL1        0.0062
     25 C         -27.5029   47.0356   -8.3766 C.ar    1  UNL1        0.0754
     26 C         -26.1623   47.2161   -7.9947 C.ar    1  UNL1        0.0062
     27 C         -25.7953   47.1893   -6.6470 C.ar    1  UNL1       -0.0025
     28 C         -27.8690   47.0207   -9.8144 C.2     1  UNL1        0.3380
     29 O         -28.5941   47.9379  -10.2834 O.2     1  UNL1       -0.2451
     30 O         -27.4397   46.0096  -10.6735 O.3     1  UNL1       -0.4771
     31 H         -26.9404   45.1916  -10.3500 H       1  UNL1        0.2954
     32 C         -25.8477   51.0321  -10.0783 C.3     1  UNL1        0.4186
     33 F         -24.7205   51.8356  -10.0697 F       1  UNL1       -0.1659
     34 F         -25.5035   49.7795  -10.5511 F       1  UNL1       -0.1659
     35 F         -26.7752   51.5985  -10.9356 F       1  UNL1       -0.1659
@<TRIPOS>BOND
     1    20    21    1
     2    21    16    1
     3    16    17   am
     4    17    18    2
     5    17     1    1
     6     1     2   ar
     7     2     3   ar
     8     3     4   ar
     9     4     5   ar
    10     5     6   ar
    11     6     7    1
    12     7     8    1
    13     8     9   ar
    14     9    10   ar
    15    10    11   ar
    16    11    32    1
    17    32    33    1
    18    32    34    1
    19    32    35    1
    20    11    12   ar
    21    12    13   ar
    22    13    14    1
    23    14    15    1
    24    21    22    1
    25    22    23   ar
    26    23    24   ar
    27    24    25   ar
    28    25    28    1
    29    28    29    2
    30    28    30    1
    31    25    26   ar
    32    26    27   ar
    33     6     1   ar
    34    13     8   ar
    35    27    22   ar
    36    15     5    1
    37    16    19    1
    38    30    31    1
@<TRIPOS>MOLECULE
*****
 35 38 0 0 0
SMALL
GASTEIGER

@<TRIPOS>ATOM
      1 C         -28.3228   50.1616   -9.4625 C.ar    1  UNL1        0.0875
      2 C         -27.4123   50.7574  -10.3530 C.ar    1  UNL1        0.0076
      3 C         -26.5347   51.7453   -9.9175 C.ar    1  UNL1        0.0000
      4 C         -26.5554   52.1601   -8.5903 C.ar    1  UNL1       -0.0012
      5 C         -27.4637   51.5945   -7.6816 C.ar    1  UNL1        0.0128
      6 C         -28.3494   50.5824   -8.1082 C.ar    1  UNL1        0.1455
      7 O         -29.3162   50.0238   -7.2563 O.3     1  UNL1       -0.4540
      8 C         -29.2496   49.6776   -5.8922 C.ar    1  UNL1        0.1412
      9 C         -30.3178   48.9053   -5.4186 C.ar    1  UNL1        0.0371
     10 C         -30.3359   48.4137   -4.1149 C.ar    1  UNL1        0.0070
     11 C         -29.2883   48.7062   -3.2343 C.ar    1  UNL1        0.0713
     12 C         -28.2170   49.4878   -3.6898 C.ar    1  UNL1        0.0026
     13 C         -28.1963   50.0130   -4.9967 C.ar    1  UNL1        0.0126
     14 C         -27.0319   50.8931   -5.3666 C.3     1  UNL1        0.0342
     15 C         -27.4546   52.0524   -6.2588 C.3     1  UNL1        0.0342
     16 N         -29.7332   48.0648   -9.1169 N.am    1  UNL1       -0.2986
     17 C         -29.2170   49.0892   -9.9750 C.2     1  UNL1        0.2490
     18 O         -29.5356   49.0718  -11.1947 O.2     1  UNL1       -0.2700
     19 H         -30.6993   48.1956   -8.7410 H       1  UNL1        0.1500
     20 C         -28.2508   46.3623  -10.1712 C.3     1  UNL1        0.0262
     21 C         -29.0968   46.7517   -8.9505 C.3     1  UNL1        0.0944
     22 C         -28.3063   46.6964   -7.6577 C.ar    1  UNL1       -0.0045
     23 C         -27.0310   47.2821   -7.5957 C.ar    1  UNL1       -0.0025
     24 C         -26.2572   47.1868   -6.4365 C.ar    1  UNL1        0.0062
     25 C         -26.7422   46.5033   -5.3087 C.ar    1  UNL1        0.0754
     26 C         -28.0217   45.9241   -5.3673 C.ar    1  UNL1        0.0062
     27 C         -28.7965   46.0231   -6.5255 C.ar    1  UNL1       -0.0025
     28 C         -25.9136   46.3495   -4.0877 C.2     1  UNL1        0.3380
     29 O         -25.1001   45.3914   -4.0020 O.2     1  UNL1       -0.2451
     30 O         -26.0109   47.2350   -3.0148 O.3     1  UNL1       -0.4771
     31 H         -26.7084   47.9661   -2.9699 H       1  UNL1        0.2954
     32 C         -29.2589   48.1127   -1.8479 C.3     1  UNL1        0.4186
     33 F         -29.3585   46.7329   -1.8975 F       1  UNL1       -0.1659
     34 F         -28.0702   48.4560   -1.2315 F       1  UNL1       -0.1659
     35 F         -30.3141   48.5950   -1.0928 F       1  UNL1       -0.1659
@<TRIPOS>BOND
     1    20    21    1
     2    21    16    1
     3    16    17   am
     4    17    18    2
     5    17     1    1
     6     1     2   ar
     7     2     3   ar
     8     3     4   ar
     9     4     5   ar
    10     5     6   ar
    11     6     7    1
    12     7     8    1
    13     8     9   ar
    14     9    10   ar
    15    10    11   ar
    16    11    32    1
    17    32    33    1
    18    32    34    1
    19    32    35    1
    20    11    12   ar
    21    12    13   ar
    22    13    14    1
    23    14    15    1
    24    21    22    1
    25    22    23   ar
    26    23    24   ar
    27    24    25   ar
    28    25    28    1
    29    28    29    2
    30    28    30    1
    31    25    26   ar
    32    26    27   ar
    33     6     1   ar
    34    13     8   ar
    35    27    22   ar
    36    15     5    1
    37    16    19    1
    38    30    31    1
@<TRIPOS>MOLECULE
*****
 35 38 0 0 0
SMALL
GASTEIGER

@<TRIPOS>ATOM
      1 C         -27.5563   51.4438   -9.9881 C.ar    1  UNL1        0.0875
      2 C         -26.4293   51.2442  -10.8049 C.ar    1  UNL1        0.0076
      3 C         -25.1842   50.9747  -10.2453 C.ar    1  UNL1        0.0000
      4 C         -25.0411   50.9071   -8.8637 C.ar    1  UNL1       -0.0012
      5 C         -26.1450   51.1170   -8.0223 C.ar    1  UNL1        0.0128
      6 C         -27.4153   51.3777   -8.5783 C.ar    1  UNL1        0.1455
      7 O         -28.5400   51.6519   -7.7831 O.3     1  UNL1       -0.4540
      8 C         -28.9612   51.0903   -6.5615 C.ar    1  UNL1        0.1412
      9 C         -30.2658   51.4180   -6.1711 C.ar    1  UNL1        0.0371
     10 C         -30.8448   50.8594   -5.0335 C.ar    1  UNL1        0.0070
     11 C         -30.1179   49.9696   -4.2344 C.ar    1  UNL1        0.0713
     12 C         -28.8065   49.6402   -4.6054 C.ar    1  UNL1        0.0026
     13 C         -28.1986   50.2159   -5.7382 C.ar    1  UNL1        0.0126
     14 C         -26.7654   49.8452   -6.0135 C.3     1  UNL1        0.0342
     15 C         -25.9626   51.0265   -6.5416 C.3     1  UNL1        0.0342
     16 N         -30.1038   51.3229  -10.0198 N.am    1  UNL1       -0.2986
     17 C         -28.8684   51.6984  -10.6405 C.2     1  UNL1        0.2490
     18 O         -28.9061   52.2592  -11.7690 O.2     1  UNL1       -0.2700
     19 H         -30.6236   52.0644   -9.4986 H       1  UNL1        0.1500
     20 C         -30.5369   49.5509  -11.7168 C.3     1  UNL1        0.0262
     21 C         -30.7912   50.0532  -10.2885 C.3     1  UNL1        0.0944
     22 C         -30.4374   49.0169   -9.2395 C.ar    1  UNL1       -0.0045
     23 C         -31.3421   48.7403   -8.2010 C.ar    1  UNL1       -0.0025
     24 C         -31.0108   47.8381   -7.1871 C.ar    1  UNL1        0.0062
     25 C         -29.7649   47.1886   -7.1886 C.ar    1  UNL1        0.0754
     26 C         -28.8624   47.4588   -8.2319 C.ar    1  UNL1        0.0062
     27 C         -29.1959   48.3582   -9.2477 C.ar    1  UNL1       -0.0025
     28 C         -29.3773   46.2664   -6.0929 C.2     1  UNL1        0.3380
     29 O         -30.1524   46.0997   -5.1139 O.2     1  UNL1       -0.2451
     30 O         -28.1662   45.5751   -6.1054 O.3     1  UNL1       -0.4771
     31 H         -27.4529   45.7330   -6.8049 H       1  UNL1        0.2954
     32 C         -30.7621   49.2980   -3.0473 C.3     1  UNL1        0.4186
     33 F         -31.5179   50.1995   -2.3179 F       1  UNL1       -0.1659
     34 F         -31.5833   48.2787   -3.4920 F       1  UNL1       -0.1659
     35 F         -29.7968   48.7664   -2.2096 F       1  UNL1       -0.1659
@<TRIPOS>BOND
     1    20    21    1
     2    21    16    1
     3    16    17   am
     4    17    18    2
     5    17     1    1
     6     1     2   ar
     7     2     3   ar
     8     3     4   ar
     9     4     5   ar
    10     5     6   ar
    11     6     7    1
    12     7     8    1
    13     8     9   ar
    14     9    10   ar
    15    10    11   ar
    16    11    32    1
    17    32    33    1
    18    32    34    1
    19    32    35    1
    20    11    12   ar
    21    12    13   ar
    22    13    14    1
    23    14    15    1
    24    21    22    1
    25    22    23   ar
    26    23    24   ar
    27    24    25   ar
    28    25    28    1
    29    28    29    2
    30    28    30    1
    31    25    26   ar
    32    26    27   ar
    33     6     1   ar
    34    13     8   ar
    35    27    22   ar
    36    15     5    1
    37    16    19    1
    38    30    31    1
@<TRIPOS>MOLECULE
*****
 35 38 0 0 0
SMALL
GASTEIGER

@<TRIPOS>ATOM
      1 C         -29.7423   47.7913   -5.4413 C.ar    1  UNL1        0.0875
      2 C         -31.0272   47.9148   -4.8839 C.ar    1  UNL1        0.0076
      3 C         -31.4843   49.1428   -4.4157 C.ar    1  UNL1        0.0000
      4 C         -30.6660   50.2648   -4.4891 C.ar    1  UNL1       -0.0012
      5 C         -29.3727   50.1692   -5.0266 C.ar    1  UNL1        0.0128
      6 C         -28.9030   48.9323   -5.5167 C.ar    1  UNL1        0.1455
      7 O         -27.5987   48.7679   -6.0110 O.3     1  UNL1       -0.4540
      8 C         -26.8012   49.6189   -6.8015 C.ar    1  UNL1        0.1412
      9 C         -25.6424   49.0340   -7.3276 C.ar    1  UNL1        0.0371
     10 C         -24.8104   49.7307   -8.2015 C.ar    1  UNL1        0.0070
     11 C         -25.1045   51.0525   -8.5552 C.ar    1  UNL1        0.0713
     12 C         -26.2549   51.6562   -8.0279 C.ar    1  UNL1        0.0026
     13 C         -27.0921   50.9737   -7.1237 C.ar    1  UNL1        0.0126
     14 C         -28.2666   51.7329   -6.5657 C.3     1  UNL1        0.0342
     15 C         -28.5207   51.3948   -5.1028 C.3     1  UNL1        0.0342
     16 N         -28.3414   46.3322   -6.9950 N.am    1  UNL1       -0.2986
     17 C         -29.3167   46.4614   -5.9537 C.2     1  UNL1        0.2490
     18 O         -29.8208   45.4139   -5.4657 O.2     1  UNL1       -0.2700
     19 H         -27.3558   46.1377   -6.7077 H       1  UNL1        0.1500
     20 C         -29.9177   45.3089   -8.6307 C.3     1  UNL1        0.0262
     21 C         -28.6875   46.2021   -8.4164 C.3     1  UNL1        0.0944
     22 C         -28.8444   47.5665   -9.0594 C.ar    1  UNL1       -0.0045
     23 C         -27.7889   48.1069   -9.8125 C.ar    1  UNL1       -0.0025
     24 C         -27.8853   49.3889  -10.3592 C.ar    1  UNL1        0.0062
     25 C         -29.0427   50.1619  -10.1664 C.ar    1  UNL1        0.0754
     26 C         -30.1025   49.6185   -9.4198 C.ar    1  UNL1        0.0062
     27 C         -30.0070   48.3349   -8.8767 C.ar    1  UNL1       -0.0025
     28 C         -29.1414   51.5439  -10.6971 C.2     1  UNL1        0.3380
     29 O         -28.1898   52.3501  -10.5195 O.2     1  UNL1       -0.2451
     30 O         -30.2683   51.9894  -11.3872 O.3     1  UNL1       -0.4771
     31 H         -31.1078   51.4333  -11.4816 H       1  UNL1        0.2954
     32 C         -24.2556   51.7875   -9.5623 C.3     1  UNL1        0.4186
     33 F         -24.2550   51.1325  -10.7818 F       1  UNL1       -0.1659
     34 F         -24.7594   53.0629   -9.7370 F       1  UNL1       -0.1659
     35 F         -22.9472   51.8763   -9.1191 F       1  UNL1       -0.1659
@<TRIPOS>BOND
     1    20    21    1
     2    21    16    1
     3    16    17   am
     4    17    18    2
     5    17     1    1
     6     1     2   ar
     7     2     3   ar
     8     3     4   ar
     9     4     5   ar
    10     5     6   ar
    11     6     7    1
    12     7     8    1
    13     8     9   ar
    14     9    10   ar
    15    10    11   ar
    16    11    32    1
    17    32    33    1
    18    32    34    1
    19    32    35    1
    20    11    12   ar
    21    12    13   ar
    22    13    14    1
    23    14    15    1
    24    21    22    1
    25    22    23   ar
    26    23    24   ar
    27    24    25   ar
    28    25    28    1
    29    28    29    2
    30    28    30    1
    31    25    26   ar
    32    26    27   ar
    33     6     1   ar
    34    13     8   ar
    35    27    22   ar
    36    15     5    1
    37    16    19    1
    38    30    31    1
@<TRIPOS>MOLECULE
*****
 35 38 0 0 0
SMALL
GASTEIGER

@<TRIPOS>ATOM
      1 C         -24.1849   51.1319   -9.3231 C.ar    1  UNL1        0.0875
      2 C         -25.2287   50.9646  -10.2501 C.ar    1  UNL1        0.0076
      3 C         -25.1069   51.4407  -11.5519 C.ar    1  UNL1        0.0000
      4 C         -23.9466   52.0969  -11.9480 C.ar    1  UNL1       -0.0012
      5 C         -22.8936   52.2923  -11.0404 C.ar    1  UNL1        0.0128
      6 C         -23.0001   51.8022   -9.7215 C.ar    1  UNL1        0.1455
      7 O         -22.0021   52.0202   -8.7577 O.3     1  UNL1       -0.4540
      8 C         -20.5977   52.0074   -8.8693 C.ar    1  UNL1        0.1412
      9 C         -19.9013   52.0132   -7.6542 C.ar    1  UNL1        0.0371
     10 C         -18.5124   51.9088   -7.6132 C.ar    1  UNL1        0.0070
     11 C         -17.7746   51.8210   -8.7992 C.ar    1  UNL1        0.0713
     12 C         -18.4563   51.8255  -10.0244 C.ar    1  UNL1        0.0026
     13 C         -19.8576   51.9559  -10.0832 C.ar    1  UNL1        0.0126
     14 C         -20.4868   52.0145  -11.4500 C.3     1  UNL1        0.0342
     15 C         -21.6543   52.9910  -11.4985 C.3     1  UNL1        0.0342
     16 N         -25.0784   49.3613   -7.7194 N.am    1  UNL1       -0.2986
     17 C         -24.3568   50.5764   -7.9541 C.2     1  UNL1        0.2490
     18 O         -23.8582   51.1823   -6.9673 O.2     1  UNL1       -0.2700
     19 H         -24.5202   48.4839   -7.6175 H       1  UNL1        0.1500
     20 C         -27.1006   50.7288   -7.2211 C.3     1  UNL1        0.0262
     21 C         -26.5027   49.3219   -7.3635 C.3     1  UNL1        0.0944
     22 C         -27.2783   48.4603   -8.3411 C.ar    1  UNL1       -0.0045
     23 C         -26.8328   47.1594   -8.6282 C.ar    1  UNL1       -0.0025
     24 C         -27.4928   46.3712   -9.5741 C.ar    1  UNL1        0.0062
     25 C         -28.6174   46.8660  -10.2558 C.ar    1  UNL1        0.0754
     26 C         -29.0686   48.1647   -9.9631 C.ar    1  UNL1        0.0062
     27 C         -28.4105   48.9509   -9.0142 C.ar    1  UNL1       -0.0025
     28 C         -29.2995   46.0614  -11.2992 C.2     1  UNL1        0.3380
     29 O         -30.5038   45.7271  -11.1418 O.2     1  UNL1       -0.2451
     30 O         -28.6432   45.6504  -12.4590 O.3     1  UNL1       -0.4771
     31 H         -27.6533   45.7952  -12.6085 H       1  UNL1        0.2954
     32 C         -16.2793   51.6265   -8.7635 C.3     1  UNL1        0.4186
     33 F         -15.7199   52.2839   -7.6814 F       1  UNL1       -0.1659
     34 F         -15.9986   50.2766   -8.6638 F       1  UNL1       -0.1659
     35 F         -15.6991   52.1236   -9.9178 F       1  UNL1       -0.1659
@<TRIPOS>BOND
     1    20    21    1
     2    21    16    1
     3    16    17   am
     4    17    18    2
     5    17     1    1
     6     1     2   ar
     7     2     3   ar
     8     3     4   ar
     9     4     5   ar
    10     5     6   ar
    11     6     7    1
    12     7     8    1
    13     8     9   ar
    14     9    10   ar
    15    10    11   ar
    16    11    32    1
    17    32    33    1
    18    32    34    1
    19    32    35    1
    20    11    12   ar
    21    12    13   ar
    22    13    14    1
    23    14    15    1
    24    21    22    1
    25    22    23   ar
    26    23    24   ar
    27    24    25   ar
    28    25    28    1
    29    28    29    2
    30    28    30    1
    31    25    26   ar
    32    26    27   ar
    33     6     1   ar
    34    13     8   ar
    35    27    22   ar
    36    15     5    1
    37    16    19    1
    38    30    31    1
@<TRIPOS>MOLECULE
*****
 35 38 0 0 0
SMALL
GASTEIGER

@<TRIPOS>ATOM
      1 C         -28.9324   47.5280   -9.0042 C.ar    1  UNL1        0.0875
      2 C         -30.1219   47.1319   -9.6407 C.ar    1  UNL1        0.0076
      3 C         -30.8200   48.0161  -10.4573 C.ar    1  UNL1        0.0000
      4 C         -30.3480   49.3104  -10.6466 C.ar    1  UNL1       -0.0012
      5 C         -29.1714   49.7393  -10.0121 C.ar    1  UNL1        0.0128
      6 C         -28.4476   48.8476   -9.1924 C.ar    1  UNL1        0.1455
      7 O         -27.2975   49.2412   -8.4890 O.3     1  UNL1       -0.4540
      8 C         -26.2337   50.0849   -8.8650 C.ar    1  UNL1        0.1412
      9 C         -25.1207   50.0586   -8.0152 C.ar    1  UNL1        0.0371
     10 C         -23.9617   50.7716   -8.3149 C.ar    1  UNL1        0.0070
     11 C         -23.8942   51.5579   -9.4707 C.ar    1  UNL1        0.0713
     12 C         -25.0043   51.6038  -10.3260 C.ar    1  UNL1        0.0026
     13 C         -26.1918   50.9090  -10.0239 C.ar    1  UNL1        0.0126
     14 C         -27.3477   51.0755  -10.9745 C.3     1  UNL1        0.0342
     15 C         -28.6825   51.1326  -10.2439 C.3     1  UNL1        0.0342
     16 N         -28.8854   45.7593   -7.1672 N.am    1  UNL1       -0.2986
     17 C         -28.2111   46.5326   -8.1670 C.2     1  UNL1        0.2490
     18 O         -26.9738   46.3563   -8.3334 O.2     1  UNL1       -0.2700
     19 H         -29.1818   44.7918   -7.4280 H       1  UNL1        0.1500
     20 C         -28.1787   45.1693   -4.8520 C.3     1  UNL1        0.0262
     21 C         -28.9494   46.1459   -5.7518 C.3     1  UNL1        0.0944
     22 C         -28.4997   47.5820   -5.5650 C.ar    1  UNL1       -0.0045
     23 C         -29.4173   48.6290   -5.7526 C.ar    1  UNL1       -0.0025
     24 C         -29.0105   49.9615   -5.6506 C.ar    1  UNL1        0.0062
     25 C         -27.6739   50.2793   -5.3564 C.ar    1  UNL1        0.0754
     26 C         -26.7570   49.2320   -5.1605 C.ar    1  UNL1        0.0062
     27 C         -27.1653   47.8996   -5.2588 C.ar    1  UNL1       -0.0025
     28 C         -27.2144   51.6887   -5.2942 C.2     1  UNL1        0.3380
     29 O         -26.3604   52.0294   -4.4330 O.2     1  UNL1       -0.2451
     30 O         -27.7071   52.6632   -6.1615 O.3     1  UNL1       -0.4771
     31 H         -28.4632   52.4873   -6.8099 H       1  UNL1        0.2954
     32 C         -22.6176   52.2684   -9.8455 C.3     1  UNL1        0.4186
     33 F         -22.8788   53.5500  -10.2990 F       1  UNL1       -0.1659
     34 F         -21.7961   52.3426   -8.7362 F       1  UNL1       -0.1659
     35 F         -21.9582   51.5809  -10.8497 F       1  UNL1       -0.1659
@<TRIPOS>BOND
     1    20    21    1
     2    21    16    1
     3    16    17   am
     4    17    18    2
     5    17     1    1
     6     1     2   ar
     7     2     3   ar
     8     3     4   ar
     9     4     5   ar
    10     5     6   ar
    11     6     7    1
    12     7     8    1
    13     8     9   ar
    14     9    10   ar
    15    10    11   ar
    16    11    32    1
    17    32    33    1
    18    32    34    1
    19    32    35    1
    20    11    12   ar
    21    12    13   ar
    22    13    14    1
    23    14    15    1
    24    21    22    1
    25    22    23   ar
    26    23    24   ar
    27    24    25   ar
    28    25    28    1
    29    28    29    2
    30    28    30    1
    31    25    26   ar
    32    26    27   ar
    33     6     1   ar
    34    13     8   ar
    35    27    22   ar
    36    15     5    1
    37    16    19    1
    38    30    31    1
@<TRIPOS>MOLECULE
*****
 35 38 0 0 0
SMALL
GASTEIGER

@<TRIPOS>ATOM
      1 C         -27.7613   51.0034  -11.6445 C.ar    1  UNL1        0.0875
      2 C         -28.5831   51.9950  -12.2087 C.ar    1  UNL1        0.0076
      3 C         -29.9285   52.0840  -11.8649 C.ar    1  UNL1        0.0000
      4 C         -30.4774   51.1824  -10.9596 C.ar    1  UNL1       -0.0012
      5 C         -29.6854   50.1722  -10.3914 C.ar    1  UNL1        0.0128
      6 C         -28.3168   50.0801  -10.7220 C.ar    1  UNL1        0.1455
      7 O         -27.4933   49.0553  -10.2280 O.3     1  UNL1       -0.4540
      8 C         -27.4388   48.4526   -8.9557 C.ar    1  UNL1        0.1412
      9 C         -26.3242   47.6355   -8.7285 C.ar    1  UNL1        0.0371
     10 C         -26.0942   47.0511   -7.4847 C.ar    1  UNL1        0.0070
     11 C         -26.9955   47.2496   -6.4326 C.ar    1  UNL1        0.0713
     12 C         -28.1225   48.0557   -6.6474 C.ar    1  UNL1        0.0026
     13 C         -28.3820   48.6326   -7.9060 C.ar    1  UNL1        0.0126
     14 C         -29.6524   49.4282   -8.0499 C.3     1  UNL1        0.0342
     15 C         -30.3007   49.2250   -9.4126 C.3     1  UNL1        0.0342
     16 N         -25.3319   50.3851  -11.1747 N.am    1  UNL1       -0.2986
     17 C         -26.3237   50.9734  -12.0246 C.2     1  UNL1        0.2490
     18 O         -25.9573   51.4757  -13.1214 O.2     1  UNL1       -0.2700
     19 H         -25.0390   49.4047  -11.3865 H       1  UNL1        0.1500
     20 C         -24.0840   52.5047  -10.7782 C.3     1  UNL1        0.0262
     21 C         -24.5359   51.1527  -10.2082 C.3     1  UNL1        0.0944
     22 C         -25.2784   51.2983   -8.8941 C.ar    1  UNL1       -0.0045
     23 C         -24.8577   50.5657   -7.7717 C.ar    1  UNL1       -0.0025
     24 C         -25.5652   50.6333   -6.5690 C.ar    1  UNL1        0.0062
     25 C         -26.7118   51.4379   -6.4596 C.ar    1  UNL1        0.0754
     26 C         -27.1286   52.1775   -7.5799 C.ar    1  UNL1        0.0062
     27 C         -26.4184   52.1126   -8.7812 C.ar    1  UNL1       -0.0025
     28 C         -27.5034   51.4820   -5.2055 C.2     1  UNL1        0.3380
     29 O         -27.0463   50.9483   -4.1598 O.2     1  UNL1       -0.2451
     30 O         -28.7549   52.0941   -5.1452 O.3     1  UNL1       -0.4771
     31 H         -29.2280   52.4546   -5.9633 H       1  UNL1        0.2954
     32 C         -26.7143   46.6884   -5.0611 C.3     1  UNL1        0.4186
     33 F         -26.6918   47.6937   -4.1096 F       1  UNL1       -0.1659
     34 F         -27.7015   45.7787   -4.7309 F       1  UNL1       -0.1659
     35 F         -25.4870   46.0486   -5.0425 F       1  UNL1       -0.1659
@<TRIPOS>BOND
     1    20    21    1
     2    21    16    1
     3    16    17   am
     4    17    18    2
     5    17     1    1
     6     1     2   ar
     7     2     3   ar
     8     3     4   ar
     9     4     5   ar
    10     5     6   ar
    11     6     7    1
    12     7     8    1
    13     8     9   ar
    14     9    10   ar
    15    10    11   ar
    16    11    32    1
    17    32    33    1
    18    32    34    1
    19    32    35    1
    20    11    12   ar
    21    12    13   ar
    22    13    14    1
    23    14    15    1
    24    21    22    1
    25    22    23   ar
    26    23    24   ar
    27    24    25   ar
    28    25    28    1
    29    28    29    2
    30    28    30    1
    31    25    26   ar
    32    26    27   ar
    33     6     1   ar
    34    13     8   ar
    35    27    22   ar
    36    15     5    1
    37    16    19    1
    38    30    31    1
@<TRIPOS>MOLECULE
*****
 35 38 0 0 0
SMALL
GASTEIGER

@<TRIPOS>ATOM
      1 C         -24.1331   51.1866   -9.4595 C.ar    1  UNL1        0.0875
      2 C         -25.1545   51.0421  -10.4150 C.ar    1  UNL1        0.0076
      3 C         -25.0011   51.5481  -11.7020 C.ar    1  UNL1        0.0000
      4 C         -23.8312   52.2120  -12.0548 C.ar    1  UNL1       -0.0012
      5 C         -22.8003   52.3850  -11.1179 C.ar    1  UNL1        0.0128
      6 C         -22.9387   51.8646   -9.8137 C.ar    1  UNL1        0.1455
      7 O         -21.9641   52.0590   -8.8213 O.3     1  UNL1       -0.4540
      8 C         -20.5574   52.0472   -8.8995 C.ar    1  UNL1        0.1412
      9 C         -19.8904   52.0240   -7.6682 C.ar    1  UNL1        0.0371
     10 C         -18.5030   51.9170   -7.5963 C.ar    1  UNL1        0.0070
     11 C         -17.7369   51.8559   -8.7659 C.ar    1  UNL1        0.0713
     12 C         -18.3889   51.8895  -10.0067 C.ar    1  UNL1        0.0026
     13 C         -19.7884   52.0229  -10.0961 C.ar    1  UNL1        0.0126
     14 C         -20.3845   52.1140  -11.4759 C.3     1  UNL1        0.0342
     15 C         -21.5498   53.0927  -11.5297 C.3     1  UNL1        0.0342
     16 N         -25.3946   49.6689   -7.8438 N.am    1  UNL1       -0.2986
     17 C         -24.3383   50.5997   -8.1083 C.2     1  UNL1        0.2490
     18 O         -23.5680   50.9227   -7.1639 O.2     1  UNL1       -0.2700
     19 H         -25.1524   48.6525   -7.8556 H       1  UNL1        0.1500
     20 C         -26.5908   51.1563   -6.2426 C.3     1  UNL1        0.0262
     21 C         -26.7065   50.0626   -7.3139 C.3     1  UNL1        0.0944
     22 C         -27.6466   50.4518   -8.4384 C.ar    1  UNL1       -0.0045
     23 C         -28.2957   49.4514   -9.1809 C.ar    1  UNL1       -0.0025
     24 C         -29.1146   49.7835  -10.2629 C.ar    1  UNL1        0.0062
     25 C         -29.3054   51.1269  -10.6278 C.ar    1  UNL1        0.0754
     26 C         -28.6627   52.1288   -9.8801 C.ar    1  UNL1        0.0062
     27 C         -27.8470   51.7962   -8.7957 C.ar    1  UNL1       -0.0025
     28 C         -30.1310   51.4942  -11.8045 C.2     1  UNL1        0.3380
     29 O         -29.6525   51.3767  -12.9639 O.2     1  UNL1       -0.2451
     30 O         -31.4318   51.9785  -11.6697 O.3     1  UNL1       -0.4771
     31 H         -31.8460   52.1926  -10.7722 H       1  UNL1        0.2954
     32 C         -16.2430   51.6588   -8.6988 C.3     1  UNL1        0.4186
     33 F         -15.6961   52.3719   -7.6459 F       1  UNL1       -0.1659
     34 F         -15.9691   50.3154   -8.5226 F       1  UNL1       -0.1659
     35 F         -15.6450   52.0911   -9.8700 F       1  UNL1       -0.1659
@<TRIPOS>BOND
     1    20    21    1
     2    21    16    1
     3    16    17   am
     4    17    18    2
     5    17     1    1
     6     1     2   ar
     7     2     3   ar
     8     3     4   ar
     9     4     5   ar
    10     5     6   ar
    11     6     7    1
    12     7     8    1
    13     8     9   ar
    14     9    10   ar
    15    10    11   ar
    16    11    32    1
    17    32    33    1
    18    32    34    1
    19    32    35    1
    20    11    12   ar
    21    12    13   ar
    22    13    14    1
    23    14    15    1
    24    21    22    1
    25    22    23   ar
    26    23    24   ar
    27    24    25   ar
    28    25    28    1
    29    28    29    2
    30    28    30    1
    31    25    26   ar
    32    26    27   ar
    33     6     1   ar
    34    13     8   ar
    35    27    22   ar
    36    15     5    1
    37    16    19    1
    38    30    31    1
@<TRIPOS>MOLECULE
*****
 35 38 0 0 0
SMALL
GASTEIGER

@<TRIPOS>ATOM
      1 C         -24.1696   51.2728   -9.4029 C.ar    1  UNL1        0.0875
      2 C         -25.2047   51.1179  -10.3418 C.ar    1  UNL1        0.0076
      3 C         -25.0583   51.5833  -11.6449 C.ar    1  UNL1        0.0000
      4 C         -23.8817   52.2163  -12.0306 C.ar    1  UNL1       -0.0012
      5 C         -22.8367   52.3990  -11.1112 C.ar    1  UNL1        0.0128
      6 C         -22.9682   51.9195   -9.7907 C.ar    1  UNL1        0.1455
      7 O         -21.9786   52.1261   -8.8158 O.3     1  UNL1       -0.4540
      8 C         -20.5734   52.0877   -8.9098 C.ar    1  UNL1        0.1412
      9 C         -19.8921   52.0891   -7.6861 C.ar    1  UNL1        0.0371
     10 C         -18.5059   51.9604   -7.6271 C.ar    1  UNL1        0.0070
     11 C         -17.7551   51.8519   -8.8031 C.ar    1  UNL1        0.0713
     12 C         -18.4213   51.8604  -10.0368 C.ar    1  UNL1        0.0026
     13 C         -19.8193   52.0152  -10.1140 C.ar    1  UNL1        0.0126
     14 C         -20.4304   52.0760  -11.4889 C.3     1  UNL1        0.0342
     15 C         -21.5796   53.0726  -11.5581 C.3     1  UNL1        0.0342
     16 N         -25.6558   50.3035   -7.5707 N.am    1  UNL1       -0.2986
     17 C         -24.3684   50.7294   -8.0327 C.2     1  UNL1        0.2490
     18 O         -23.3849   50.6363   -7.2493 O.2     1  UNL1       -0.2700
     19 H         -25.8690   49.2817   -7.6194 H       1  UNL1        0.1500
     20 C         -27.6387   51.8057   -7.7075 C.3     1  UNL1        0.0262
     21 C         -26.5690   51.1666   -6.8105 C.3     1  UNL1        0.0944
     22 C         -27.1706   50.4146   -5.6391 C.ar    1  UNL1       -0.0045
     23 C         -26.3782   50.1269   -4.5154 C.ar    1  UNL1       -0.0025
     24 C         -26.8911   49.3788   -3.4529 C.ar    1  UNL1        0.0062
     25 C         -28.2119   48.9009   -3.4885 C.ar    1  UNL1        0.0754
     26 C         -29.0079   49.1954   -4.6089 C.ar    1  UNL1        0.0062
     27 C         -28.4957   49.9469   -5.6694 C.ar    1  UNL1       -0.0025
     28 C         -28.7560   48.0626   -2.3918 C.2     1  UNL1        0.3380
     29 O         -28.1496   48.0071   -1.2889 O.2     1  UNL1       -0.2451
     30 O         -29.9255   47.3185   -2.5440 O.3     1  UNL1       -0.4771
     31 H         -30.4103   47.2353   -3.4277 H       1  UNL1        0.2954
     32 C         -16.2640   51.6312   -8.7475 C.3     1  UNL1        0.4186
     33 F         -15.7046   52.2967   -7.6703 F       1  UNL1       -0.1659
     34 F         -16.0090   50.2783   -8.6221 F       1  UNL1       -0.1659
     35 F         -15.6624   52.0982   -9.9034 F       1  UNL1       -0.1659
@<TRIPOS>BOND
     1    20    21    1
     2    21    16    1
     3    16    17   am
     4    17    18    2
     5    17     1    1
     6     1     2   ar
     7     2     3   ar
     8     3     4   ar
     9     4     5   ar
    10     5     6   ar
    11     6     7    1
    12     7     8    1
    13     8     9   ar
    14     9    10   ar
    15    10    11   ar
    16    11    32    1
    17    32    33    1
    18    32    34    1
    19    32    35    1
    20    11    12   ar
    21    12    13   ar
    22    13    14    1
    23    14    15    1
    24    21    22    1
    25    22    23   ar
    26    23    24   ar
    27    24    25   ar
    28    25    28    1
    29    28    29    2
    30    28    30    1
    31    25    26   ar
    32    26    27   ar
    33     6     1   ar
    34    13     8   ar
    35    27    22   ar
    36    15     5    1
    37    16    19    1
    38    30    31    1
