@<TRIPOS>MOLECULE
*****
 46 51 0 0 0
SMALL
GASTEIGER

@<TRIPOS>ATOM
      1 C          61.4910   89.4944    9.0165 C.ar    1  UNL1        0.0756
      2 C          60.7584   88.3125    9.2013 C.ar    1  UNL1        0.1154
      3 N          60.7924   87.6638   10.3941 N.ar    1  UNL1       -0.2278
      4 C          61.5177   88.1186   11.4536 C.ar    1  UNL1        0.1323
      5 C          62.2543   89.3074   11.3124 C.ar    1  UNL1        0.0414
      6 C          62.2344   89.9988   10.0976 C.ar    1  UNL1        0.0393
      7 S          63.1999   91.5040    9.9410 S.3     1  UNL1       -0.1401
      8 H          62.1187   92.3042   10.3551 H       1  UNL1        0.1072
      9 N          61.5141   87.3785   12.6953 N.pl3   1  UNL1       -0.2932
     10 C          60.2560   86.8348   13.2360 C.3     1  UNL1        0.0923
     11 C          60.5186   85.7397   14.2748 C.3     1  UNL1        0.0252
     12 C          61.4431   86.2439   15.4026 C.3     1  UNL1        0.0472
     13 C          62.6337   87.0943   14.8739 C.3     1  UNL1        0.0252
     14 C          62.7880   87.0417   13.3496 C.3     1  UNL1        0.0923
     15 C          61.9308   85.0529   16.2523 C.3     1  UNL1        0.2054
     16 O          63.1717   84.5416   15.7618 O.3     1  UNL1       -0.4755
     17 C          63.3211   83.4477   14.8929 C.ar    1  UNL1        0.1388
     18 C          63.2045   82.1621   15.4310 C.ar    1  UNL1        0.0369
     19 C          63.3503   81.0374   14.6182 C.ar    1  UNL1        0.0033
     20 C          63.6102   81.1861   13.2547 C.ar    1  UNL1        0.0066
     21 C          63.7230   82.4669   12.6866 C.ar    1  UNL1        0.0785
     22 C          63.5908   83.5959   13.5169 C.ar    1  UNL1        0.0433
     23 C          63.9997   82.6107   11.2366 C.2     1  UNL1        0.3381
     24 O          65.1316   83.0093   10.8528 O.2     1  UNL1       -0.2451
     25 O          63.0418   82.2988   10.2721 O.3     1  UNL1       -0.4771
     26 H          62.1536   81.8731   10.5038 H       1  UNL1        0.2954
     27 C          60.3085   90.1628    6.8780 C.2     1  UNL1        0.2840
     28 O          59.2617   89.5421    7.2050 O.2     1  UNL1       -0.2665
     29 N          61.4339   90.2106    7.7715 N.am    1  UNL1       -0.2763
     30 H          62.2664   90.7787    7.5034 H       1  UNL1        0.1553
     31 C          57.7853   91.2075    5.1420 C.3     1  UNL1        0.0345
     32 C          59.2457   91.2901    4.8158 C.ar    1  UNL1        0.0202
     33 C          60.3370   90.8546    5.5779 C.ar    1  UNL1        0.1946
     34 O          61.4672   91.1699    4.9700 O.2     1  UNL1       -0.4492
     35 C          61.1651   91.7649    3.8419 C.ar    1  UNL1        0.1452
     36 C          62.0442   92.2596    2.8848 C.ar    1  UNL1        0.0375
     37 C          61.4996   92.8687    1.7406 C.ar    1  UNL1        0.0031
     38 C          60.0922   92.9743    1.5712 C.ar    1  UNL1        0.0002
     39 C          59.2328   92.4580    2.5706 C.ar    1  UNL1        0.0028
     40 C          59.8085   91.8589    3.6911 C.ar    1  UNL1        0.0337
     41 C          59.5280   93.6196    0.3585 C.ar    1  UNL1        0.0000
     42 C          60.3689   94.2782   -0.5588 C.ar    1  UNL1        0.0000
     43 C          59.8347   94.8859   -1.6992 C.ar    1  UNL1        0.0000
     44 C          58.4592   94.8431   -1.9373 C.ar    1  UNL1        0.0000
     45 C          57.6146   94.1927   -1.0351 C.ar    1  UNL1        0.0000
     46 C          58.1431   93.5841    0.1074 C.ar    1  UNL1        0.0000
@<TRIPOS>BOND
     1    31    32    1
     2    32    33   ar
     3    33    27    1
     4    27    28    2
     5    27    29   am
     6    29     1    1
     7     1     2   ar
     8     2     3   ar
     9     3     4   ar
    10     4     9    1
    11     9    10    1
    12    10    11    1
    13    11    12    1
    14    12    15    1
    15    15    16    1
    16    16    17    1
    17    17    18   ar
    18    18    19   ar
    19    19    20   ar
    20    20    21   ar
    21    21    23    1
    22    23    24    2
    23    23    25    1
    24    21    22   ar
    25    12    13    1
    26    13    14    1
    27     4     5   ar
    28     5     6   ar
    29     6     7    1
    30    33    34   ar
    31    34    35   ar
    32    35    36   ar
    33    36    37   ar
    34    37    38   ar
    35    38    41    1
    36    41    42   ar
    37    42    43   ar
    38    43    44   ar
    39    44    45   ar
    40    45    46   ar
    41    38    39   ar
    42    39    40   ar
    43    40    32   ar
    44     6     1   ar
    45    40    35   ar
    46    14     9    1
    47    46    41   ar
    48    22    17   ar
    49    29    30    1
    50    25    26    1
    51     7     8    1
