@<TRIPOS>MOLECULE
*****
 37 40 0 0 0
SMALL
GASTEIGER

@<TRIPOS>ATOM
      1 C          50.5685   12.6806  -20.4372 C.ar    1  UNL1        0.0443
      2 C          50.2789   12.6123  -21.8029 C.ar    1  UNL1        0.0010
      3 C          49.8330   11.4227  -22.3900 C.ar    1  UNL1       -0.0017
      4 C          49.6409   10.2787  -21.5774 C.ar    1  UNL1        0.0145
      5 C          50.0338   10.3100  -20.2143 C.ar    1  UNL1        0.1633
      6 O          50.0254    9.1473  -19.4400 O.3     1  UNL1       -0.5031
      7 C          50.4680   11.5296  -19.6339 C.ar    1  UNL1        0.1701
      8 C          49.0177    9.0462  -22.2032 C.3     1  UNL1        0.0299
      9 C          50.0172    8.2989  -23.0984 C.3     1  UNL1        0.0091
     10 C          50.8412    9.2222  -24.0161 C.3     1  UNL1        0.0227
     11 C          50.0052   10.3312  -24.6293 C.2     1  UNL1       -0.0398
     12 C          49.5854   11.3803  -23.8661 C.2     1  UNL1       -0.0076
     13 H          49.9390    8.2141  -19.8181 H       1  UNL1        0.2923
     14 C          48.8167   12.4932  -24.4648 C.ar    1  UNL1        0.0056
     15 C          47.4418   12.5861  -24.2460 C.ar    1  UNL1        0.0402
     16 C          46.6969   13.6243  -24.8310 C.ar    1  UNL1        0.1754
     17 C          47.3373   14.5838  -25.6348 C.ar    1  UNL1        0.2061
     18 C          48.7392   14.5035  -25.8448 C.ar    1  UNL1        0.1754
     19 C          49.4618   13.4514  -25.2515 C.ar    1  UNL1        0.0402
     20 O          45.3100   13.7373  -24.6403 O.3     1  UNL1       -0.4683
     21 C          44.3982   12.6439  -24.6694 C.3     1  UNL1        0.2526
     22 O          46.5208   15.5865  -26.1922 O.3     1  UNL1       -0.4654
     23 C          45.9823   15.6071  -27.5095 C.3     1  UNL1        0.2528
     24 O          49.3889   15.4631  -26.6369 O.3     1  UNL1       -0.4683
     25 C          50.0693   16.6102  -26.1369 C.3     1  UNL1        0.2526
     26 O          50.8234   11.6618  -18.2759 O.3     1  UNL1       -0.4686
     27 C          49.9378   11.8051  -17.1711 C.3     1  UNL1        0.2526
     28 C          51.0566   13.9848  -19.8508 C.3     1  UNL1        0.1718
     29 C          53.3156   13.5951  -20.1968 C.3     1  UNL1        0.1746
     30 O          52.2223   14.4266  -20.5197 O.3     1  UNL1       -0.3462
     31 C          49.6518   10.2183  -26.1024 C.3     1  UNL1        0.0483
     32 C          50.8736   10.2271  -26.9865 C.ar    1  UNL1       -0.0181
     33 C          51.8364   11.2433  -26.8537 C.ar    1  UNL1       -0.0039
     34 C          52.9678   11.2549  -27.6746 C.ar    1  UNL1       -0.0003
     35 C          53.1394   10.2641  -28.6446 C.ar    1  UNL1       -0.0000
     36 C          52.1790    9.2606  -28.7962 C.ar    1  UNL1       -0.0003
     37 C          51.0466    9.2438  -27.9763 C.ar    1  UNL1       -0.0039
@<TRIPOS>BOND
     1    29    30    1
     2    30    28    1
     3    28     1    1
     4     1     2   ar
     5     2     3   ar
     6     3     4   ar
     7     4     5   ar
     8     5     6    1
     9     5     7   ar
    10     7    26    1
    11    26    27    1
    12     4     8    1
    13     8     9    1
    14     9    10    1
    15    10    11    1
    16    11    31    1
    17    31    32    1
    18    32    33   ar
    19    33    34   ar
    20    34    35   ar
    21    35    36   ar
    22    36    37   ar
    23    11    12    2
    24    12    14    1
    25    14    15   ar
    26    15    16   ar
    27    16    20    1
    28    20    21    1
    29    16    17   ar
    30    17    22    1
    31    22    23    1
    32    17    18   ar
    33    18    24    1
    34    24    25    1
    35    18    19   ar
    36     7     1   ar
    37    37    32   ar
    38    19    14   ar
    39    12     3    1
    40     6    13    1
@<TRIPOS>MOLECULE
*****
 37 40 0 0 0
SMALL
GASTEIGER

@<TRIPOS>ATOM
      1 C          50.5551   12.6761  -20.4620 C.ar    1  UNL1        0.0443
      2 C          50.2698   12.6054  -21.8284 C.ar    1  UNL1        0.0010
      3 C          49.8293   11.4138  -22.4154 C.ar    1  UNL1       -0.0017
      4 C          49.6384   10.2701  -21.6021 C.ar    1  UNL1        0.0145
      5 C          50.0273   10.3041  -20.2379 C.ar    1  UNL1        0.1633
      6 O          50.0202    9.1423  -19.4623 O.3     1  UNL1       -0.5031
      7 C          50.4559   11.5258  -19.6576 C.ar    1  UNL1        0.1701
      8 C          49.0209    9.0349  -22.2283 C.3     1  UNL1        0.0299
      9 C          50.0253    8.2898  -23.1197 C.3     1  UNL1        0.0091
     10 C          50.8491    9.2146  -24.0361 C.3     1  UNL1        0.0227
     11 C          50.0114   10.3203  -24.6530 C.2     1  UNL1       -0.0398
     12 C          49.5861   11.3689  -23.8922 C.2     1  UNL1       -0.0076
     13 H          49.9379    8.2084  -19.8396 H       1  UNL1        0.2923
     14 C          48.8156   12.4787  -24.4944 C.ar    1  UNL1        0.0056
     15 C          49.4728   13.4575  -25.2405 C.ar    1  UNL1        0.0402
     16 C          48.7548   14.5307  -25.7955 C.ar    1  UNL1        0.1754
     17 C          47.3640   14.6183  -25.6092 C.ar    1  UNL1        0.2061
     18 C          46.6888   13.6144  -24.8663 C.ar    1  UNL1        0.1754
     19 C          47.4313   12.5524  -24.3169 C.ar    1  UNL1        0.0402
     20 O          49.3895   15.5382  -26.5402 O.3     1  UNL1       -0.4683
     21 C          50.3270   16.4684  -26.0075 C.3     1  UNL1        0.2526
     22 O          46.7185   15.7277  -26.1885 O.3     1  UNL1       -0.4654
     23 C          45.9937   15.7432  -27.4132 C.3     1  UNL1        0.2528
     24 O          45.2988   13.6878  -24.6842 O.3     1  UNL1       -0.4683
     25 C          44.4146   12.5712  -24.6853 C.3     1  UNL1        0.2526
     26 O          50.8070   11.6605  -18.2988 O.3     1  UNL1       -0.4686
     27 C          49.9174   11.7893  -17.1953 C.3     1  UNL1        0.2526
     28 C          51.0374   13.9825  -19.8756 C.3     1  UNL1        0.1718
     29 C          53.2602   13.7479  -20.4911 C.3     1  UNL1        0.1746
     30 O          52.3658   13.8574  -19.4052 O.3     1  UNL1       -0.3462
     31 C          49.6626   10.2046  -26.1270 C.3     1  UNL1        0.0483
     32 C          50.8870   10.2168  -27.0076 C.ar    1  UNL1       -0.0181
     33 C          51.8486   11.2334  -26.8693 C.ar    1  UNL1       -0.0039
     34 C          52.9823   11.2480  -27.6869 C.ar    1  UNL1       -0.0003
     35 C          53.1574   10.2600  -28.6591 C.ar    1  UNL1       -0.0000
     36 C          52.1983    9.2562  -28.8161 C.ar    1  UNL1       -0.0003
     37 C          51.0636    9.2362  -27.9995 C.ar    1  UNL1       -0.0039
@<TRIPOS>BOND
     1    29    30    1
     2    30    28    1
     3    28     1    1
     4     1     2   ar
     5     2     3   ar
     6     3     4   ar
     7     4     5   ar
     8     5     6    1
     9     5     7   ar
    10     7    26    1
    11    26    27    1
    12     4     8    1
    13     8     9    1
    14     9    10    1
    15    10    11    1
    16    11    31    1
    17    31    32    1
    18    32    33   ar
    19    33    34   ar
    20    34    35   ar
    21    35    36   ar
    22    36    37   ar
    23    11    12    2
    24    12    14    1
    25    14    15   ar
    26    15    16   ar
    27    16    20    1
    28    20    21    1
    29    16    17   ar
    30    17    22    1
    31    22    23    1
    32    17    18   ar
    33    18    24    1
    34    24    25    1
    35    18    19   ar
    36     7     1   ar
    37    37    32   ar
    38    19    14   ar
    39    12     3    1
    40     6    13    1
@<TRIPOS>MOLECULE
*****
 37 40 0 0 0
SMALL
GASTEIGER

@<TRIPOS>ATOM
      1 C          46.7946   11.4483  -28.6212 C.ar    1  UNL1        0.0443
      2 C          47.4420   11.7491  -27.4196 C.ar    1  UNL1        0.0010
      3 C          47.3775   13.0318  -26.8636 C.ar    1  UNL1       -0.0017
      4 C          46.6145   14.0316  -27.5150 C.ar    1  UNL1        0.0145
      5 C          46.0446   13.7646  -28.7867 C.ar    1  UNL1        0.1633
      6 O          45.4448   14.7836  -29.5306 O.3     1  UNL1       -0.5031
      7 C          46.1069   12.4537  -29.3257 C.ar    1  UNL1        0.1701
      8 C          46.4359   15.3682  -26.8220 C.3     1  UNL1        0.0299
      9 C          47.7094   16.2228  -26.9031 C.3     1  UNL1        0.0091
     10 C          49.0038   15.4392  -26.6123 C.3     1  UNL1        0.0227
     11 C          48.8510   14.4716  -25.4524 C.2     1  UNL1       -0.0398
     12 C          48.1299   13.3241  -25.6025 C.2     1  UNL1       -0.0076
     13 H          45.5426   15.7685  -29.3263 H       1  UNL1        0.2923
     14 C          48.0196   12.3483  -24.4963 C.ar    1  UNL1        0.0056
     15 C          48.8817   11.2523  -24.4466 C.ar    1  UNL1        0.0402
     16 C          48.7692   10.3048  -23.4148 C.ar    1  UNL1        0.1754
     17 C          47.7900   10.4624  -22.4182 C.ar    1  UNL1        0.2061
     18 C          46.9230   11.5861  -22.4547 C.ar    1  UNL1        0.1754
     19 C          47.0531   12.5182  -23.5012 C.ar    1  UNL1        0.0402
     20 O          49.6133    9.1845  -23.3447 O.3     1  UNL1       -0.4683
     21 C          50.7927    9.0109  -24.1235 C.3     1  UNL1        0.2526
     22 O          47.7352    9.4662  -21.4245 O.3     1  UNL1       -0.4654
     23 C          48.6164    9.3242  -20.3159 C.3     1  UNL1        0.2528
     24 O          45.9495   11.7574  -21.4580 O.3     1  UNL1       -0.4683
     25 C          46.2111   12.1896  -20.1263 C.3     1  UNL1        0.2526
     26 O          45.5200   12.0892  -30.5548 O.3     1  UNL1       -0.4686
     27 C          45.8558   12.5905  -31.8438 C.3     1  UNL1        0.2526
     28 C          46.9013   10.0514  -29.1872 C.3     1  UNL1        0.1718
     29 C          48.5355    8.5348  -29.8230 C.3     1  UNL1        0.1746
     30 O          48.1412    9.4659  -28.8388 O.3     1  UNL1       -0.3462
     31 C          49.5147   14.8360  -24.1355 C.3     1  UNL1        0.0483
     32 C          50.8175   14.1046  -23.9294 C.ar    1  UNL1       -0.0181
     33 C          51.3658   13.3288  -24.9662 C.ar    1  UNL1       -0.0039
     34 C          52.5714   12.6476  -24.7758 C.ar    1  UNL1       -0.0003
     35 C          53.2304   12.7206  -23.5459 C.ar    1  UNL1       -0.0000
     36 C          52.6840   13.4742  -22.5039 C.ar    1  UNL1       -0.0003
     37 C          51.4792   14.1589  -22.6902 C.ar    1  UNL1       -0.0039
@<TRIPOS>BOND
     1    29    30    1
     2    30    28    1
     3    28     1    1
     4     1     2   ar
     5     2     3   ar
     6     3     4   ar
     7     4     5   ar
     8     5     6    1
     9     5     7   ar
    10     7    26    1
    11    26    27    1
    12     4     8    1
    13     8     9    1
    14     9    10    1
    15    10    11    1
    16    11    31    1
    17    31    32    1
    18    32    33   ar
    19    33    34   ar
    20    34    35   ar
    21    35    36   ar
    22    36    37   ar
    23    11    12    2
    24    12    14    1
    25    14    15   ar
    26    15    16   ar
    27    16    20    1
    28    20    21    1
    29    16    17   ar
    30    17    22    1
    31    22    23    1
    32    17    18   ar
    33    18    24    1
    34    24    25    1
    35    18    19   ar
    36     7     1   ar
    37    37    32   ar
    38    19    14   ar
    39    12     3    1
    40     6    13    1
@<TRIPOS>MOLECULE
*****
 37 40 0 0 0
SMALL
GASTEIGER

@<TRIPOS>ATOM
      1 C          46.8692   11.3289  -28.6654 C.ar    1  UNL1        0.0443
      2 C          47.5179   11.6250  -27.4632 C.ar    1  UNL1        0.0010
      3 C          47.4235   12.8951  -26.8832 C.ar    1  UNL1       -0.0017
      4 C          46.6288   13.8857  -27.5102 C.ar    1  UNL1        0.0145
      5 C          46.0562   13.6268  -28.7824 C.ar    1  UNL1        0.1633
      6 O          45.4234   14.6428  -29.5028 O.3     1  UNL1       -0.5031
      7 C          46.1493   12.3282  -29.3460 C.ar    1  UNL1        0.1701
      8 C          46.4199   15.2041  -26.7912 C.3     1  UNL1        0.0299
      9 C          47.6694   16.0940  -26.8659 C.3     1  UNL1        0.0091
     10 C          48.9865   15.3404  -26.5993 C.3     1  UNL1        0.0227
     11 C          48.8690   14.3480  -25.4565 C.2     1  UNL1       -0.0398
     12 C          48.1777   13.1843  -25.6224 C.2     1  UNL1       -0.0076
     13 H          45.4964   15.6260  -29.2809 H       1  UNL1        0.2923
     14 C          48.1024   12.1858  -24.5337 C.ar    1  UNL1        0.0056
     15 C          47.1313   12.3119  -23.5399 C.ar    1  UNL1        0.0402
     16 C          47.0667   11.3839  -22.4864 C.ar    1  UNL1        0.1754
     17 C          47.9777   10.3142  -22.4339 C.ar    1  UNL1        0.2061
     18 C          48.9556   10.1718  -23.4533 C.ar    1  UNL1        0.1754
     19 C          49.0022   11.1172  -24.4950 C.ar    1  UNL1        0.0402
     20 O          46.1094   11.4911  -21.4644 O.3     1  UNL1       -0.4683
     21 C          46.2914   12.2294  -20.2604 C.3     1  UNL1        0.2526
     22 O          47.8540    9.4331  -21.3424 O.3     1  UNL1       -0.4654
     23 C          48.7463    9.3180  -20.2396 C.3     1  UNL1        0.2528
     24 O          49.8623    9.1009  -23.4149 O.3     1  UNL1       -0.4683
     25 C          51.0260    8.9862  -24.2282 C.3     1  UNL1        0.2526
     26 O          45.5627   11.9706  -30.5773 O.3     1  UNL1       -0.4686
     27 C          45.8207   12.5562  -31.8485 C.3     1  UNL1        0.2526
     28 C          47.0089    9.9460  -29.2580 C.3     1  UNL1        0.1718
     29 C          48.6181    8.3859  -29.8507 C.3     1  UNL1        0.1746
     30 O          48.2608    9.3820  -28.9173 O.3     1  UNL1       -0.3462
     31 C          49.5331   14.7059  -24.1380 C.3     1  UNL1        0.0483
     32 C          50.8567   14.0063  -23.9553 C.ar    1  UNL1       -0.0181
     33 C          51.4006   13.2362  -24.9985 C.ar    1  UNL1       -0.0039
     34 C          52.6256   12.5845  -24.8297 C.ar    1  UNL1       -0.0003
     35 C          53.3088   12.6814  -23.6148 C.ar    1  UNL1       -0.0000
     36 C          52.7674   13.4295  -22.5662 C.ar    1  UNL1       -0.0003
     37 C          51.5433   14.0847  -22.7310 C.ar    1  UNL1       -0.0039
@<TRIPOS>BOND
     1    29    30    1
     2    30    28    1
     3    28     1    1
     4     1     2   ar
     5     2     3   ar
     6     3     4   ar
     7     4     5   ar
     8     5     6    1
     9     5     7   ar
    10     7    26    1
    11    26    27    1
    12     4     8    1
    13     8     9    1
    14     9    10    1
    15    10    11    1
    16    11    31    1
    17    31    32    1
    18    32    33   ar
    19    33    34   ar
    20    34    35   ar
    21    35    36   ar
    22    36    37   ar
    23    11    12    2
    24    12    14    1
    25    14    15   ar
    26    15    16   ar
    27    16    20    1
    28    20    21    1
    29    16    17   ar
    30    17    22    1
    31    22    23    1
    32    17    18   ar
    33    18    24    1
    34    24    25    1
    35    18    19   ar
    36     7     1   ar
    37    37    32   ar
    38    19    14   ar
    39    12     3    1
    40     6    13    1
@<TRIPOS>MOLECULE
*****
 37 40 0 0 0
SMALL
GASTEIGER

@<TRIPOS>ATOM
      1 C          48.1198    9.8237  -28.7356 C.ar    1  UNL1        0.0443
      2 C          48.1930   10.4786  -27.5030 C.ar    1  UNL1        0.0010
      3 C          49.3887   10.5240  -26.7771 C.ar    1  UNL1       -0.0017
      4 C          50.5514    9.9236  -27.3190 C.ar    1  UNL1        0.0145
      5 C          50.4597    9.1666  -28.5155 C.ar    1  UNL1        0.1633
      6 O          51.5456    8.4161  -28.9729 O.3     1  UNL1       -0.5031
      7 C          49.2431    9.1463  -29.2451 C.ar    1  UNL1        0.1701
      8 C          51.8670   10.1117  -26.5890 C.3     1  UNL1        0.0299
      9 C          51.9460    9.2358  -25.3299 C.3     1  UNL1        0.0091
     10 C          50.6575    9.2433  -24.4851 C.3     1  UNL1        0.0227
     11 C          50.0444   10.6274  -24.3698 C.2     1  UNL1       -0.0398
     12 C          49.4087   11.1908  -25.4365 C.2     1  UNL1       -0.0076
     13 H          52.3629    8.2039  -28.4177 H       1  UNL1        0.2923
     14 C          48.7608   12.5153  -25.3195 C.ar    1  UNL1        0.0056
     15 C          49.5264   13.6766  -25.4293 C.ar    1  UNL1        0.0402
     16 C          48.9260   14.9400  -25.2939 C.ar    1  UNL1        0.1754
     17 C          47.5440   15.0407  -25.0561 C.ar    1  UNL1        0.2061
     18 C          46.7582   13.8619  -24.9622 C.ar    1  UNL1        0.1754
     19 C          47.3843   12.6086  -25.0968 C.ar    1  UNL1        0.0402
     20 O          49.6718   16.1266  -25.3863 O.3     1  UNL1       -0.4683
     21 C          50.1494   16.6885  -26.6044 C.3     1  UNL1        0.2526
     22 O          47.0197   16.3409  -24.9232 O.3     1  UNL1       -0.4654
     23 C          46.7939   17.0444  -23.7067 C.3     1  UNL1        0.2528
     24 O          45.3758   13.9530  -24.7357 O.3     1  UNL1       -0.4683
     25 C          44.4931   12.8420  -24.6131 C.3     1  UNL1        0.2526
     26 O          49.0816    8.4664  -30.4697 O.3     1  UNL1       -0.4686
     27 C          49.5371    7.1555  -30.7855 C.3     1  UNL1        0.2526
     28 C          46.8041    9.7931  -29.4779 C.3     1  UNL1        0.1718
     29 C          46.2673   11.7258  -30.6404 C.3     1  UNL1        0.1746
     30 O          46.9131   10.4733  -30.7136 O.3     1  UNL1       -0.3462
     31 C          50.1775   11.3512  -23.0409 C.3     1  UNL1        0.0483
     32 C          48.8870   11.3568  -22.2603 C.ar    1  UNL1       -0.0181
     33 C          48.1483   10.1704  -22.1049 C.ar    1  UNL1       -0.0039
     34 C          46.9504   10.1745  -21.3846 C.ar    1  UNL1       -0.0003
     35 C          46.4715   11.3635  -20.8287 C.ar    1  UNL1       -0.0000
     36 C          47.1893   12.5509  -20.9934 C.ar    1  UNL1       -0.0003
     37 C          48.3890   12.5514  -21.7114 C.ar    1  UNL1       -0.0039
@<TRIPOS>BOND
     1    29    30    1
     2    30    28    1
     3    28     1    1
     4     1     2   ar
     5     2     3   ar
     6     3     4   ar
     7     4     5   ar
     8     5     6    1
     9     5     7   ar
    10     7    26    1
    11    26    27    1
    12     4     8    1
    13     8     9    1
    14     9    10    1
    15    10    11    1
    16    11    31    1
    17    31    32    1
    18    32    33   ar
    19    33    34   ar
    20    34    35   ar
    21    35    36   ar
    22    36    37   ar
    23    11    12    2
    24    12    14    1
    25    14    15   ar
    26    15    16   ar
    27    16    20    1
    28    20    21    1
    29    16    17   ar
    30    17    22    1
    31    22    23    1
    32    17    18   ar
    33    18    24    1
    34    24    25    1
    35    18    19   ar
    36     7     1   ar
    37    37    32   ar
    38    19    14   ar
    39    12     3    1
    40     6    13    1
@<TRIPOS>MOLECULE
*****
 37 40 0 0 0
SMALL
GASTEIGER

@<TRIPOS>ATOM
      1 C          48.1166    9.8019  -28.7701 C.ar    1  UNL1        0.0443
      2 C          48.1982   10.4586  -27.5390 C.ar    1  UNL1        0.0010
      3 C          49.3925   10.4845  -26.8098 C.ar    1  UNL1       -0.0017
      4 C          50.5457    9.8621  -27.3471 C.ar    1  UNL1        0.0145
      5 C          50.4437    9.1038  -28.5420 C.ar    1  UNL1        0.1633
      6 O          51.5173    8.3328  -28.9945 O.3     1  UNL1       -0.5031
      7 C          49.2289    9.1033  -29.2748 C.ar    1  UNL1        0.1701
      8 C          51.8625   10.0285  -26.6140 C.3     1  UNL1        0.0299
      9 C          51.9225    9.1546  -25.3524 C.3     1  UNL1        0.0091
     10 C          50.6321    9.1872  -24.5113 C.3     1  UNL1        0.0227
     11 C          50.0435   10.5823  -24.4010 C.2     1  UNL1       -0.0398
     12 C          49.4208   11.1542  -25.4709 C.2     1  UNL1       -0.0076
     13 H          52.3292    8.1075  -28.4365 H       1  UNL1        0.2923
     14 C          48.7964   12.4904  -25.3590 C.ar    1  UNL1        0.0056
     15 C          47.4191   12.6008  -25.1649 C.ar    1  UNL1        0.0402
     16 C          46.8112   13.8653  -25.0832 C.ar    1  UNL1        0.1754
     17 C          47.5922   15.0297  -25.1872 C.ar    1  UNL1        0.2061
     18 C          48.9965   14.9218  -25.3662 C.ar    1  UNL1        0.1754
     19 C          49.5804   13.6438  -25.4496 C.ar    1  UNL1        0.0402
     20 O          45.4260   14.0092  -24.9012 O.3     1  UNL1       -0.4683
     21 C          44.5312   12.9365  -24.6248 C.3     1  UNL1        0.2526
     22 O          46.9081   16.2578  -25.1048 O.3     1  UNL1       -0.4654
     23 C          46.8220   17.1062  -23.9653 C.3     1  UNL1        0.2528
     24 O          49.7857   16.0789  -25.4603 O.3     1  UNL1       -0.4683
     25 C          50.0521   16.7903  -26.6651 C.3     1  UNL1        0.2526
     26 O          49.0586    8.4233  -30.4981 O.3     1  UNL1       -0.4686
     27 C          49.6051    7.1587  -30.8558 C.3     1  UNL1        0.2526
     28 C          46.8025    9.7930  -29.5159 C.3     1  UNL1        0.1718
     29 C          46.2558   11.7354  -30.6574 C.3     1  UNL1        0.1746
     30 O          46.9193   10.4928  -30.7398 O.3     1  UNL1       -0.3462
     31 C          50.1860   11.3070  -23.0736 C.3     1  UNL1        0.0483
     32 C          48.9005   11.3148  -22.2849 C.ar    1  UNL1       -0.0181
     33 C          48.1657   10.1278  -22.1166 C.ar    1  UNL1       -0.0039
     34 C          46.9724   10.1339  -21.3887 C.ar    1  UNL1       -0.0003
     35 C          46.4941   11.3255  -20.8379 C.ar    1  UNL1       -0.0000
     36 C          47.2079   12.5135  -21.0153 C.ar    1  UNL1       -0.0003
     37 C          48.4030   12.5120  -21.7410 C.ar    1  UNL1       -0.0039
@<TRIPOS>BOND
     1    29    30    1
     2    30    28    1
     3    28     1    1
     4     1     2   ar
     5     2     3   ar
     6     3     4   ar
     7     4     5   ar
     8     5     6    1
     9     5     7   ar
    10     7    26    1
    11    26    27    1
    12     4     8    1
    13     8     9    1
    14     9    10    1
    15    10    11    1
    16    11    31    1
    17    31    32    1
    18    32    33   ar
    19    33    34   ar
    20    34    35   ar
    21    35    36   ar
    22    36    37   ar
    23    11    12    2
    24    12    14    1
    25    14    15   ar
    26    15    16   ar
    27    16    20    1
    28    20    21    1
    29    16    17   ar
    30    17    22    1
    31    22    23    1
    32    17    18   ar
    33    18    24    1
    34    24    25    1
    35    18    19   ar
    36     7     1   ar
    37    37    32   ar
    38    19    14   ar
    39    12     3    1
    40     6    13    1
@<TRIPOS>MOLECULE
*****
 37 40 0 0 0
SMALL
GASTEIGER

@<TRIPOS>ATOM
      1 C          47.3460   12.0314  -21.4485 C.ar    1  UNL1        0.0443
      2 C          47.5339   12.6914  -22.6661 C.ar    1  UNL1        0.0010
      3 C          48.8180   12.9642  -23.1512 C.ar    1  UNL1       -0.0017
      4 C          49.9449   12.5332  -22.4093 C.ar    1  UNL1        0.0145
      5 C          49.7636   11.9596  -21.1243 C.ar    1  UNL1        0.1633
      6 O          50.8582   11.6940  -20.2979 O.3     1  UNL1       -0.5031
      7 C          48.4541   11.6762  -20.6574 C.ar    1  UNL1        0.1701
      8 C          51.3208   12.7062  -23.0223 C.3     1  UNL1        0.0299
      9 C          51.7859   14.1688  -22.9659 C.3     1  UNL1        0.0091
     10 C          50.6975   15.1834  -23.3656 C.3     1  UNL1        0.0227
     11 C          49.8855   14.7252  -24.5637 C.2     1  UNL1       -0.0398
     12 C          48.9728   13.7204  -24.4343 C.2     1  UNL1       -0.0076
     13 H          51.7894   12.0532  -20.4564 H       1  UNL1        0.2923
     14 C          48.1378   13.3026  -25.5815 C.ar    1  UNL1        0.0056
     15 C          48.3406   12.0548  -26.1719 C.ar    1  UNL1        0.0402
     16 C          47.5709   11.6579  -27.2788 C.ar    1  UNL1        0.1754
     17 C          46.5824   12.5155  -27.7925 C.ar    1  UNL1        0.2061
     18 C          46.3602   13.7784  -27.1831 C.ar    1  UNL1        0.1754
     19 C          47.1475   14.1543  -26.0787 C.ar    1  UNL1        0.0402
     20 O          47.7601   10.4140  -27.9029 O.3     1  UNL1       -0.4683
     21 C          49.0210    9.7706  -28.0578 C.3     1  UNL1        0.2526
     22 O          45.8605   12.0494  -28.9082 O.3     1  UNL1       -0.4654
     23 C          46.1039   12.3743  -30.2723 C.3     1  UNL1        0.2528
     24 O          45.3680   14.6368  -27.6825 O.3     1  UNL1       -0.4683
     25 C          45.4831   16.0536  -27.7724 C.3     1  UNL1        0.2526
     26 O          48.1867   11.0577  -19.4188 O.3     1  UNL1       -0.4686
     27 C          48.4912   11.5681  -18.1257 C.3     1  UNL1        0.2526
     28 C          45.9401   11.7678  -20.9614 C.3     1  UNL1        0.1718
     29 C          44.5168   12.0180  -19.1486 C.3     1  UNL1        0.1746
     30 O          45.6692   12.5168  -19.7921 O.3     1  UNL1       -0.3462
     31 C          50.1374   15.4141  -25.8939 C.3     1  UNL1        0.0483
     32 C          49.5588   16.8063  -25.9362 C.ar    1  UNL1       -0.0181
     33 C          50.1455   17.7926  -26.7487 C.ar    1  UNL1       -0.0039
     34 C          49.6126   19.0843  -26.7865 C.ar    1  UNL1       -0.0003
     35 C          48.5021   19.4069  -26.0024 C.ar    1  UNL1       -0.0000
     36 C          47.9233   18.4384  -25.1782 C.ar    1  UNL1       -0.0003
     37 C          48.4517   17.1445  -25.1384 C.ar    1  UNL1       -0.0039
@<TRIPOS>BOND
     1    29    30    1
     2    30    28    1
     3    28     1    1
     4     1     2   ar
     5     2     3   ar
     6     3     4   ar
     7     4     5   ar
     8     5     6    1
     9     5     7   ar
    10     7    26    1
    11    26    27    1
    12     4     8    1
    13     8     9    1
    14     9    10    1
    15    10    11    1
    16    11    31    1
    17    31    32    1
    18    32    33   ar
    19    33    34   ar
    20    34    35   ar
    21    35    36   ar
    22    36    37   ar
    23    11    12    2
    24    12    14    1
    25    14    15   ar
    26    15    16   ar
    27    16    20    1
    28    20    21    1
    29    16    17   ar
    30    17    22    1
    31    22    23    1
    32    17    18   ar
    33    18    24    1
    34    24    25    1
    35    18    19   ar
    36     7     1   ar
    37    37    32   ar
    38    19    14   ar
    39    12     3    1
    40     6    13    1
@<TRIPOS>MOLECULE
*****
 37 40 0 0 0
SMALL
GASTEIGER

@<TRIPOS>ATOM
      1 C          50.1515   10.6054  -26.2934 C.ar    1  UNL1        0.0443
      2 C          49.6688   11.6514  -25.5019 C.ar    1  UNL1        0.0010
      3 C          48.4263   12.2412  -25.7605 C.ar    1  UNL1       -0.0017
      4 C          47.6317   11.7452  -26.8229 C.ar    1  UNL1        0.0145
      5 C          48.1598   10.7584  -27.6950 C.ar    1  UNL1        0.1633
      6 O          47.4729   10.3844  -28.8525 O.3     1  UNL1       -0.5031
      7 C          49.4140   10.1613  -27.4064 C.ar    1  UNL1        0.1701
      8 C          46.2296   12.2968  -26.9930 C.3     1  UNL1        0.0299
      9 C          46.2459   13.7064  -27.6025 C.3     1  UNL1        0.0091
     10 C          47.3061   14.6387  -26.9854 C.3     1  UNL1        0.0227
     11 C          47.3975   14.4988  -25.4765 C.2     1  UNL1       -0.0398
     12 C          47.9717   13.3942  -24.9202 C.2     1  UNL1       -0.0076
     13 H          46.6950   10.8986  -29.2420 H       1  UNL1        0.2923
     14 C          48.1151   13.2721  -23.4531 C.ar    1  UNL1        0.0056
     15 C          49.1469   13.9436  -22.7965 C.ar    1  UNL1        0.0402
     16 C          49.3086   13.8142  -21.4064 C.ar    1  UNL1        0.1754
     17 C          48.4221   13.0123  -20.6664 C.ar    1  UNL1        0.2061
     18 C          47.3597   12.3421  -21.3280 C.ar    1  UNL1        0.1754
     19 C          47.2222   12.4843  -22.7215 C.ar    1  UNL1        0.0402
     20 O          50.3449   14.4668  -20.7189 O.3     1  UNL1       -0.4683
     21 C          51.7119   14.0692  -20.7503 C.3     1  UNL1        0.2526
     22 O          48.6562   12.9263  -19.2804 O.3     1  UNL1       -0.4654
     23 C          49.2836   11.8508  -18.5911 C.3     1  UNL1        0.2528
     24 O          46.4632   11.5480  -20.5957 O.3     1  UNL1       -0.4683
     25 C          45.4661   12.0468  -19.7094 C.3     1  UNL1        0.2526
     26 O          49.9858    9.1364  -28.1878 O.3     1  UNL1       -0.4686
     27 C          49.4528    7.8363  -28.4141 C.3     1  UNL1        0.2526
     28 C          51.5034   10.0070  -25.9810 C.3     1  UNL1        0.1718
     29 C          50.8336    8.7414  -24.1577 C.3     1  UNL1        0.1746
     30 O          51.6505    9.8084  -24.5880 O.3     1  UNL1       -0.3462
     31 C          46.8209   15.6178  -24.6264 C.3     1  UNL1        0.0483
     32 C          47.4337   16.9572  -24.9508 C.ar    1  UNL1       -0.0181
     33 C          48.8168   17.0662  -25.1801 C.ar    1  UNL1       -0.0039
     34 C          49.3869   18.3073  -25.4776 C.ar    1  UNL1       -0.0003
     35 C          48.5860   19.4509  -25.5321 C.ar    1  UNL1       -0.0000
     36 C          47.2136   19.3554  -25.2879 C.ar    1  UNL1       -0.0003
     37 C          46.6385   18.1159  -24.9917 C.ar    1  UNL1       -0.0039
@<TRIPOS>BOND
     1    29    30    1
     2    30    28    1
     3    28     1    1
     4     1     2   ar
     5     2     3   ar
     6     3     4   ar
     7     4     5   ar
     8     5     6    1
     9     5     7   ar
    10     7    26    1
    11    26    27    1
    12     4     8    1
    13     8     9    1
    14     9    10    1
    15    10    11    1
    16    11    31    1
    17    31    32    1
    18    32    33   ar
    19    33    34   ar
    20    34    35   ar
    21    35    36   ar
    22    36    37   ar
    23    11    12    2
    24    12    14    1
    25    14    15   ar
    26    15    16   ar
    27    16    20    1
    28    20    21    1
    29    16    17   ar
    30    17    22    1
    31    22    23    1
    32    17    18   ar
    33    18    24    1
    34    24    25    1
    35    18    19   ar
    36     7     1   ar
    37    37    32   ar
    38    19    14   ar
    39    12     3    1
    40     6    13    1
@<TRIPOS>MOLECULE
*****
 37 40 0 0 0
SMALL
GASTEIGER

@<TRIPOS>ATOM
      1 C          50.4876    8.6463  -27.9694 C.ar    1  UNL1        0.0443
      2 C          50.1998    9.4592  -26.8694 C.ar    1  UNL1        0.0010
      3 C          51.0207   10.5422  -26.5349 C.ar    1  UNL1       -0.0017
      4 C          52.1433   10.8371  -27.3465 C.ar    1  UNL1        0.0145
      5 C          52.5019    9.9552  -28.3986 C.ar    1  UNL1        0.1633
      6 O          53.7014   10.1220  -29.0951 O.3     1  UNL1       -0.5031
      7 C          51.6480    8.8724  -28.7324 C.ar    1  UNL1        0.1701
      8 C          52.9324   12.0986  -27.0549 C.3     1  UNL1        0.0299
      9 C          53.8172   11.9379  -25.8099 C.3     1  UNL1        0.0091
     10 C          53.1065   11.2549  -24.6257 C.3     1  UNL1        0.0227
     11 C          51.6791   11.7395  -24.4447 C.2     1  UNL1       -0.0398
     12 C          50.7046   11.3545  -25.3174 C.2     1  UNL1       -0.0076
     13 H          54.4556   10.7219  -28.7910 H       1  UNL1        0.2923
     14 C          49.3007   11.7763  -25.1198 C.ar    1  UNL1        0.0056
     15 C          48.6839   12.6033  -26.0591 C.ar    1  UNL1        0.0402
     16 C          47.3590   13.0317  -25.8688 C.ar    1  UNL1        0.1754
     17 C          46.6425   12.6194  -24.7315 C.ar    1  UNL1        0.2061
     18 C          47.2603   11.7627  -23.7827 C.ar    1  UNL1        0.1754
     19 C          48.5897   11.3517  -23.9941 C.ar    1  UNL1        0.0402
     20 O          46.7151   13.8746  -26.7894 O.3     1  UNL1       -0.4683
     21 C          47.0054   15.2584  -26.9587 C.3     1  UNL1        0.2526
     22 O          45.3241   13.0985  -24.6084 O.3     1  UNL1       -0.4654
     23 C          44.1314   12.3940  -24.9352 C.3     1  UNL1        0.2528
     24 O          46.5491   11.3373  -22.6497 O.3     1  UNL1       -0.4683
     25 C          47.1352   10.9998  -21.3963 C.3     1  UNL1        0.2526
     26 O          51.8999    7.9826  -29.7966 O.3     1  UNL1       -0.4686
     27 C          51.9510    8.3013  -31.1828 C.3     1  UNL1        0.2526
     28 C          49.5769    7.4826  -28.2851 C.3     1  UNL1        0.1718
     29 C          48.1121    8.7963  -29.5113 C.3     1  UNL1        0.1746
     30 O          48.9539    7.6643  -29.5423 O.3     1  UNL1       -0.3462
     31 C          51.3898   12.6660  -23.2763 C.3     1  UNL1        0.0483
     32 C          50.7688   13.9675  -23.7179 C.ar    1  UNL1       -0.0181
     33 C          51.1978   14.5906  -24.9032 C.ar    1  UNL1       -0.0039
     34 C          50.6257   15.7986  -25.3123 C.ar    1  UNL1       -0.0003
     35 C          49.6344   16.4027  -24.5348 C.ar    1  UNL1       -0.0000
     36 C          49.2144   15.8003  -23.3461 C.ar    1  UNL1       -0.0003
     37 C          49.7824   14.5911  -22.9338 C.ar    1  UNL1       -0.0039
@<TRIPOS>BOND
     1    29    30    1
     2    30    28    1
     3    28     1    1
     4     1     2   ar
     5     2     3   ar
     6     3     4   ar
     7     4     5   ar
     8     5     6    1
     9     5     7   ar
    10     7    26    1
    11    26    27    1
    12     4     8    1
    13     8     9    1
    14     9    10    1
    15    10    11    1
    16    11    31    1
    17    31    32    1
    18    32    33   ar
    19    33    34   ar
    20    34    35   ar
    21    35    36   ar
    22    36    37   ar
    23    11    12    2
    24    12    14    1
    25    14    15   ar
    26    15    16   ar
    27    16    20    1
    28    20    21    1
    29    16    17   ar
    30    17    22    1
    31    22    23    1
    32    17    18   ar
    33    18    24    1
    34    24    25    1
    35    18    19   ar
    36     7     1   ar
    37    37    32   ar
    38    19    14   ar
    39    12     3    1
    40     6    13    1
