@<TRIPOS>MOLECULE
*****
 37 39 0 0 0
SMALL
GASTEIGER

@<TRIPOS>ATOM
      1 C         -20.9632  -12.9845  -14.2541 C.ar    1  UNL1        0.0209
      2 C         -21.2311  -14.0259  -15.1565 C.ar    1  UNL1       -0.0007
      3 C         -22.0522  -13.8034  -16.2643 C.ar    1  UNL1       -0.0005
      4 C         -22.6191  -12.5446  -16.4763 C.ar    1  UNL1       -0.0029
      5 C         -22.3692  -11.4961  -15.5779 C.ar    1  UNL1       -0.0063
      6 C         -21.5467  -11.7243  -14.4629 C.ar    1  UNL1       -0.0036
      7 C         -20.0895  -13.2228  -13.0505 C.3     1  UNL1        0.2320
      8 O         -20.8162  -13.0002  -11.8413 O.3     1  UNL1       -0.4706
      9 C         -20.9741   -9.3844   -9.6455 C.ar    1  UNL1       -0.0043
     10 C         -19.7295   -9.9575   -9.9778 C.ar    1  UNL1        0.0002
     11 C         -19.6573  -11.1540  -10.6918 C.ar    1  UNL1        0.0366
     12 C         -20.8310  -11.7992  -11.1133 C.ar    1  UNL1        0.1395
     13 C         -22.0685  -11.2281  -10.8069 C.ar    1  UNL1        0.0424
     14 C         -22.1544  -10.0272  -10.0919 C.ar    1  UNL1        0.0300
     15 I         -24.1090   -9.2552   -9.7750 I       1  UNL1       -0.0427
     16 C         -21.0153   -8.0616   -8.8961 C.3     1  UNL1        0.0977
     17 C         -18.3221   -8.0807   -5.7472 C.3     1  UNL1        0.0900
     18 C         -19.2741   -8.0739   -6.8573 C.1     1  UNL1       -0.0897
     19 C         -20.0576   -8.0686   -7.7737 C.1     1  UNL1       -0.0870
     20 C         -20.7279   -6.8965   -9.8599 C.3     1  UNL1        0.1267
     21 C         -21.6659   -5.7492   -9.6347 C.2     1  UNL1        0.3152
     22 O         -22.4494   -5.3832  -10.5513 O.2     1  UNL1       -0.2502
     23 O         -21.6434   -5.0644   -8.4238 O.3     1  UNL1       -0.4801
     24 H         -22.2600   -4.2776   -8.2606 H       1  UNL1        0.2951
     25 C         -23.0099  -10.1511  -15.7974 C.3     1  UNL1        0.0996
     26 N         -23.3915   -9.5462  -14.5041 N.3     1  UNL1       -0.2579
     27 C         -24.8014   -9.8153  -14.1349 C.3     1  UNL1        0.1001
     28 C         -25.1145  -11.2842  -13.9596 C.ar    1  UNL1        0.0009
     29 C         -24.6530  -12.0489  -12.8749 C.ar    1  UNL1        0.0046
     30 C         -25.0484  -13.3778  -12.9213 C.ar    1  UNL1        0.0352
     31 S         -25.9572  -13.6033  -14.3155 S.2     1  UNL1       -0.0862
     32 C         -25.8620  -12.0220  -14.8739 C.ar    1  UNL1        0.0325
     33 C         -23.0167   -8.1156  -14.3923 C.3     1  UNL1        0.1772
     34 C         -21.6271   -7.9873  -13.7723 C.3     1  UNL1        0.4121
     35 F         -21.3571   -9.0867  -12.9779 F       1  UNL1       -0.1685
     36 F         -21.5535   -6.8406  -13.0025 F       1  UNL1       -0.1685
     37 F         -20.6785   -7.9157  -14.7760 F       1  UNL1       -0.1685
@<TRIPOS>BOND
     1    17    18    1
     2    18    19    3
     3    19    16    1
     4    16    20    1
     5    20    21    1
     6    21    22    2
     7    21    23    1
     8    16     9    1
     9     9    10   ar
    10    10    11   ar
    11    11    12   ar
    12    12     8    1
    13     8     7    1
    14     7     1    1
    15     1     2   ar
    16     2     3   ar
    17     3     4   ar
    18     4     5   ar
    19     5    25    1
    20    25    26    1
    21    26    27    1
    22    27    28    1
    23    28    29   ar
    24    29    30   ar
    25    30    31   ar
    26    31    32   ar
    27    26    33    1
    28    33    34    1
    29    34    35    1
    30    34    36    1
    31    34    37    1
    32     5     6   ar
    33    12    13   ar
    34    13    14   ar
    35    14    15    1
    36    14     9   ar
    37     6     1   ar
    38    32    28   ar
    39    23    24    1
@<TRIPOS>MOLECULE
*****
 37 39 0 0 0
SMALL
GASTEIGER

@<TRIPOS>ATOM
      1 C         -25.6255   -8.8517   -9.5442 C.ar    1  UNL1        0.0209
      2 C         -25.7749  -10.1854   -9.1327 C.ar    1  UNL1       -0.0007
      3 C         -24.6986  -10.8718   -8.5656 C.ar    1  UNL1       -0.0005
      4 C         -23.4638  -10.2373   -8.4122 C.ar    1  UNL1       -0.0029
      5 C         -23.2955   -8.9077   -8.8278 C.ar    1  UNL1       -0.0063
      6 C         -24.3784   -8.2219   -9.4015 C.ar    1  UNL1       -0.0036
      7 C         -26.7789   -8.1113  -10.1688 C.3     1  UNL1        0.2320
      8 O         -27.0273   -8.5806  -11.4947 O.3     1  UNL1       -0.4706
      9 C         -24.3197   -8.4421  -14.7459 C.ar    1  UNL1       -0.0043
     10 C         -24.6334   -7.2657  -14.0348 C.ar    1  UNL1        0.0002
     11 C         -25.5314   -7.2896  -12.9672 C.ar    1  UNL1        0.0366
     12 C         -26.1239   -8.4980  -12.5668 C.ar    1  UNL1        0.1395
     13 C         -25.8033   -9.6723  -13.2521 C.ar    1  UNL1        0.0424
     14 C         -24.9028   -9.6618  -14.3244 C.ar    1  UNL1        0.0300
     15 I         -24.4667  -11.5446  -15.2088 I       1  UNL1       -0.0427
     16 C         -23.3107   -8.3857  -15.8824 C.3     1  UNL1        0.0977
     17 C         -24.6309   -5.8496  -18.8814 C.3     1  UNL1        0.0900
     18 C         -24.1632   -6.7440  -17.8232 C.1     1  UNL1       -0.0897
     19 C         -23.7791   -7.4823  -16.9508 C.1     1  UNL1       -0.0870
     20 C         -21.9357   -7.9446  -15.3497 C.3     1  UNL1        0.1267
     21 C         -20.8185   -8.4835  -16.1915 C.2     1  UNL1        0.3152
     22 O         -20.6669   -9.7279  -16.3202 O.2     1  UNL1       -0.2502
     23 O         -19.9258   -7.6070  -16.8002 O.3     1  UNL1       -0.4801
     24 H         -19.1567   -7.9548  -17.3600 H       1  UNL1        0.2951
     25 C         -21.9521   -8.2420   -8.6874 C.3     1  UNL1        0.0996
     26 N         -21.5418   -7.6362   -9.9714 N.3     1  UNL1       -0.2579
     27 C         -20.3682   -8.3085  -10.5777 C.3     1  UNL1        0.1001
     28 C         -20.6754   -9.6778  -11.1408 C.ar    1  UNL1        0.0009
     29 C         -21.7025   -9.9193  -12.0688 C.ar    1  UNL1        0.0046
     30 C         -21.8162  -11.2511  -12.4405 C.ar    1  UNL1        0.0352
     31 S         -20.6516  -12.1269  -11.6056 S.2     1  UNL1       -0.0862
     32 C         -19.9898  -10.8307  -10.7670 C.ar    1  UNL1        0.0325
     33 C         -21.4065   -6.1607   -9.9073 C.3     1  UNL1        0.1772
     34 C         -21.9304   -5.5323  -11.1968 C.3     1  UNL1        0.4121
     35 F         -22.9102   -4.6000  -10.9079 F       1  UNL1       -0.1685
     36 F         -22.4601   -6.5086  -12.0209 F       1  UNL1       -0.1685
     37 F         -20.8924   -4.9015  -11.8578 F       1  UNL1       -0.1685
@<TRIPOS>BOND
     1    17    18    1
     2    18    19    3
     3    19    16    1
     4    16    20    1
     5    20    21    1
     6    21    22    2
     7    21    23    1
     8    16     9    1
     9     9    10   ar
    10    10    11   ar
    11    11    12   ar
    12    12     8    1
    13     8     7    1
    14     7     1    1
    15     1     2   ar
    16     2     3   ar
    17     3     4   ar
    18     4     5   ar
    19     5    25    1
    20    25    26    1
    21    26    27    1
    22    27    28    1
    23    28    29   ar
    24    29    30   ar
    25    30    31   ar
    26    31    32   ar
    27    26    33    1
    28    33    34    1
    29    34    35    1
    30    34    36    1
    31    34    37    1
    32     5     6   ar
    33    12    13   ar
    34    13    14   ar
    35    14    15    1
    36    14     9   ar
    37     6     1   ar
    38    32    28   ar
    39    23    24    1
@<TRIPOS>MOLECULE
*****
 37 39 0 0 0
SMALL
GASTEIGER

@<TRIPOS>ATOM
      1 C         -25.5731   -8.5815  -10.1385 C.ar    1  UNL1        0.0209
      2 C         -25.9915   -9.7991   -9.5792 C.ar    1  UNL1       -0.0007
      3 C         -25.1270  -10.5331   -8.7638 C.ar    1  UNL1       -0.0005
      4 C         -23.8369  -10.0636   -8.5067 C.ar    1  UNL1       -0.0029
      5 C         -23.4001   -8.8534   -9.0666 C.ar    1  UNL1       -0.0063
      6 C         -24.2703   -8.1201   -9.8894 C.ar    1  UNL1       -0.0036
      7 C         -26.4966   -7.7929  -11.0296 C.3     1  UNL1        0.2320
      8 O         -25.8600   -7.4729  -12.2673 O.3     1  UNL1       -0.4706
      9 C         -23.9209  -10.1914  -14.8694 C.ar    1  UNL1       -0.0043
     10 C         -25.1491  -10.5383  -14.2700 C.ar    1  UNL1        0.0002
     11 C         -25.7979   -9.6598  -13.4015 C.ar    1  UNL1        0.0366
     12 C         -25.2455   -8.3986  -13.1264 C.ar    1  UNL1        0.1395
     13 C         -24.0394   -8.0378  -13.7320 C.ar    1  UNL1        0.0424
     14 C         -23.3790   -8.9098  -14.6062 C.ar    1  UNL1        0.0300
     15 I         -21.5955   -8.1777  -15.5007 I       1  UNL1       -0.0427
     16 C         -23.2584  -11.1592  -15.8376 C.3     1  UNL1        0.0977
     17 C         -24.9842  -14.9165  -15.5663 C.3     1  UNL1        0.0900
     18 C         -24.3768  -13.5896  -15.6617 C.1     1  UNL1       -0.0897
     19 C         -23.8746  -12.4964  -15.7410 C.1     1  UNL1       -0.0870
     20 C         -23.3442  -10.6142  -17.2745 C.3     1  UNL1        0.1267
     21 C         -22.8980  -11.6332  -18.2793 C.2     1  UNL1        0.3152
     22 O         -21.8596  -12.3157  -18.0698 O.2     1  UNL1       -0.2502
     23 O         -23.6122  -11.7978  -19.4619 O.3     1  UNL1       -0.4801
     24 H         -23.3160  -12.4713  -20.1580 H       1  UNL1        0.2951
     25 C         -21.9970   -8.3709   -8.8095 C.3     1  UNL1        0.0996
     26 N         -21.4266   -7.7721  -10.0343 N.3     1  UNL1       -0.2579
     27 C         -20.2209   -8.4855  -10.5178 C.3     1  UNL1        0.1001
     28 C         -20.5060   -9.8739  -11.0449 C.ar    1  UNL1        0.0009
     29 C         -21.5504  -10.1615  -11.9398 C.ar    1  UNL1        0.0046
     30 C         -21.6381  -11.5032  -12.2815 C.ar    1  UNL1        0.0352
     31 S         -20.4288  -12.3306  -11.4609 S.2     1  UNL1       -0.0862
     32 C         -19.7801  -11.0004  -10.6666 C.ar    1  UNL1        0.0325
     33 C         -21.2427   -6.3036   -9.9386 C.3     1  UNL1        0.1772
     34 C         -21.7173   -5.6333  -11.2260 C.3     1  UNL1        0.4121
     35 F         -23.0457   -5.2665  -11.1097 F       1  UNL1       -0.1685
     36 F         -21.5766   -6.5009  -12.2940 F       1  UNL1       -0.1685
     37 F         -20.9590   -4.5017  -11.4641 F       1  UNL1       -0.1685
@<TRIPOS>BOND
     1    17    18    1
     2    18    19    3
     3    19    16    1
     4    16    20    1
     5    20    21    1
     6    21    22    2
     7    21    23    1
     8    16     9    1
     9     9    10   ar
    10    10    11   ar
    11    11    12   ar
    12    12     8    1
    13     8     7    1
    14     7     1    1
    15     1     2   ar
    16     2     3   ar
    17     3     4   ar
    18     4     5   ar
    19     5    25    1
    20    25    26    1
    21    26    27    1
    22    27    28    1
    23    28    29   ar
    24    29    30   ar
    25    30    31   ar
    26    31    32   ar
    27    26    33    1
    28    33    34    1
    29    34    35    1
    30    34    36    1
    31    34    37    1
    32     5     6   ar
    33    12    13   ar
    34    13    14   ar
    35    14    15    1
    36    14     9   ar
    37     6     1   ar
    38    32    28   ar
    39    23    24    1
@<TRIPOS>MOLECULE
*****
 37 39 0 0 0
SMALL
GASTEIGER

@<TRIPOS>ATOM
      1 C         -22.8329   -8.8805  -15.2015 C.ar    1  UNL1        0.0209
      2 C         -21.5637   -8.7375  -15.7840 C.ar    1  UNL1       -0.0007
      3 C         -21.0281   -9.7640  -16.5653 C.ar    1  UNL1       -0.0005
      4 C         -21.7493  -10.9434  -16.7649 C.ar    1  UNL1       -0.0029
      5 C         -23.0149  -11.1059  -16.1812 C.ar    1  UNL1       -0.0063
      6 C         -23.5485  -10.0736  -15.3927 C.ar    1  UNL1       -0.0036
      7 C         -23.4092   -7.7822  -14.3469 C.3     1  UNL1        0.2320
      8 O         -22.3814   -7.1156  -13.6127 O.3     1  UNL1       -0.4706
      9 C         -20.7229   -8.5650   -9.9975 C.ar    1  UNL1       -0.0043
     10 C         -19.8830   -8.0462  -11.0042 C.ar    1  UNL1        0.0002
     11 C         -20.4102   -7.5735  -12.2065 C.ar    1  UNL1        0.0366
     12 C         -21.7970   -7.5863  -12.4255 C.ar    1  UNL1        0.1395
     13 C         -22.6388   -8.0793  -11.4256 C.ar    1  UNL1        0.0424
     14 C         -22.1224   -8.5553  -10.2142 C.ar    1  UNL1        0.0300
     15 I         -23.5432   -9.1994   -8.7708 I       1  UNL1       -0.0427
     16 C         -20.1174   -9.0399   -8.6857 C.3     1  UNL1        0.0977
     17 C         -17.0948  -11.7887   -9.3766 C.3     1  UNL1        0.0900
     18 C         -18.1610  -10.8175   -9.1342 C.1     1  UNL1       -0.0897
     19 C         -19.0403  -10.0176   -8.9328 C.1     1  UNL1       -0.0870
     20 C         -19.5978   -7.8388   -7.8756 C.3     1  UNL1        0.1267
     21 C         -19.3704   -8.1989   -6.4384 C.2     1  UNL1        0.3152
     22 O         -18.1976   -8.2820   -5.9849 O.2     1  UNL1       -0.2502
     23 O         -20.4564   -8.4784   -5.6148 O.3     1  UNL1       -0.4801
     24 H         -20.3197   -8.7378   -4.6453 H       1  UNL1        0.2951
     25 C         -23.7714  -12.3932  -16.3759 C.3     1  UNL1        0.0996
     26 N         -23.7874  -13.1750  -15.1219 N.3     1  UNL1       -0.2579
     27 C         -22.4752  -13.7881  -14.8073 C.3     1  UNL1        0.1001
     28 C         -21.7842  -13.1672  -13.6141 C.ar    1  UNL1        0.0009
     29 C         -22.2801  -12.0432  -12.9322 C.ar    1  UNL1        0.0046
     30 C         -21.4793  -11.6339  -11.8759 C.ar    1  UNL1        0.0352
     31 S         -20.1511  -12.6589  -11.8006 S.2     1  UNL1       -0.0862
     32 C         -20.5760  -13.6325  -13.1016 C.ar    1  UNL1        0.0325
     33 C         -24.9182  -14.1312  -15.0411 C.3     1  UNL1        0.1772
     34 C         -25.7947  -13.8019  -13.8347 C.3     1  UNL1        0.4121
     35 F         -25.5088  -14.6616  -12.7899 F       1  UNL1       -0.1685
     36 F         -27.1311  -13.9224  -14.1704 F       1  UNL1       -0.1685
     37 F         -25.5498  -12.5035  -13.4267 F       1  UNL1       -0.1685
@<TRIPOS>BOND
     1    17    18    1
     2    18    19    3
     3    19    16    1
     4    16    20    1
     5    20    21    1
     6    21    22    2
     7    21    23    1
     8    16     9    1
     9     9    10   ar
    10    10    11   ar
    11    11    12   ar
    12    12     8    1
    13     8     7    1
    14     7     1    1
    15     1     2   ar
    16     2     3   ar
    17     3     4   ar
    18     4     5   ar
    19     5    25    1
    20    25    26    1
    21    26    27    1
    22    27    28    1
    23    28    29   ar
    24    29    30   ar
    25    30    31   ar
    26    31    32   ar
    27    26    33    1
    28    33    34    1
    29    34    35    1
    30    34    36    1
    31    34    37    1
    32     5     6   ar
    33    12    13   ar
    34    13    14   ar
    35    14    15    1
    36    14     9   ar
    37     6     1   ar
    38    32    28   ar
    39    23    24    1
@<TRIPOS>MOLECULE
*****
 37 39 0 0 0
SMALL
GASTEIGER

@<TRIPOS>ATOM
      1 C         -21.6568   -9.3000  -16.5763 C.ar    1  UNL1        0.0209
      2 C         -22.8896   -9.0369  -17.1939 C.ar    1  UNL1       -0.0007
      3 C         -23.7268  -10.0896  -17.5708 C.ar    1  UNL1       -0.0005
      4 C         -23.3382  -11.4116  -17.3429 C.ar    1  UNL1       -0.0029
      5 C         -22.1045  -11.6915  -16.7358 C.ar    1  UNL1       -0.0063
      6 C         -21.2633  -10.6309  -16.3620 C.ar    1  UNL1       -0.0036
      7 C         -20.7442   -8.1690  -16.1803 C.3     1  UNL1        0.2320
      8 O         -20.5122   -8.1712  -14.7710 O.3     1  UNL1       -0.4706
      9 C         -23.4674   -7.9135  -11.7509 C.ar    1  UNL1       -0.0043
     10 C         -23.5872   -8.8707  -12.7792 C.ar    1  UNL1        0.0002
     11 C         -22.6288   -8.9638  -13.7890 C.ar    1  UNL1        0.0366
     12 C         -21.5104   -8.1149  -13.7847 C.ar    1  UNL1        0.1395
     13 C         -21.3725   -7.1773  -12.7584 C.ar    1  UNL1        0.0424
     14 C         -22.3266   -7.0746  -11.7386 C.ar    1  UNL1        0.0300
     15 I         -21.9280   -5.6491  -10.2135 I       1  UNL1       -0.0427
     16 C         -24.5126   -7.8627  -10.6473 C.3     1  UNL1        0.0977
     17 C         -28.3304   -7.7574  -12.2544 C.3     1  UNL1        0.0900
     18 C         -26.9833   -7.7930  -11.6861 C.1     1  UNL1       -0.0897
     19 C         -25.8724   -7.8236  -11.2188 C.1     1  UNL1       -0.0870
     20 C         -24.3452   -9.0659   -9.7022 C.3     1  UNL1        0.1267
     21 C         -23.2601   -8.8303   -8.6952 C.2     1  UNL1        0.3152
     22 O         -22.1071   -9.3019   -8.8856 O.2     1  UNL1       -0.2502
     23 O         -23.5385   -8.1215   -7.5308 O.3     1  UNL1       -0.4801
     24 H         -22.8208   -7.9662   -6.8332 H       1  UNL1        0.2951
     25 C         -21.6800  -13.1204  -16.5228 C.3     1  UNL1        0.0996
     26 N         -22.0309  -13.5629  -15.1570 N.3     1  UNL1       -0.2579
     27 C         -20.8419  -13.8479  -14.3194 C.3     1  UNL1        0.1001
     28 C         -20.7788  -13.0245  -13.0527 C.ar    1  UNL1        0.0009
     29 C         -21.6062  -11.9152  -12.8098 C.ar    1  UNL1        0.0046
     30 C         -21.3689  -11.2992  -11.5896 C.ar    1  UNL1        0.0352
     31 S         -20.1233  -12.1241  -10.8223 S.2     1  UNL1       -0.0862
     32 C         -19.8727  -13.2703  -12.0242 C.ar    1  UNL1        0.0325
     33 C         -23.0411  -14.6484  -15.1334 C.3     1  UNL1        0.1772
     34 C         -24.4134  -14.0766  -14.7843 C.3     1  UNL1        0.4121
     35 F         -24.9544  -14.7598  -13.7104 F       1  UNL1       -0.1685
     36 F         -25.2646  -14.1862  -15.8689 F       1  UNL1       -0.1685
     37 F         -24.2851  -12.7415  -14.4475 F       1  UNL1       -0.1685
@<TRIPOS>BOND
     1    17    18    1
     2    18    19    3
     3    19    16    1
     4    16    20    1
     5    20    21    1
     6    21    22    2
     7    21    23    1
     8    16     9    1
     9     9    10   ar
    10    10    11   ar
    11    11    12   ar
    12    12     8    1
    13     8     7    1
    14     7     1    1
    15     1     2   ar
    16     2     3   ar
    17     3     4   ar
    18     4     5   ar
    19     5    25    1
    20    25    26    1
    21    26    27    1
    22    27    28    1
    23    28    29   ar
    24    29    30   ar
    25    30    31   ar
    26    31    32   ar
    27    26    33    1
    28    33    34    1
    29    34    35    1
    30    34    36    1
    31    34    37    1
    32     5     6   ar
    33    12    13   ar
    34    13    14   ar
    35    14    15    1
    36    14     9   ar
    37     6     1   ar
    38    32    28   ar
    39    23    24    1
@<TRIPOS>MOLECULE
*****
 37 39 0 0 0
SMALL
GASTEIGER

@<TRIPOS>ATOM
      1 C         -21.6472   -9.7098  -16.6565 C.ar    1  UNL1        0.0209
      2 C         -22.7939   -9.4130  -17.4098 C.ar    1  UNL1       -0.0007
      3 C         -23.6472  -10.4375  -17.8262 C.ar    1  UNL1       -0.0005
      4 C         -23.3598  -11.7654  -17.5024 C.ar    1  UNL1       -0.0029
      5 C         -22.2121  -12.0795  -16.7587 C.ar    1  UNL1       -0.0063
      6 C         -21.3541  -11.0475  -16.3454 C.ar    1  UNL1       -0.0036
      7 C         -20.7165   -8.6102  -16.2168 C.3     1  UNL1        0.2320
      8 O         -21.4423   -7.5420  -15.6068 O.3     1  UNL1       -0.4706
      9 C         -22.6501   -7.3395  -11.5545 C.ar    1  UNL1       -0.0043
     10 C         -21.2963   -7.5612  -11.8798 C.ar    1  UNL1        0.0002
     11 C         -20.8808   -7.6414  -13.2094 C.ar    1  UNL1        0.0366
     12 C         -21.8071   -7.4791  -14.2520 C.ar    1  UNL1        0.1395
     13 C         -23.1472   -7.2384  -13.9396 C.ar    1  UNL1        0.0424
     14 C         -23.5766   -7.1545  -12.6094 C.ar    1  UNL1        0.0300
     15 I         -25.6326   -6.7081  -12.3079 I       1  UNL1       -0.0427
     16 C         -23.0622   -7.2235  -10.0952 C.3     1  UNL1        0.0977
     17 C         -24.7397  -10.7690   -8.7591 C.3     1  UNL1        0.0900
     18 C         -24.1463   -9.5186   -9.2316 C.1     1  UNL1       -0.0897
     19 C         -23.6582   -8.4869   -9.6200 C.1     1  UNL1       -0.0870
     20 C         -21.8517   -6.8250   -9.2321 C.3     1  UNL1        0.1267
     21 C         -21.6892   -5.3365   -9.1625 C.2     1  UNL1        0.3152
     22 O         -21.0877   -4.7219  -10.0836 O.2     1  UNL1       -0.2502
     23 O         -22.1711   -4.6386   -8.0596 O.3     1  UNL1       -0.4801
     24 H         -22.0565   -3.6346   -7.9896 H       1  UNL1        0.2951
     25 C         -21.8937  -13.5167  -16.4413 C.3     1  UNL1        0.0996
     26 N         -22.3533  -13.8562  -15.0784 N.3     1  UNL1       -0.2579
     27 C         -21.2431  -13.9461  -14.1007 C.3     1  UNL1        0.1001
     28 C         -21.2735  -12.8642  -13.0447 C.ar    1  UNL1        0.0009
     29 C         -22.2398  -11.8446  -13.0103 C.ar    1  UNL1        0.0046
     30 C         -22.0702  -10.9511  -11.9627 C.ar    1  UNL1        0.0352
     31 S         -20.7136  -11.4205  -11.0911 S.2     1  UNL1       -0.0862
     32 C         -20.3277  -12.7600  -12.0281 C.ar    1  UNL1        0.0325
     33 C         -23.2662  -15.0245  -15.0413 C.3     1  UNL1        0.1772
     34 C         -24.7114  -14.5530  -14.8969 C.3     1  UNL1        0.4121
     35 F         -25.2000  -14.8916  -13.6482 F       1  UNL1       -0.1685
     36 F         -25.5023  -15.1382  -15.8690 F       1  UNL1       -0.1685
     37 F         -24.7654  -13.1787  -15.0418 F       1  UNL1       -0.1685
@<TRIPOS>BOND
     1    17    18    1
     2    18    19    3
     3    19    16    1
     4    16    20    1
     5    20    21    1
     6    21    22    2
     7    21    23    1
     8    16     9    1
     9     9    10   ar
    10    10    11   ar
    11    11    12   ar
    12    12     8    1
    13     8     7    1
    14     7     1    1
    15     1     2   ar
    16     2     3   ar
    17     3     4   ar
    18     4     5   ar
    19     5    25    1
    20    25    26    1
    21    26    27    1
    22    27    28    1
    23    28    29   ar
    24    29    30   ar
    25    30    31   ar
    26    31    32   ar
    27    26    33    1
    28    33    34    1
    29    34    35    1
    30    34    36    1
    31    34    37    1
    32     5     6   ar
    33    12    13   ar
    34    13    14   ar
    35    14    15    1
    36    14     9   ar
    37     6     1   ar
    38    32    28   ar
    39    23    24    1
@<TRIPOS>MOLECULE
*****
 37 39 0 0 0
SMALL
GASTEIGER

@<TRIPOS>ATOM
      1 C         -22.0413   -9.5811  -16.0962 C.ar    1  UNL1        0.0209
      2 C         -21.3122  -10.6676  -16.6047 C.ar    1  UNL1       -0.0007
      3 C         -21.8881  -11.9390  -16.6571 C.ar    1  UNL1       -0.0005
      4 C         -23.1912  -12.1388  -16.1956 C.ar    1  UNL1       -0.0029
      5 C         -23.9296  -11.0651  -15.6751 C.ar    1  UNL1       -0.0063
      6 C         -23.3460   -9.7890  -15.6199 C.ar    1  UNL1       -0.0036
      7 C         -21.4201   -8.2108  -16.0248 C.3     1  UNL1        0.2320
      8 O         -20.5907   -8.0871  -14.8687 O.3     1  UNL1       -0.4706
      9 C         -21.9495   -8.1874  -10.8606 C.ar    1  UNL1       -0.0043
     10 C         -21.6341   -9.3866  -11.5318 C.ar    1  UNL1        0.0002
     11 C         -21.1947   -9.3744  -12.8561 C.ar    1  UNL1        0.0366
     12 C         -21.0372   -8.1577  -13.5390 C.ar    1  UNL1        0.1395
     13 C         -21.3274   -6.9631  -12.8755 C.ar    1  UNL1        0.0424
     14 C         -21.7678   -6.9618  -11.5463 C.ar    1  UNL1        0.0300
     15 I         -22.0922   -5.0567  -10.6616 I       1  UNL1       -0.0427
     16 C         -22.3927   -8.2353   -9.4066 C.3     1  UNL1        0.0977
     17 C         -26.0454  -10.1597   -9.0556 C.3     1  UNL1        0.0900
     18 C         -24.7568   -9.4792   -9.1782 C.1     1  UNL1       -0.0897
     19 C         -23.6941   -8.9192   -9.2807 C.1     1  UNL1       -0.0870
     20 C         -21.3197   -8.9276   -8.5473 C.3     1  UNL1        0.1267
     21 C         -20.0947   -8.0760   -8.4016 C.2     1  UNL1        0.3152
     22 O         -20.1267   -7.0388   -7.6866 O.2     1  UNL1       -0.2502
     23 O         -18.9323   -8.4125   -9.0880 O.3     1  UNL1       -0.4801
     24 H         -18.1003   -7.8397   -9.0125 H       1  UNL1        0.2951
     25 C         -25.3222  -11.2963  -15.1509 C.3     1  UNL1        0.0996
     26 N         -25.3012  -11.4366  -13.6799 N.3     1  UNL1       -0.2579
     27 C         -24.6723  -10.2802  -12.9988 C.3     1  UNL1        0.1001
     28 C         -25.4711   -9.0011  -13.1098 C.ar    1  UNL1        0.0009
     29 C         -26.8746   -8.9688  -13.1679 C.ar    1  UNL1        0.0046
     30 C         -27.3986   -7.6892  -13.2817 C.ar    1  UNL1        0.0352
     31 S         -26.1182   -6.6032  -13.3245 S.2     1  UNL1       -0.0862
     32 C         -24.8880   -7.7396  -13.1972 C.ar    1  UNL1        0.0325
     33 C         -24.7752  -12.7459  -13.2230 C.3     1  UNL1        0.1772
     34 C         -25.7759  -13.8525  -13.5483 C.3     1  UNL1        0.4121
     35 F         -26.9394  -13.3067  -14.0593 F       1  UNL1       -0.1685
     36 F         -26.0749  -14.5743  -12.4070 F       1  UNL1       -0.1685
     37 F         -25.2304  -14.7064  -14.4894 F       1  UNL1       -0.1685
@<TRIPOS>BOND
     1    17    18    1
     2    18    19    3
     3    19    16    1
     4    16    20    1
     5    20    21    1
     6    21    22    2
     7    21    23    1
     8    16     9    1
     9     9    10   ar
    10    10    11   ar
    11    11    12   ar
    12    12     8    1
    13     8     7    1
    14     7     1    1
    15     1     2   ar
    16     2     3   ar
    17     3     4   ar
    18     4     5   ar
    19     5    25    1
    20    25    26    1
    21    26    27    1
    22    27    28    1
    23    28    29   ar
    24    29    30   ar
    25    30    31   ar
    26    31    32   ar
    27    26    33    1
    28    33    34    1
    29    34    35    1
    30    34    36    1
    31    34    37    1
    32     5     6   ar
    33    12    13   ar
    34    13    14   ar
    35    14    15    1
    36    14     9   ar
    37     6     1   ar
    38    32    28   ar
    39    23    24    1
@<TRIPOS>MOLECULE
*****
 37 39 0 0 0
SMALL
GASTEIGER

@<TRIPOS>ATOM
      1 C         -22.1262  -12.3982  -14.0635 C.ar    1  UNL1        0.0209
      2 C         -23.2968  -13.1725  -14.0397 C.ar    1  UNL1       -0.0007
      3 C         -24.4752  -12.6846  -14.6092 C.ar    1  UNL1       -0.0005
      4 C         -24.4980  -11.4186  -15.1988 C.ar    1  UNL1       -0.0029
      5 C         -23.3388  -10.6281  -15.2217 C.ar    1  UNL1       -0.0063
      6 C         -22.1569  -11.1200  -14.6444 C.ar    1  UNL1       -0.0036
      7 C         -20.8564  -12.9141  -13.4388 C.3     1  UNL1        0.2320
      8 O         -20.9451  -12.8935  -12.0135 O.3     1  UNL1       -0.4706
      9 C         -20.9719   -9.4162   -9.5993 C.ar    1  UNL1       -0.0043
     10 C         -19.7502   -9.9523  -10.0555 C.ar    1  UNL1        0.0002
     11 C         -19.7206  -11.1035  -10.8433 C.ar    1  UNL1        0.0366
     12 C         -20.9165  -11.7380  -11.2157 C.ar    1  UNL1        0.1395
     13 C         -22.1329  -11.2022  -10.7858 C.ar    1  UNL1        0.0424
     14 C         -22.1762  -10.0468   -9.9959 C.ar    1  UNL1        0.0300
     15 I         -24.1088   -9.3206   -9.4911 I       1  UNL1       -0.0427
     16 C         -20.9691   -8.1407   -8.7710 C.3     1  UNL1        0.0977
     17 C         -18.2740   -8.4414   -5.6381 C.3     1  UNL1        0.0900
     18 C         -19.2249   -8.3334   -6.7439 C.1     1  UNL1       -0.0897
     19 C         -20.0093   -8.2460   -7.6553 C.1     1  UNL1       -0.0870
     20 C         -20.6472   -6.9289   -9.6638 C.3     1  UNL1        0.1267
     21 C         -21.6480   -5.8278   -9.4822 C.2     1  UNL1        0.3152
     22 O         -21.6974   -5.1905   -8.3961 O.2     1  UNL1       -0.2502
     23 O         -22.5481   -5.5356  -10.5020 O.3     1  UNL1       -0.4801
     24 H         -23.2404   -4.8048  -10.3901 H       1  UNL1        0.2951
     25 C         -23.3810   -9.2519  -15.8315 C.3     1  UNL1        0.0996
     26 N         -23.3809   -8.2204  -14.7732 N.3     1  UNL1       -0.2579
     27 C         -24.4834   -7.2411  -14.9218 C.3     1  UNL1        0.1001
     28 C         -25.4083   -7.1806  -13.7270 C.ar    1  UNL1        0.0009
     29 C         -25.6034   -6.0207  -12.9584 C.ar    1  UNL1        0.0046
     30 C         -26.4846   -6.1942  -11.9011 C.ar    1  UNL1        0.0352
     31 S         -27.0078   -7.7900  -11.9146 S.2     1  UNL1       -0.0862
     32 C         -26.1271   -8.2776  -13.2591 C.ar    1  UNL1        0.0325
     33 C         -22.0549   -7.5875  -14.5710 C.3     1  UNL1        0.1772
     34 C         -21.6091   -7.7622  -13.1209 C.3     1  UNL1        0.4121
     35 F         -22.7112   -7.8106  -12.2868 F       1  UNL1       -0.1685
     36 F         -20.7978   -6.7079  -12.7422 F       1  UNL1       -0.1685
     37 F         -20.8995   -8.9424  -12.9950 F       1  UNL1       -0.1685
@<TRIPOS>BOND
     1    17    18    1
     2    18    19    3
     3    19    16    1
     4    16    20    1
     5    20    21    1
     6    21    22    2
     7    21    23    1
     8    16     9    1
     9     9    10   ar
    10    10    11   ar
    11    11    12   ar
    12    12     8    1
    13     8     7    1
    14     7     1    1
    15     1     2   ar
    16     2     3   ar
    17     3     4   ar
    18     4     5   ar
    19     5    25    1
    20    25    26    1
    21    26    27    1
    22    27    28    1
    23    28    29   ar
    24    29    30   ar
    25    30    31   ar
    26    31    32   ar
    27    26    33    1
    28    33    34    1
    29    34    35    1
    30    34    36    1
    31    34    37    1
    32     5     6   ar
    33    12    13   ar
    34    13    14   ar
    35    14    15    1
    36    14     9   ar
    37     6     1   ar
    38    32    28   ar
    39    23    24    1
@<TRIPOS>MOLECULE
*****
 37 39 0 0 0
SMALL
GASTEIGER

@<TRIPOS>ATOM
      1 C         -22.1669  -12.3379  -14.4255 C.ar    1  UNL1        0.0209
      2 C         -23.4395  -12.8963  -14.2271 C.ar    1  UNL1       -0.0007
      3 C         -24.5411  -12.4056  -14.9318 C.ar    1  UNL1       -0.0005
      4 C         -24.3845  -11.3497  -15.8327 C.ar    1  UNL1       -0.0029
      5 C         -23.1209  -10.7740  -16.0346 C.ar    1  UNL1       -0.0063
      6 C         -22.0162  -11.2669  -15.3213 C.ar    1  UNL1       -0.0036
      7 C         -20.9782  -12.8542  -13.6580 C.3     1  UNL1        0.2320
      8 O         -21.2196  -12.8050  -12.2512 O.3     1  UNL1       -0.4706
      9 C         -21.2080   -9.3084   -9.8650 C.ar    1  UNL1       -0.0043
     10 C         -19.9908   -9.8933  -10.2703 C.ar    1  UNL1        0.0002
     11 C         -19.9744  -11.0516  -11.0481 C.ar    1  UNL1        0.0366
     12 C         -21.1782  -11.6445  -11.4613 C.ar    1  UNL1        0.1395
     13 C         -22.3891  -11.0603  -11.0821 C.ar    1  UNL1        0.0424
     14 C         -22.4192   -9.8974  -10.3028 C.ar    1  UNL1        0.0300
     15 I         -24.3410   -9.0957   -9.8775 I       1  UNL1       -0.0427
     16 C         -21.1890   -8.0268   -9.0464 C.3     1  UNL1        0.0977
     17 C         -18.5112   -8.3421   -5.9001 C.3     1  UNL1        0.0900
     18 C         -19.4551   -8.2296   -7.0115 C.1     1  UNL1       -0.0897
     19 C         -20.2345   -8.1377   -7.9268 C.1     1  UNL1       -0.0870
     20 C         -20.8463   -6.8268   -9.9473 C.3     1  UNL1        0.1267
     21 C         -21.7510   -5.6612   -9.6824 C.2     1  UNL1        0.3152
     22 O         -22.5537   -5.2687  -10.5710 O.2     1  UNL1       -0.2502
     23 O         -21.6760   -4.9894   -8.4664 O.3     1  UNL1       -0.4801
     24 H         -22.2694   -4.1908   -8.2769 H       1  UNL1        0.2951
     25 C         -22.9673   -9.6154  -16.9842 C.3     1  UNL1        0.0996
     26 N         -23.1767   -8.3368  -16.2735 N.3     1  UNL1       -0.2579
     27 C         -22.8283   -7.1549  -17.0971 C.3     1  UNL1        0.1001
     28 C         -23.9209   -6.7382  -18.0558 C.ar    1  UNL1        0.0009
     29 C         -24.2943   -7.4958  -19.1788 C.ar    1  UNL1        0.0046
     30 C         -25.3100   -6.9193  -19.9275 C.ar    1  UNL1        0.0352
     31 S         -25.7314   -5.4644  -19.2021 S.2     1  UNL1       -0.0862
     32 C         -24.6354   -5.5494  -17.9322 C.ar    1  UNL1        0.0325
     33 C         -22.5690   -8.3111  -14.9208 C.3     1  UNL1        0.1772
     34 C         -23.6369   -7.9980  -13.8750 C.3     1  UNL1        0.4121
     35 F         -23.0774   -7.3063  -12.8161 F       1  UNL1       -0.1685
     36 F         -24.2013   -9.1701  -13.4055 F       1  UNL1       -0.1685
     37 F         -24.6275   -7.2197  -14.4453 F       1  UNL1       -0.1685
@<TRIPOS>BOND
     1    17    18    1
     2    18    19    3
     3    19    16    1
     4    16    20    1
     5    20    21    1
     6    21    22    2
     7    21    23    1
     8    16     9    1
     9     9    10   ar
    10    10    11   ar
    11    11    12   ar
    12    12     8    1
    13     8     7    1
    14     7     1    1
    15     1     2   ar
    16     2     3   ar
    17     3     4   ar
    18     4     5   ar
    19     5    25    1
    20    25    26    1
    21    26    27    1
    22    27    28    1
    23    28    29   ar
    24    29    30   ar
    25    30    31   ar
    26    31    32   ar
    27    26    33    1
    28    33    34    1
    29    34    35    1
    30    34    36    1
    31    34    37    1
    32     5     6   ar
    33    12    13   ar
    34    13    14   ar
    35    14    15    1
    36    14     9   ar
    37     6     1   ar
    38    32    28   ar
    39    23    24    1
