@<TRIPOS>MOLECULE
*****
 47 52 0 0 0
SMALL
GASTEIGER

@<TRIPOS>ATOM
      1 C          60.5860   89.7482    9.4747 C.ar    1  UNL1        0.0702
      2 C          59.7991   90.3772   10.4516 C.ar    1  UNL1        0.0191
      3 C          59.6360   89.7871   11.7060 C.ar    1  UNL1        0.0356
      4 C          60.2420   88.5494   11.9742 C.ar    1  UNL1        0.1318
      5 N          60.9942   87.9547   11.0066 N.ar    1  UNL1       -0.2279
      6 C          61.1669   88.5111    9.7787 C.ar    1  UNL1        0.1149
      7 N          60.1147   87.9204   13.2633 N.pl3   1  UNL1       -0.2932
      8 C          60.0085   88.7117   14.4973 C.3     1  UNL1        0.0923
      9 C          60.9947   88.2002   15.5613 C.3     1  UNL1        0.0252
     10 C          61.2483   86.6705   15.4840 C.3     1  UNL1        0.0472
     11 C          60.0937   85.9409   14.7696 C.3     1  UNL1        0.0252
     12 C          59.9515   86.4605   13.3309 C.3     1  UNL1        0.0923
     13 C          61.4914   86.0851   16.8886 C.3     1  UNL1        0.2055
     14 O          62.4630   85.0380   16.8523 O.3     1  UNL1       -0.4742
     15 C          63.4657   84.8764   15.8793 C.ar    1  UNL1        0.1515
     16 C          64.5184   85.7997   15.7361 C.ar    1  UNL1        0.0382
     17 C          65.5093   85.5975   14.7791 C.ar    1  UNL1        0.0034
     18 C          65.4574   84.4882   13.9389 C.ar    1  UNL1        0.0079
     19 C          64.4090   83.5592   14.0422 C.ar    1  UNL1        0.0913
     20 C          63.4182   83.7403   15.0423 C.ar    1  UNL1        0.0822
     21 N          62.3932   82.7573   15.2567 N.pl3   1  UNL1       -0.3545
     22 H          62.5011   81.7734   14.9282 H       1  UNL1        0.1424
     23 H          61.5648   82.9621   15.8580 H       1  UNL1        0.1424
     24 C          64.3536   82.4492   13.0637 C.2     1  UNL1        0.3393
     25 O          63.6085   81.4551   13.2787 O.2     1  UNL1       -0.2450
     26 O          65.1618   82.4631   11.9303 O.3     1  UNL1       -0.4771
     27 H          65.1410   81.6978   11.2670 H       1  UNL1        0.2954
     28 C          59.8764   90.0542    7.0548 C.2     1  UNL1        0.2839
     29 O          58.9190   89.2439    7.1734 O.2     1  UNL1       -0.2665
     30 N          60.7584   90.3083    8.1625 N.am    1  UNL1       -0.2766
     31 H          61.5447   90.9818    8.0345 H       1  UNL1        0.1553
     32 C          57.6222   91.3229    5.1067 C.3     1  UNL1        0.0345
     33 C          59.1081   91.2776    4.9171 C.ar    1  UNL1        0.0202
     34 C          60.0795   90.7108    5.7518 C.ar    1  UNL1        0.1946
     35 O          61.2732   90.8215    5.1955 O.2     1  UNL1       -0.4492
     36 C          61.1294   91.4521    4.0555 C.ar    1  UNL1        0.1452
     37 C          62.1243   91.7914    3.1452 C.ar    1  UNL1        0.0375
     38 C          61.7438   92.4728    1.9756 C.ar    1  UNL1        0.0031
     39 C          60.3823   92.8021    1.7340 C.ar    1  UNL1        0.0002
     40 C          59.4010   92.4360    2.6863 C.ar    1  UNL1        0.0028
     41 C          59.8153   91.7628    3.8357 C.ar    1  UNL1        0.0337
     42 C          59.9920   93.5219    0.4952 C.ar    1  UNL1        0.0000
     43 C          58.6438   93.5749    0.0927 C.ar    1  UNL1        0.0000
     44 C          58.2793   94.2526   -1.0748 C.ar    1  UNL1        0.0000
     45 C          59.2529   94.8841   -1.8517 C.ar    1  UNL1        0.0000
     46 C          60.5936   94.8390   -1.4632 C.ar    1  UNL1        0.0000
     47 C          60.9640   94.1620   -0.2972 C.ar    1  UNL1        0.0000
@<TRIPOS>BOND
     1    32    33    1
     2    33    34   ar
     3    34    28    1
     4    28    29    2
     5    28    30   am
     6    30     1    1
     7     1     2   ar
     8     2     3   ar
     9     3     4   ar
    10     4     7    1
    11     7     8    1
    12     8     9    1
    13     9    10    1
    14    10    13    1
    15    13    14    1
    16    14    15    1
    17    15    16   ar
    18    16    17   ar
    19    17    18   ar
    20    18    19   ar
    21    19    24    1
    22    24    25    2
    23    24    26    1
    24    19    20   ar
    25    20    21    1
    26    10    11    1
    27    11    12    1
    28     4     5   ar
    29     5     6   ar
    30    34    35   ar
    31    35    36   ar
    32    36    37   ar
    33    37    38   ar
    34    38    39   ar
    35    39    42    1
    36    42    43   ar
    37    43    44   ar
    38    44    45   ar
    39    45    46   ar
    40    46    47   ar
    41    39    40   ar
    42    40    41   ar
    43    41    33   ar
    44     6     1   ar
    45    41    36   ar
    46    12     7    1
    47    47    42   ar
    48    20    15   ar
    49    30    31    1
    50    26    27    1
    51    21    22    1
    52    21    23    1
