@<TRIPOS>MOLECULE
*****
 50 55 0 0 0
SMALL
GASTEIGER

@<TRIPOS>ATOM
      1 O         -60.7686  -47.7879  -24.4081 O.2     1  UNL1       -0.2700
      2 C         -61.9092  -47.2564  -24.3266 C.2     1  UNL1        0.2488
      3 N         -63.0640  -47.9394  -24.8419 N.am    1  UNL1       -0.2945
      4 H         -63.9844  -47.4432  -24.8265 H       1  UNL1        0.1501
      5 C         -62.0511  -45.9312  -23.6876 C.ar    1  UNL1        0.0862
      6 C         -62.6276  -44.8709  -24.4103 C.ar    1  UNL1        0.1461
      7 F         -63.0861  -45.0615  -25.6740 F       1  UNL1       -0.2040
      8 C         -62.7773  -43.6123  -23.8236 C.ar    1  UNL1        0.0443
      9 C         -62.3555  -43.3813  -22.5043 C.ar    1  UNL1        0.0506
     10 C         -61.7844  -44.4411  -21.7811 C.ar    1  UNL1        0.0206
     11 C         -61.6295  -45.7064  -22.3587 C.ar    1  UNL1        0.0378
     12 I         -60.6793  -47.1948  -21.1777 I       1  UNL1       -0.0423
     13 N         -62.5146  -42.0796  -21.8968 N.pl3   1  UNL1       -0.3040
     14 C         -61.8150  -41.7555  -20.6454 C.3     1  UNL1        0.1123
     15 C         -62.6381  -40.7767  -19.8007 C.3     1  UNL1        0.1136
     16 N         -63.0964  -39.6208  -20.5898 N.pl3   1  UNL1       -0.2897
     17 C         -62.9654  -39.6411  -22.0538 C.3     1  UNL1        0.1136
     18 C         -63.2767  -41.0370  -22.6018 C.3     1  UNL1        0.1123
     19 C         -63.5450  -38.4155  -19.9294 C.ar    1  UNL1        0.1318
     20 C         -64.6111  -38.4353  -19.0129 C.ar    1  UNL1        0.0343
     21 C         -65.0143  -37.2502  -18.3958 C.ar    1  UNL1        0.0083
     22 C         -64.3754  -36.0400  -18.7021 C.ar    1  UNL1        0.0906
     23 C         -63.3018  -36.0639  -19.6046 C.ar    1  UNL1        0.1041
     24 N         -62.9250  -37.2305  -20.1914 N.ar    1  UNL1       -0.2292
     25 C         -64.7688  -34.7624  -18.0051 C.3     1  UNL1        0.4200
     26 F         -65.0542  -35.0018  -16.6720 F       1  UNL1       -0.1658
     27 F         -63.7256  -33.8593  -18.0874 F       1  UNL1       -0.1658
     28 F         -65.8919  -34.2097  -18.5959 F       1  UNL1       -0.1658
     29 C         -62.9846  -49.2280  -25.5413 C.3     1  UNL1        0.1535
     30 C         -64.0122  -50.1943  -24.9927 C.2     1  UNL1        0.2443
     31 O         -65.2357  -49.9998  -25.2275 O.2     1  UNL1       -0.2730
     32 N         -63.6232  -51.4032  -24.3197 N.am    1  UNL1       -0.2825
     33 H         -64.2871  -52.2099  -24.3438 H       1  UNL1        0.1549
     34 C         -62.3335  -51.6137  -23.7295 C.ar    1  UNL1        0.0535
     35 C         -61.7913  -50.6817  -22.8328 C.ar    1  UNL1        0.0353
     36 C         -60.5375  -50.9232  -22.2662 C.ar    1  UNL1        0.1002
     37 N         -59.8612  -52.0635  -22.5681 N.ar    1  UNL1       -0.2422
     38 C         -60.3766  -52.9946  -23.4145 C.ar    1  UNL1        0.1002
     39 C         -61.6276  -52.7910  -24.0025 C.ar    1  UNL1        0.0353
     40 C         -63.2119  -49.0226  -27.0470 C.3     1  UNL1        0.0569
     41 C         -62.4247  -47.8498  -27.5534 C.ar    1  UNL1       -0.0017
     42 C         -61.0387  -47.7326  -27.5906 C.ar    1  UNL1        0.0681
     43 N         -60.6795  -46.5827  -28.2057 N.ar    1  UNL1       -0.3523
     44 C         -61.8259  -45.9826  -28.5710 C.ar    1  UNL1        0.0563
     45 C         -61.9678  -44.7856  -29.2716 C.ar    1  UNL1        0.0170
     46 C         -63.2715  -44.3558  -29.5815 C.ar    1  UNL1        0.0015
     47 C         -64.3907  -45.1249  -29.1917 C.ar    1  UNL1        0.0001
     48 C         -64.2167  -46.3302  -28.4884 C.ar    1  UNL1        0.0012
     49 C         -62.9127  -46.7278  -28.1928 C.ar    1  UNL1        0.0131
     50 H         -59.7069  -46.2468  -28.3836 H       1  UNL1        0.1660
@<TRIPOS>BOND
     1     1     2    2
     2     2     3   am
     3     3    29    1
     4    29    40    1
     5    40    41    1
     6    41    42   ar
     7    42    43   ar
     8    43    44   ar
     9    44    45   ar
    10    45    46   ar
    11    46    47   ar
    12    47    48   ar
    13    48    49   ar
    14    29    30    1
    15    30    31    2
    16    30    32   am
    17    32    34    1
    18    34    35   ar
    19    35    36   ar
    20    36    37   ar
    21    37    38   ar
    22    38    39   ar
    23     2     5    1
    24     5     6   ar
    25     6     7    1
    26     6     8   ar
    27     8     9   ar
    28     9    13    1
    29    13    14    1
    30    14    15    1
    31    15    16    1
    32    16    19    1
    33    19    20   ar
    34    20    21   ar
    35    21    22   ar
    36    22    25    1
    37    25    26    1
    38    25    27    1
    39    25    28    1
    40    22    23   ar
    41    23    24   ar
    42    16    17    1
    43    17    18    1
    44     9    10   ar
    45    10    11   ar
    46    11    12    1
    47    49    41   ar
    48    39    34   ar
    49    11     5   ar
    50    49    44   ar
    51    18    13    1
    52    24    19   ar
    53     3     4    1
    54    43    50    1
    55    32    33    1
@<TRIPOS>MOLECULE
*****
 50 55 0 0 0
SMALL
GASTEIGER

@<TRIPOS>ATOM
      1 O         -59.8576  -46.3520  -25.9269 O.2     1  UNL1       -0.2700
      2 C         -60.7064  -45.4942  -26.2928 C.2     1  UNL1        0.2488
      3 N         -61.2096  -45.5029  -27.6390 N.am    1  UNL1       -0.2945
      4 H         -61.8562  -44.7359  -27.9341 H       1  UNL1        0.1501
      5 C         -61.1879  -44.4871  -25.3241 C.ar    1  UNL1        0.0862
      6 C         -61.6591  -44.9044  -24.0660 C.ar    1  UNL1        0.1461
      7 F         -61.6432  -46.2173  -23.7203 F       1  UNL1       -0.2040
      8 C         -62.1124  -43.9689  -23.1332 C.ar    1  UNL1        0.0443
      9 C         -62.1073  -42.5970  -23.4327 C.ar    1  UNL1        0.0506
     10 C         -61.6323  -42.1800  -24.6868 C.ar    1  UNL1        0.0206
     11 C         -61.1756  -43.1083  -25.6292 C.ar    1  UNL1        0.0378
     12 I         -60.5591  -42.3446  -27.5133 I       1  UNL1       -0.0423
     13 N         -62.5729  -41.6297  -22.4651 N.pl3   1  UNL1       -0.3040
     14 C         -64.0102  -41.4868  -22.1929 C.3     1  UNL1        0.1123
     15 C         -64.3516  -40.0395  -21.8216 C.3     1  UNL1        0.1136
     16 N         -63.4527  -39.5126  -20.7809 N.pl3   1  UNL1       -0.2897
     17 C         -62.2428  -40.2635  -20.4160 C.3     1  UNL1        0.1136
     18 C         -61.5963  -40.8786  -21.6608 C.3     1  UNL1        0.1123
     19 C         -63.8207  -38.3384  -20.0221 C.ar    1  UNL1        0.1318
     20 C         -64.9100  -38.3516  -19.1332 C.ar    1  UNL1        0.0343
     21 C         -65.2331  -37.1972  -18.4185 C.ar    1  UNL1        0.0083
     22 C         -64.4903  -36.0216  -18.5997 C.ar    1  UNL1        0.0906
     23 C         -63.3974  -36.0536  -19.4786 C.ar    1  UNL1        0.1041
     24 N         -63.0999  -37.1901  -20.1619 N.ar    1  UNL1       -0.2292
     25 C         -64.7984  -34.7834  -17.7968 C.3     1  UNL1        0.4200
     26 F         -65.0725  -35.1113  -16.4802 F       1  UNL1       -0.1658
     27 F         -63.7077  -33.9350  -17.8322 F       1  UNL1       -0.1658
     28 F         -65.8992  -34.1253  -18.3174 F       1  UNL1       -0.1658
     29 C         -60.7291  -46.4359  -28.6660 C.3     1  UNL1        0.1535
     30 C         -59.2955  -46.1242  -29.0377 C.2     1  UNL1        0.2443
     31 O         -58.3609  -46.5018  -28.2801 O.2     1  UNL1       -0.2730
     32 N         -58.9598  -45.5227  -30.2991 N.am    1  UNL1       -0.2825
     33 H         -58.0102  -45.7120  -30.6923 H       1  UNL1        0.1549
     34 C         -59.8865  -44.7872  -31.1093 C.ar    1  UNL1        0.0535
     35 C         -61.1333  -44.3949  -30.6013 C.ar    1  UNL1        0.0353
     36 C         -62.0078  -43.6687  -31.4132 C.ar    1  UNL1        0.1002
     37 N         -61.6407  -43.3289  -32.6775 N.ar    1  UNL1       -0.2422
     38 C         -60.4273  -43.6752  -33.1845 C.ar    1  UNL1        0.1002
     39 C         -59.5237  -44.4020  -32.4050 C.ar    1  UNL1        0.0353
     40 C         -60.8338  -47.8805  -28.1527 C.3     1  UNL1        0.0569
     41 C         -62.1814  -48.1377  -27.5451 C.ar    1  UNL1       -0.0017
     42 C         -63.4147  -48.0230  -28.1792 C.ar    1  UNL1        0.0681
     43 N         -64.4072  -48.4322  -27.3563 N.ar    1  UNL1       -0.3523
     44 C         -63.8091  -48.8191  -26.2160 C.ar    1  UNL1        0.0563
     45 C         -64.4175  -49.3547  -25.0816 C.ar    1  UNL1        0.0170
     46 C         -63.5904  -49.7263  -24.0054 C.ar    1  UNL1        0.0015
     47 C         -62.1898  -49.5594  -24.0878 C.ar    1  UNL1        0.0001
     48 C         -61.6038  -49.0192  -25.2464 C.ar    1  UNL1        0.0012
     49 C         -62.4501  -48.6571  -26.2946 C.ar    1  UNL1        0.0131
     50 H         -65.4274  -48.4656  -27.5766 H       1  UNL1        0.1660
@<TRIPOS>BOND
     1     1     2    2
     2     2     3   am
     3     3    29    1
     4    29    40    1
     5    40    41    1
     6    41    42   ar
     7    42    43   ar
     8    43    44   ar
     9    44    45   ar
    10    45    46   ar
    11    46    47   ar
    12    47    48   ar
    13    48    49   ar
    14    29    30    1
    15    30    31    2
    16    30    32   am
    17    32    34    1
    18    34    35   ar
    19    35    36   ar
    20    36    37   ar
    21    37    38   ar
    22    38    39   ar
    23     2     5    1
    24     5     6   ar
    25     6     7    1
    26     6     8   ar
    27     8     9   ar
    28     9    13    1
    29    13    14    1
    30    14    15    1
    31    15    16    1
    32    16    19    1
    33    19    20   ar
    34    20    21   ar
    35    21    22   ar
    36    22    25    1
    37    25    26    1
    38    25    27    1
    39    25    28    1
    40    22    23   ar
    41    23    24   ar
    42    16    17    1
    43    17    18    1
    44     9    10   ar
    45    10    11   ar
    46    11    12    1
    47    49    41   ar
    48    39    34   ar
    49    11     5   ar
    50    49    44   ar
    51    18    13    1
    52    24    19   ar
    53     3     4    1
    54    43    50    1
    55    32    33    1
@<TRIPOS>MOLECULE
*****
 50 55 0 0 0
SMALL
GASTEIGER

@<TRIPOS>ATOM
      1 O         -60.4726  -45.7452  -27.2332 O.2     1  UNL1       -0.2700
      2 C         -61.6652  -45.5089  -26.8986 C.2     1  UNL1        0.2488
      3 N         -62.7479  -46.1995  -27.5439 N.am    1  UNL1       -0.2945
      4 H         -63.7278  -45.9301  -27.2977 H       1  UNL1        0.1501
      5 C         -61.9406  -44.5248  -25.8308 C.ar    1  UNL1        0.0862
      6 C         -62.9034  -43.5215  -26.0437 C.ar    1  UNL1        0.1461
      7 F         -63.6058  -43.4697  -27.2045 F       1  UNL1       -0.2040
      8 C         -63.1840  -42.5856  -25.0457 C.ar    1  UNL1        0.0443
      9 C         -62.5116  -42.6274  -23.8137 C.ar    1  UNL1        0.0506
     10 C         -61.5538  -43.6320  -23.5993 C.ar    1  UNL1        0.0206
     11 C         -61.2645  -44.5752  -24.5920 C.ar    1  UNL1        0.0378
     12 I         -59.7389  -45.9894  -24.1618 I       1  UNL1       -0.0423
     13 N         -62.8057  -41.6609  -22.7802 N.pl3   1  UNL1       -0.3040
     14 C         -64.1169  -41.6623  -22.1160 C.3     1  UNL1        0.1123
     15 C         -64.5179  -40.2421  -21.7023 C.3     1  UNL1        0.1136
     16 N         -63.4374  -39.5564  -20.9733 N.pl3   1  UNL1       -0.2897
     17 C         -62.0906  -40.1447  -20.9461 C.3     1  UNL1        0.1136
     18 C         -61.7447  -40.7585  -22.3061 C.3     1  UNL1        0.1123
     19 C         -63.7223  -38.3865  -20.1733 C.ar    1  UNL1        0.1318
     20 C         -64.7689  -38.3775  -19.2345 C.ar    1  UNL1        0.0343
     21 C         -65.0119  -37.2281  -18.4809 C.ar    1  UNL1        0.0083
     22 C         -64.2315  -36.0787  -18.6720 C.ar    1  UNL1        0.0906
     23 C         -63.1826  -36.1332  -19.6019 C.ar    1  UNL1        0.1041
     24 N         -62.9631  -37.2645  -20.3225 N.ar    1  UNL1       -0.2292
     25 C         -64.4520  -34.8483  -17.8293 C.3     1  UNL1        0.4200
     26 F         -64.7219  -35.1973  -16.5173 F       1  UNL1       -0.1658
     27 F         -63.3139  -34.0644  -17.8620 F       1  UNL1       -0.1658
     28 F         -65.5209  -34.1122  -18.3103 F       1  UNL1       -0.1658
     29 C         -62.5474  -47.1424  -28.6516 C.3     1  UNL1        0.1535
     30 C         -63.5579  -48.2668  -28.5814 C.2     1  UNL1        0.2443
     31 O         -64.2336  -48.5599  -29.6049 O.2     1  UNL1       -0.2730
     32 N         -63.6770  -49.0988  -27.4155 N.am    1  UNL1       -0.2825
     33 H         -64.0373  -50.0712  -27.5450 H       1  UNL1        0.1549
     34 C         -63.2143  -48.7234  -26.1112 C.ar    1  UNL1        0.0535
     35 C         -64.0061  -47.9322  -25.2665 C.ar    1  UNL1        0.0353
     36 C         -63.5305  -47.5946  -23.9972 C.ar    1  UNL1        0.1002
     37 N         -62.3187  -48.0488  -23.5802 N.ar    1  UNL1       -0.2422
     38 C         -61.5433  -48.8384  -24.3705 C.ar    1  UNL1        0.1002
     39 C         -61.9824  -49.1987  -25.6470 C.ar    1  UNL1        0.0353
     40 C         -62.6751  -46.4080  -29.9953 C.3     1  UNL1        0.0569
     41 C         -63.7412  -45.3541  -29.9317 C.ar    1  UNL1       -0.0017
     42 C         -65.0765  -45.5422  -29.5882 C.ar    1  UNL1        0.0681
     43 N         -65.7215  -44.3543  -29.5368 N.ar    1  UNL1       -0.3523
     44 C         -64.8011  -43.4185  -29.8284 C.ar    1  UNL1        0.0563
     45 C         -64.9816  -42.0365  -29.8620 C.ar    1  UNL1        0.0170
     46 C         -63.8641  -41.2345  -30.1592 C.ar    1  UNL1        0.0015
     47 C         -62.6052  -41.8249  -30.4096 C.ar    1  UNL1        0.0001
     48 C         -62.4524  -43.2222  -30.3657 C.ar    1  UNL1        0.0012
     49 C         -63.5792  -43.9904  -30.0722 C.ar    1  UNL1        0.0131
     50 H         -66.7246  -44.1982  -29.2923 H       1  UNL1        0.1660
@<TRIPOS>BOND
     1     1     2    2
     2     2     3   am
     3     3    29    1
     4    29    40    1
     5    40    41    1
     6    41    42   ar
     7    42    43   ar
     8    43    44   ar
     9    44    45   ar
    10    45    46   ar
    11    46    47   ar
    12    47    48   ar
    13    48    49   ar
    14    29    30    1
    15    30    31    2
    16    30    32   am
    17    32    34    1
    18    34    35   ar
    19    35    36   ar
    20    36    37   ar
    21    37    38   ar
    22    38    39   ar
    23     2     5    1
    24     5     6   ar
    25     6     7    1
    26     6     8   ar
    27     8     9   ar
    28     9    13    1
    29    13    14    1
    30    14    15    1
    31    15    16    1
    32    16    19    1
    33    19    20   ar
    34    20    21   ar
    35    21    22   ar
    36    22    25    1
    37    25    26    1
    38    25    27    1
    39    25    28    1
    40    22    23   ar
    41    23    24   ar
    42    16    17    1
    43    17    18    1
    44     9    10   ar
    45    10    11   ar
    46    11    12    1
    47    49    41   ar
    48    39    34   ar
    49    11     5   ar
    50    49    44   ar
    51    18    13    1
    52    24    19   ar
    53     3     4    1
    54    43    50    1
    55    32    33    1
@<TRIPOS>MOLECULE
*****
 50 55 0 0 0
SMALL
GASTEIGER

@<TRIPOS>ATOM
      1 O         -61.1150  -40.3959  -21.7730 O.2     1  UNL1       -0.2700
      2 C         -62.2979  -40.7323  -22.0512 C.2     1  UNL1        0.2488
      3 N         -63.3801  -40.3561  -21.1835 N.am    1  UNL1       -0.2945
      4 H         -64.3394  -40.7112  -21.4006 H       1  UNL1        0.1501
      5 C         -62.5645  -41.5070  -23.2815 C.ar    1  UNL1        0.0862
      6 C         -63.6099  -41.1130  -24.1363 C.ar    1  UNL1        0.1461
      7 F         -64.3523  -40.0100  -23.8612 F       1  UNL1       -0.2040
      8 C         -63.8748  -41.8268  -25.3073 C.ar    1  UNL1        0.0443
      9 C         -63.1050  -42.9493  -25.6527 C.ar    1  UNL1        0.0506
     10 C         -62.0582  -43.3397  -24.8017 C.ar    1  UNL1        0.0206
     11 C         -61.7836  -42.6320  -23.6259 C.ar    1  UNL1        0.0378
     12 I         -60.2229  -43.3797  -22.3938 I       1  UNL1       -0.0423
     13 N         -63.3775  -43.6847  -26.8666 N.pl3   1  UNL1       -0.3040
     14 C         -63.5196  -42.9756  -28.1463 C.3     1  UNL1        0.1123
     15 C         -64.5085  -43.7032  -29.0637 C.3     1  UNL1        0.1136
     16 N         -64.2083  -45.1415  -29.1645 N.pl3   1  UNL1       -0.2897
     17 C         -63.2366  -45.7483  -28.2434 C.3     1  UNL1        0.1136
     18 C         -63.3849  -45.1557  -26.8389 C.3     1  UNL1        0.1123
     19 C         -64.7558  -45.9292  -30.2460 C.ar    1  UNL1        0.1318
     20 C         -65.1487  -45.3362  -31.4588 C.ar    1  UNL1        0.0343
     21 C         -65.6727  -46.1312  -32.4792 C.ar    1  UNL1        0.0083
     22 C         -65.8279  -47.5123  -32.2914 C.ar    1  UNL1        0.0906
     23 C         -65.4041  -48.0705  -31.0762 C.ar    1  UNL1        0.1041
     24 N         -64.8944  -47.2769  -30.0977 N.ar    1  UNL1       -0.2292
     25 C         -66.3457  -48.3883  -33.4036 C.3     1  UNL1        0.4200
     26 F         -67.5707  -47.9294  -33.8561 F       1  UNL1       -0.1658
     27 F         -65.4442  -48.3741  -34.4513 F       1  UNL1       -0.1658
     28 F         -66.5067  -49.6910  -32.9644 F       1  UNL1       -0.1658
     29 C         -63.1777  -39.6405  -19.9174 C.3     1  UNL1        0.1535
     30 C         -64.4515  -38.9425  -19.4923 C.2     1  UNL1        0.2443
     31 O         -65.5298  -39.5942  -19.4410 O.2     1  UNL1       -0.2730
     32 N         -64.4430  -37.5858  -19.0180 N.am    1  UNL1       -0.2825
     33 H         -65.2008  -37.2944  -18.3601 H       1  UNL1        0.1549
     34 C         -63.3928  -36.6478  -19.2887 C.ar    1  UNL1        0.0535
     35 C         -62.8085  -36.5684  -20.5611 C.ar    1  UNL1        0.0353
     36 C         -61.7959  -35.6350  -20.7946 C.ar    1  UNL1        0.1002
     37 N         -61.3977  -34.7980  -19.7998 N.ar    1  UNL1       -0.2422
     38 C         -61.9660  -34.8377  -18.5650 C.ar    1  UNL1        0.1002
     39 C         -62.9818  -35.7570  -18.2905 C.ar    1  UNL1        0.0353
     40 C         -62.7309  -40.6240  -18.8246 C.3     1  UNL1        0.0569
     41 C         -63.8224  -41.6024  -18.5043 C.ar    1  UNL1       -0.0017
     42 C         -64.8321  -41.4417  -17.5604 C.ar    1  UNL1        0.0681
     43 N         -65.6982  -42.4792  -17.6157 N.ar    1  UNL1       -0.3523
     44 C         -65.2528  -43.2835  -18.5968 C.ar    1  UNL1        0.0563
     45 C         -65.8375  -44.4638  -19.0536 C.ar    1  UNL1        0.0170
     46 C         -65.2164  -45.1341  -20.1237 C.ar    1  UNL1        0.0015
     47 C         -64.0405  -44.6135  -20.7089 C.ar    1  UNL1        0.0001
     48 C         -63.4748  -43.4187  -20.2290 C.ar    1  UNL1        0.0012
     49 C         -64.1114  -42.7796  -19.1649 C.ar    1  UNL1        0.0131
     50 H         -66.5539  -42.6106  -17.0317 H       1  UNL1        0.1660
@<TRIPOS>BOND
     1     1     2    2
     2     2     3   am
     3     3    29    1
     4    29    40    1
     5    40    41    1
     6    41    42   ar
     7    42    43   ar
     8    43    44   ar
     9    44    45   ar
    10    45    46   ar
    11    46    47   ar
    12    47    48   ar
    13    48    49   ar
    14    29    30    1
    15    30    31    2
    16    30    32   am
    17    32    34    1
    18    34    35   ar
    19    35    36   ar
    20    36    37   ar
    21    37    38   ar
    22    38    39   ar
    23     2     5    1
    24     5     6   ar
    25     6     7    1
    26     6     8   ar
    27     8     9   ar
    28     9    13    1
    29    13    14    1
    30    14    15    1
    31    15    16    1
    32    16    19    1
    33    19    20   ar
    34    20    21   ar
    35    21    22   ar
    36    22    25    1
    37    25    26    1
    38    25    27    1
    39    25    28    1
    40    22    23   ar
    41    23    24   ar
    42    16    17    1
    43    17    18    1
    44     9    10   ar
    45    10    11   ar
    46    11    12    1
    47    49    41   ar
    48    39    34   ar
    49    11     5   ar
    50    49    44   ar
    51    18    13    1
    52    24    19   ar
    53     3     4    1
    54    43    50    1
    55    32    33    1
@<TRIPOS>MOLECULE
*****
 50 55 0 0 0
SMALL
GASTEIGER

@<TRIPOS>ATOM
      1 O         -60.7999  -45.6278  -26.8941 O.2     1  UNL1       -0.2700
      2 C         -61.9428  -45.0977  -26.8413 C.2     1  UNL1        0.2488
      3 N         -62.9453  -45.4415  -27.8121 N.am    1  UNL1       -0.2945
      4 H         -63.8582  -44.9321  -27.7874 H       1  UNL1        0.1501
      5 C         -62.2471  -44.1288  -25.7675 C.ar    1  UNL1        0.0862
      6 C         -62.0708  -44.5048  -24.4234 C.ar    1  UNL1        0.1461
      7 F         -61.5914  -45.7345  -24.1046 F       1  UNL1       -0.2040
      8 C         -62.3460  -43.6027  -23.3933 C.ar    1  UNL1        0.0443
      9 C         -62.8038  -42.3062  -23.6785 C.ar    1  UNL1        0.0506
     10 C         -62.9751  -41.9291  -25.0205 C.ar    1  UNL1        0.0206
     11 C         -62.7024  -42.8246  -26.0609 C.ar    1  UNL1        0.0378
     12 I         -63.0805  -42.1475  -28.0387 I       1  UNL1       -0.0423
     13 N         -63.0843  -41.3723  -22.6119 N.pl3   1  UNL1       -0.3040
     14 C         -64.3676  -41.4276  -21.8973 C.3     1  UNL1        0.1123
     15 C         -64.7925  -40.0295  -21.4348 C.3     1  UNL1        0.1136
     16 N         -63.7042  -39.3287  -20.7325 N.pl3   1  UNL1       -0.2897
     17 C         -62.3410  -39.8773  -20.7717 C.3     1  UNL1        0.1136
     18 C         -62.0318  -40.4498  -22.1582 C.3     1  UNL1        0.1123
     19 C         -63.9906  -38.1859  -19.8946 C.ar    1  UNL1        0.1318
     20 C         -65.0063  -38.2255  -18.9232 C.ar    1  UNL1        0.0343
     21 C         -65.2519  -37.1012  -18.1335 C.ar    1  UNL1        0.0083
     22 C         -64.5053  -35.9288  -18.3201 C.ar    1  UNL1        0.0906
     23 C         -63.4861  -35.9349  -19.2838 C.ar    1  UNL1        0.1041
     24 N         -63.2633  -37.0425  -20.0393 N.ar    1  UNL1       -0.2292
     25 C         -64.7275  -34.7251  -17.4400 C.3     1  UNL1        0.4200
     26 F         -63.6779  -33.8310  -17.5620 F       1  UNL1       -0.1658
     27 F         -65.9003  -34.0971  -17.8155 F       1  UNL1       -0.1658
     28 F         -64.8229  -35.1023  -16.1117 F       1  UNL1       -0.1658
     29 C         -62.6898  -46.3488  -28.9380 C.3     1  UNL1        0.1535
     30 C         -63.8184  -47.3467  -29.0826 C.2     1  UNL1        0.2443
     31 O         -64.5909  -47.2715  -30.0763 O.2     1  UNL1       -0.2730
     32 N         -63.9560  -48.4612  -28.1855 N.am    1  UNL1       -0.2825
     33 H         -64.4359  -49.3181  -28.5424 H       1  UNL1        0.1549
     34 C         -63.3660  -48.5177  -26.8797 C.ar    1  UNL1        0.0535
     35 C         -61.9788  -48.6479  -26.7214 C.ar    1  UNL1        0.0353
     36 C         -61.4352  -48.6877  -25.4353 C.ar    1  UNL1        0.1002
     37 N         -62.2459  -48.5796  -24.3490 N.ar    1  UNL1       -0.2422
     38 C         -63.5911  -48.4269  -24.4763 C.ar    1  UNL1        0.1002
     39 C         -64.1744  -48.3826  -25.7452 C.ar    1  UNL1        0.0353
     40 C         -62.5353  -45.5425  -30.2369 C.3     1  UNL1        0.0569
     41 C         -61.0936  -45.2217  -30.5011 C.ar    1  UNL1       -0.0017
     42 C         -59.9987  -45.6346  -29.7482 C.ar    1  UNL1        0.0681
     43 N         -58.8463  -45.2441  -30.3392 N.ar    1  UNL1       -0.3523
     44 C         -59.2047  -44.6036  -31.4658 C.ar    1  UNL1        0.0563
     45 C         -58.3617  -44.0527  -32.4300 C.ar    1  UNL1        0.0170
     46 C         -58.9547  -43.4541  -33.5571 C.ar    1  UNL1        0.0015
     47 C         -60.3604  -43.4233  -33.6952 C.ar    1  UNL1        0.0001
     48 C         -61.1858  -43.9900  -32.7077 C.ar    1  UNL1        0.0012
     49 C         -60.5687  -44.5726  -31.6006 C.ar    1  UNL1        0.0131
     50 H         -57.8762  -45.4293  -30.0000 H       1  UNL1        0.1660
@<TRIPOS>BOND
     1     1     2    2
     2     2     3   am
     3     3    29    1
     4    29    40    1
     5    40    41    1
     6    41    42   ar
     7    42    43   ar
     8    43    44   ar
     9    44    45   ar
    10    45    46   ar
    11    46    47   ar
    12    47    48   ar
    13    48    49   ar
    14    29    30    1
    15    30    31    2
    16    30    32   am
    17    32    34    1
    18    34    35   ar
    19    35    36   ar
    20    36    37   ar
    21    37    38   ar
    22    38    39   ar
    23     2     5    1
    24     5     6   ar
    25     6     7    1
    26     6     8   ar
    27     8     9   ar
    28     9    13    1
    29    13    14    1
    30    14    15    1
    31    15    16    1
    32    16    19    1
    33    19    20   ar
    34    20    21   ar
    35    21    22   ar
    36    22    25    1
    37    25    26    1
    38    25    27    1
    39    25    28    1
    40    22    23   ar
    41    23    24   ar
    42    16    17    1
    43    17    18    1
    44     9    10   ar
    45    10    11   ar
    46    11    12    1
    47    49    41   ar
    48    39    34   ar
    49    11     5   ar
    50    49    44   ar
    51    18    13    1
    52    24    19   ar
    53     3     4    1
    54    43    50    1
    55    32    33    1
@<TRIPOS>MOLECULE
*****
 50 55 0 0 0
SMALL
GASTEIGER

@<TRIPOS>ATOM
      1 O         -60.8015  -47.1644  -24.2452 O.2     1  UNL1       -0.2700
      2 C         -61.9597  -46.6755  -24.1466 C.2     1  UNL1        0.2488
      3 N         -63.0932  -47.3901  -24.6662 N.am    1  UNL1       -0.2945
      4 H         -64.0305  -46.9275  -24.6358 H       1  UNL1        0.1501
      5 C         -62.1439  -45.3676  -23.4832 C.ar    1  UNL1        0.0862
      6 C         -62.2579  -45.3103  -22.0823 C.ar    1  UNL1        0.1461
      7 F         -62.1652  -46.4383  -21.3324 F       1  UNL1       -0.2040
      8 C         -62.4258  -44.0843  -21.4346 C.ar    1  UNL1        0.0443
      9 C         -62.4849  -42.8881  -22.1676 C.ar    1  UNL1        0.0506
     10 C         -62.3662  -42.9447  -23.5659 C.ar    1  UNL1        0.0206
     11 C         -62.1975  -44.1674  -24.2256 C.ar    1  UNL1        0.0378
     12 I         -62.1109  -44.1133  -26.3475 I       1  UNL1       -0.0423
     13 N         -62.6547  -41.6197  -21.4960 N.pl3   1  UNL1       -0.3040
     14 C         -62.4068  -41.5072  -20.0515 C.3     1  UNL1        0.1123
     15 C         -63.3215  -40.4496  -19.4241 C.3     1  UNL1        0.1136
     16 N         -63.2916  -39.1826  -20.1742 N.pl3   1  UNL1       -0.2897
     17 C         -62.6525  -39.1350  -21.4970 C.3     1  UNL1        0.1136
     18 C         -62.9519  -40.4138  -22.2848 C.3     1  UNL1        0.1123
     19 C         -63.7617  -37.9594  -19.5634 C.ar    1  UNL1        0.1318
     20 C         -63.0524  -36.7530  -19.6984 C.ar    1  UNL1        0.0343
     21 C         -63.5395  -35.5933  -19.0937 C.ar    1  UNL1        0.0083
     22 C         -64.7192  -35.6321  -18.3364 C.ar    1  UNL1        0.0906
     23 C         -65.4104  -36.8492  -18.2428 C.ar    1  UNL1        0.1041
     24 N         -64.9183  -37.9651  -18.8424 N.ar    1  UNL1       -0.2292
     25 C         -65.2816  -34.3763  -17.7204 C.3     1  UNL1        0.4200
     26 F         -65.2168  -34.4390  -16.3391 F       1  UNL1       -0.1658
     27 F         -64.5496  -33.2881  -18.1569 F       1  UNL1       -0.1658
     28 F         -66.6059  -34.2047  -18.0844 F       1  UNL1       -0.1658
     29 C         -62.9731  -48.6627  -25.3889 C.3     1  UNL1        0.1535
     30 C         -63.9497  -49.6798  -24.8392 C.2     1  UNL1        0.2443
     31 O         -65.1884  -49.4922  -24.9817 O.2     1  UNL1       -0.2730
     32 N         -63.5015  -50.9223  -24.2726 N.am    1  UNL1       -0.2825
     33 H         -64.1547  -51.7374  -24.3062 H       1  UNL1        0.1549
     34 C         -62.1733  -51.1474  -23.7814 C.ar    1  UNL1        0.0535
     35 C         -61.1935  -50.1482  -23.8710 C.ar    1  UNL1        0.0353
     36 C         -59.9126  -50.3958  -23.3716 C.ar    1  UNL1        0.1002
     37 N         -59.6284  -51.5893  -22.7855 N.ar    1  UNL1       -0.2422
     38 C         -60.5680  -52.5648  -22.6635 C.ar    1  UNL1        0.1002
     39 C         -61.8611  -52.3570  -23.1502 C.ar    1  UNL1        0.0353
     40 C         -63.2358  -48.4422  -26.8868 C.3     1  UNL1        0.0569
     41 C         -62.1319  -47.6419  -27.5131 C.ar    1  UNL1       -0.0017
     42 C         -60.7646  -47.8332  -27.3388 C.ar    1  UNL1        0.0681
     43 N         -60.0661  -46.9938  -28.1371 N.ar    1  UNL1       -0.3523
     44 C         -60.9804  -46.2873  -28.8245 C.ar    1  UNL1        0.0563
     45 C         -60.7431  -45.3215  -29.8015 C.ar    1  UNL1        0.0170
     46 C         -61.8571  -44.7271  -30.4228 C.ar    1  UNL1        0.0015
     47 C         -63.1680  -45.1096  -30.0602 C.ar    1  UNL1        0.0001
     48 C         -63.3768  -46.0893  -29.0731 C.ar    1  UNL1        0.0012
     49 C         -62.2529  -46.6573  -28.4731 C.ar    1  UNL1        0.0131
     50 H         -59.0270  -46.9305  -28.2198 H       1  UNL1        0.1660
@<TRIPOS>BOND
     1     1     2    2
     2     2     3   am
     3     3    29    1
     4    29    40    1
     5    40    41    1
     6    41    42   ar
     7    42    43   ar
     8    43    44   ar
     9    44    45   ar
    10    45    46   ar
    11    46    47   ar
    12    47    48   ar
    13    48    49   ar
    14    29    30    1
    15    30    31    2
    16    30    32   am
    17    32    34    1
    18    34    35   ar
    19    35    36   ar
    20    36    37   ar
    21    37    38   ar
    22    38    39   ar
    23     2     5    1
    24     5     6   ar
    25     6     7    1
    26     6     8   ar
    27     8     9   ar
    28     9    13    1
    29    13    14    1
    30    14    15    1
    31    15    16    1
    32    16    19    1
    33    19    20   ar
    34    20    21   ar
    35    21    22   ar
    36    22    25    1
    37    25    26    1
    38    25    27    1
    39    25    28    1
    40    22    23   ar
    41    23    24   ar
    42    16    17    1
    43    17    18    1
    44     9    10   ar
    45    10    11   ar
    46    11    12    1
    47    49    41   ar
    48    39    34   ar
    49    11     5   ar
    50    49    44   ar
    51    18    13    1
    52    24    19   ar
    53     3     4    1
    54    43    50    1
    55    32    33    1
@<TRIPOS>MOLECULE
*****
 50 55 0 0 0
SMALL
GASTEIGER

@<TRIPOS>ATOM
      1 O         -60.0436  -46.0825  -25.5344 O.2     1  UNL1       -0.2700
      2 C         -61.2514  -45.7205  -25.5186 C.2     1  UNL1        0.2488
      3 N         -62.2045  -46.3424  -26.3963 N.am    1  UNL1       -0.2945
      4 H         -63.1821  -45.9716  -26.4133 H       1  UNL1        0.1501
      5 C         -61.6815  -44.6598  -24.5835 C.ar    1  UNL1        0.0862
      6 C         -62.1823  -43.4477  -25.0924 C.ar    1  UNL1        0.1461
      7 F         -62.3070  -43.2564  -26.4308 F       1  UNL1       -0.2040
      8 C         -62.6005  -42.4346  -24.2267 C.ar    1  UNL1        0.0443
      9 C         -62.5286  -42.6056  -22.8347 C.ar    1  UNL1        0.0506
     10 C         -62.0333  -43.8177  -22.3266 C.ar    1  UNL1        0.0206
     11 C         -61.6115  -44.8397  -23.1846 C.ar    1  UNL1        0.0378
     12 I         -60.8116  -46.5877  -22.2804 I       1  UNL1       -0.0423
     13 N         -62.9654  -41.5582  -21.9399 N.pl3   1  UNL1       -0.3040
     14 C         -64.3371  -41.5592  -21.4118 C.3     1  UNL1        0.1123
     15 C         -64.8339  -40.1268  -21.1874 C.3     1  UNL1        0.1136
     16 N         -63.8621  -39.3206  -20.4294 N.pl3   1  UNL1       -0.2897
     17 C         -62.5033  -39.8364  -20.2091 C.3     1  UNL1        0.1136
     18 C         -61.9952  -40.5626  -21.4582 C.3     1  UNL1        0.1123
     19 C         -64.2736  -38.0934  -19.7854 C.ar    1  UNL1        0.1318
     20 C         -65.5736  -37.5822  -19.9447 C.ar    1  UNL1        0.0343
     21 C         -65.9325  -36.3943  -19.3060 C.ar    1  UNL1        0.0083
     22 C         -64.9967  -35.6999  -18.5256 C.ar    1  UNL1        0.0906
     23 C         -63.7165  -36.2526  -18.3726 C.ar    1  UNL1        0.1041
     24 N         -63.3905  -37.4122  -19.0021 N.ar    1  UNL1       -0.2292
     25 C         -65.3870  -34.4428  -17.7908 C.3     1  UNL1        0.4200
     26 F         -64.5486  -33.3964  -18.1345 F       1  UNL1       -0.1658
     27 F         -66.6862  -34.1066  -18.1221 F       1  UNL1       -0.1658
     28 F         -65.3049  -34.6319  -16.4220 F       1  UNL1       -0.1658
     29 C         -61.8325  -47.3574  -27.3901 C.3     1  UNL1        0.1535
     30 C         -60.9175  -46.7633  -28.4390 C.2     1  UNL1        0.2443
     31 O         -59.6937  -47.0671  -28.4402 O.2     1  UNL1       -0.2730
     32 N         -61.4298  -45.9625  -29.5170 N.am    1  UNL1       -0.2825
     33 H         -60.8844  -45.9378  -30.4081 H       1  UNL1        0.1549
     34 C         -62.7017  -45.3009  -29.4909 C.ar    1  UNL1        0.0535
     35 C         -63.8960  -46.0356  -29.5076 C.ar    1  UNL1        0.0353
     36 C         -65.1182  -45.3602  -29.4688 C.ar    1  UNL1        0.1002
     37 N         -65.1448  -44.0028  -29.3944 N.ar    1  UNL1       -0.2422
     38 C         -64.0008  -43.2691  -29.3511 C.ar    1  UNL1        0.1002
     39 C         -62.7578  -43.9062  -29.3879 C.ar    1  UNL1        0.0353
     40 C         -61.1359  -48.5391  -26.6976 C.3     1  UNL1        0.0569
     41 C         -62.0069  -49.1205  -25.6231 C.ar    1  UNL1       -0.0017
     42 C         -63.3975  -49.0970  -25.5768 C.ar    1  UNL1        0.0681
     43 N         -63.8456  -49.8066  -24.5159 N.ar    1  UNL1       -0.3523
     44 C         -62.7510  -50.2905  -23.9031 C.ar    1  UNL1        0.0563
     45 C         -62.7057  -51.1160  -22.7805 C.ar    1  UNL1        0.0170
     46 C         -61.4427  -51.5358  -22.3236 C.ar    1  UNL1        0.0015
     47 C         -60.2672  -51.1287  -22.9935 C.ar    1  UNL1        0.0001
     48 C         -60.3440  -50.2980  -24.1256 C.ar    1  UNL1        0.0012
     49 C         -61.6097  -49.8956  -24.5520 C.ar    1  UNL1        0.0131
     50 H         -64.8419  -49.9667  -24.2473 H       1  UNL1        0.1660
@<TRIPOS>BOND
     1     1     2    2
     2     2     3   am
     3     3    29    1
     4    29    40    1
     5    40    41    1
     6    41    42   ar
     7    42    43   ar
     8    43    44   ar
     9    44    45   ar
    10    45    46   ar
    11    46    47   ar
    12    47    48   ar
    13    48    49   ar
    14    29    30    1
    15    30    31    2
    16    30    32   am
    17    32    34    1
    18    34    35   ar
    19    35    36   ar
    20    36    37   ar
    21    37    38   ar
    22    38    39   ar
    23     2     5    1
    24     5     6   ar
    25     6     7    1
    26     6     8   ar
    27     8     9   ar
    28     9    13    1
    29    13    14    1
    30    14    15    1
    31    15    16    1
    32    16    19    1
    33    19    20   ar
    34    20    21   ar
    35    21    22   ar
    36    22    25    1
    37    25    26    1
    38    25    27    1
    39    25    28    1
    40    22    23   ar
    41    23    24   ar
    42    16    17    1
    43    17    18    1
    44     9    10   ar
    45    10    11   ar
    46    11    12    1
    47    49    41   ar
    48    39    34   ar
    49    11     5   ar
    50    49    44   ar
    51    18    13    1
    52    24    19   ar
    53     3     4    1
    54    43    50    1
    55    32    33    1
@<TRIPOS>MOLECULE
*****
 50 55 0 0 0
SMALL
GASTEIGER

@<TRIPOS>ATOM
      1 O         -60.6456  -45.7787  -26.2892 O.2     1  UNL1       -0.2700
      2 C         -61.7497  -45.1781  -26.3906 C.2     1  UNL1        0.2488
      3 N         -62.6418  -45.4823  -27.4756 N.am    1  UNL1       -0.2945
      4 H         -63.5159  -44.9172  -27.5753 H       1  UNL1        0.1501
      5 C         -62.1243  -44.1671  -25.3795 C.ar    1  UNL1        0.0862
      6 C         -62.1674  -44.5281  -24.0206 C.ar    1  UNL1        0.1461
      7 F         -61.8350  -45.7839  -23.6258 F       1  UNL1       -0.2040
      8 C         -62.5124  -43.5869  -23.0480 C.ar    1  UNL1        0.0443
      9 C         -62.8229  -42.2653  -23.4071 C.ar    1  UNL1        0.0506
     10 C         -62.7750  -41.9037  -24.7634 C.ar    1  UNL1        0.0206
     11 C         -62.4306  -42.8383  -25.7464 C.ar    1  UNL1        0.0378
     12 I         -62.4746  -42.1748  -27.7641 I       1  UNL1       -0.0423
     13 N         -63.1758  -41.2912  -22.3995 N.pl3   1  UNL1       -0.3040
     14 C         -64.4912  -41.3447  -21.7459 C.3     1  UNL1        0.1123
     15 C         -64.9684  -39.9377  -21.3695 C.3     1  UNL1        0.1136
     16 N         -63.9313  -39.1803  -20.6486 N.pl3   1  UNL1       -0.2897
     17 C         -62.5564  -39.6977  -20.5965 C.3     1  UNL1        0.1136
     18 C         -62.1669  -40.3245  -21.9386 C.3     1  UNL1        0.1123
     19 C         -64.2832  -38.0082  -19.8790 C.ar    1  UNL1        0.1318
     20 C         -65.5785  -37.4632  -19.9244 C.ar    1  UNL1        0.0343
     21 C         -65.8790  -36.3306  -19.1662 C.ar    1  UNL1        0.0083
     22 C         -64.8901  -35.7237  -18.3784 C.ar    1  UNL1        0.0906
     23 C         -63.6159  -36.3091  -18.3419 C.ar    1  UNL1        0.1041
     24 N         -63.3471  -37.4138  -19.0867 N.ar    1  UNL1       -0.2292
     25 C         -65.2156  -34.5301  -17.5169 C.3     1  UNL1        0.4200
     26 F         -66.5362  -34.1517  -17.6862 F       1  UNL1       -0.1658
     27 F         -65.0069  -34.8563  -16.1900 F       1  UNL1       -0.1658
     28 F         -64.4108  -33.4542  -17.8491 F       1  UNL1       -0.1658
     29 C         -62.3050  -46.4299  -28.5455 C.3     1  UNL1        0.1535
     30 C         -63.3298  -47.5417  -28.6122 C.2     1  UNL1        0.2443
     31 O         -63.0632  -48.6639  -28.1028 O.2     1  UNL1       -0.2730
     32 N         -64.6528  -47.3147  -29.1257 N.am    1  UNL1       -0.2825
     33 H         -65.4234  -47.9282  -28.7766 H       1  UNL1        0.1549
     34 C         -65.0032  -46.2223  -29.9860 C.ar    1  UNL1        0.0535
     35 C         -65.0013  -46.3744  -31.3800 C.ar    1  UNL1        0.0353
     36 C         -65.3596  -45.2935  -32.1891 C.ar    1  UNL1        0.1002
     37 N         -65.7266  -44.1120  -31.6250 N.ar    1  UNL1       -0.2422
     38 C         -65.7612  -43.9470  -30.2757 C.ar    1  UNL1        0.1002
     39 C         -65.4100  -45.0034  -29.4313 C.ar    1  UNL1        0.0353
     40 C         -62.2404  -45.6970  -29.8945 C.3     1  UNL1        0.0569
     41 C         -60.8271  -45.3280  -30.2375 C.ar    1  UNL1       -0.0017
     42 C         -59.6802  -45.6898  -29.5374 C.ar    1  UNL1        0.0681
     43 N         -58.5751  -45.2666  -30.1927 N.ar    1  UNL1       -0.3523
     44 C         -59.0146  -44.6563  -31.3073 C.ar    1  UNL1        0.0563
     45 C         -58.2434  -44.0896  -32.3211 C.ar    1  UNL1        0.0170
     46 C         -58.9154  -43.5297  -33.4235 C.ar    1  UNL1        0.0015
     47 C         -60.3266  -43.5519  -33.4886 C.ar    1  UNL1        0.0001
     48 C         -61.0784  -44.1335  -32.4521 C.ar    1  UNL1        0.0012
     49 C         -60.3839  -44.6768  -31.3712 C.ar    1  UNL1        0.0131
     50 H         -57.5827  -45.4115  -29.9021 H       1  UNL1        0.1660
@<TRIPOS>BOND
     1     1     2    2
     2     2     3   am
     3     3    29    1
     4    29    40    1
     5    40    41    1
     6    41    42   ar
     7    42    43   ar
     8    43    44   ar
     9    44    45   ar
    10    45    46   ar
    11    46    47   ar
    12    47    48   ar
    13    48    49   ar
    14    29    30    1
    15    30    31    2
    16    30    32   am
    17    32    34    1
    18    34    35   ar
    19    35    36   ar
    20    36    37   ar
    21    37    38   ar
    22    38    39   ar
    23     2     5    1
    24     5     6   ar
    25     6     7    1
    26     6     8   ar
    27     8     9   ar
    28     9    13    1
    29    13    14    1
    30    14    15    1
    31    15    16    1
    32    16    19    1
    33    19    20   ar
    34    20    21   ar
    35    21    22   ar
    36    22    25    1
    37    25    26    1
    38    25    27    1
    39    25    28    1
    40    22    23   ar
    41    23    24   ar
    42    16    17    1
    43    17    18    1
    44     9    10   ar
    45    10    11   ar
    46    11    12    1
    47    49    41   ar
    48    39    34   ar
    49    11     5   ar
    50    49    44   ar
    51    18    13    1
    52    24    19   ar
    53     3     4    1
    54    43    50    1
    55    32    33    1
@<TRIPOS>MOLECULE
*****
 50 55 0 0 0
SMALL
GASTEIGER

@<TRIPOS>ATOM
      1 O         -60.8139  -40.7329  -22.0503 O.2     1  UNL1       -0.2700
      2 C         -62.0053  -41.0859  -22.2643 C.2     1  UNL1        0.2488
      3 N         -63.0413  -40.7398  -21.3302 N.am    1  UNL1       -0.2945
      4 H         -64.0056  -41.1085  -21.4965 H       1  UNL1        0.1501
      5 C         -62.3302  -41.8486  -23.4880 C.ar    1  UNL1        0.0862
      6 C         -63.2822  -41.3399  -24.3901 C.ar    1  UNL1        0.1461
      7 F         -63.8785  -40.1409  -24.1660 F       1  UNL1       -0.2040
      8 C         -63.5993  -42.0410  -25.5557 C.ar    1  UNL1        0.0443
      9 C         -62.9760  -43.2648  -25.8486 C.ar    1  UNL1        0.0506
     10 C         -62.0220  -43.7703  -24.9504 C.ar    1  UNL1        0.0206
     11 C         -61.6962  -43.0764  -23.7795 C.ar    1  UNL1        0.0378
     12 I         -60.2949  -43.9949  -22.4735 I       1  UNL1       -0.0423
     13 N         -63.3020  -43.9874  -27.0570 N.pl3   1  UNL1       -0.3040
     14 C         -63.4550  -43.2700  -28.3307 C.3     1  UNL1        0.1123
     15 C         -64.4890  -43.9639  -29.2242 C.3     1  UNL1        0.1136
     16 N         -64.2359  -45.4103  -29.3364 N.pl3   1  UNL1       -0.2897
     17 C         -63.2601  -46.0498  -28.4422 C.3     1  UNL1        0.1136
     18 C         -63.3540  -45.4576  -27.0328 C.3     1  UNL1        0.1123
     19 C         -64.8350  -46.1772  -30.4055 C.ar    1  UNL1        0.1318
     20 C         -65.1787  -45.5812  -31.6317 C.ar    1  UNL1        0.0343
     21 C         -65.7550  -46.3560  -32.6394 C.ar    1  UNL1        0.0083
     22 C         -66.0112  -47.7181  -32.4257 C.ar    1  UNL1        0.0906
     23 C         -65.6343  -48.2816  -31.1976 C.ar    1  UNL1        0.1041
     24 N         -65.0720  -47.5081  -30.2319 N.ar    1  UNL1       -0.2292
     25 C         -66.5870  -48.5758  -33.5236 C.3     1  UNL1        0.4200
     26 F         -65.7049  -48.6651  -34.5866 F       1  UNL1       -0.1658
     27 F         -66.8284  -49.8445  -33.0307 F       1  UNL1       -0.1658
     28 F         -67.7746  -48.0395  -33.9903 F       1  UNL1       -0.1658
     29 C         -62.7774  -40.0378  -20.0678 C.3     1  UNL1        0.1535
     30 C         -63.7182  -38.8633  -19.9065 C.2     1  UNL1        0.2443
     31 O         -63.3472  -37.8562  -19.2446 O.2     1  UNL1       -0.2730
     32 N         -64.9770  -38.8080  -20.5980 N.am    1  UNL1       -0.2825
     33 H         -65.3764  -37.8657  -20.8091 H       1  UNL1        0.1549
     34 C         -65.6532  -39.9567  -21.1266 C.ar    1  UNL1        0.0535
     35 C         -66.1849  -40.9349  -20.2739 C.ar    1  UNL1        0.0353
     36 C         -66.8485  -42.0354  -20.8213 C.ar    1  UNL1        0.1002
     37 N         -66.9939  -42.1428  -22.1689 N.ar    1  UNL1       -0.2422
     38 C         -66.5098  -41.1951  -23.0155 C.ar    1  UNL1        0.1002
     39 C         -65.8396  -40.0790  -22.5083 C.ar    1  UNL1        0.0353
     40 C         -62.9414  -41.0051  -18.8853 C.3     1  UNL1        0.0569
     41 C         -63.4477  -42.3391  -19.3495 C.ar    1  UNL1       -0.0017
     42 C         -62.9194  -43.1179  -20.3746 C.ar    1  UNL1        0.0681
     43 N         -63.5667  -44.3034  -20.4470 N.ar    1  UNL1       -0.3523
     44 C         -64.4865  -44.2853  -19.4665 C.ar    1  UNL1        0.0563
     45 C         -65.3734  -45.3038  -19.1201 C.ar    1  UNL1        0.0170
     46 C         -66.2338  -45.0834  -18.0287 C.ar    1  UNL1        0.0015
     47 C         -66.1865  -43.8655  -17.3141 C.ar    1  UNL1        0.0001
     48 C         -65.2791  -42.8571  -17.6846 C.ar    1  UNL1        0.0012
     49 C         -64.4419  -43.1037  -18.7728 C.ar    1  UNL1        0.0131
     50 H         -63.3696  -45.0831  -21.1131 H       1  UNL1        0.1660
@<TRIPOS>BOND
     1     1     2    2
     2     2     3   am
     3     3    29    1
     4    29    40    1
     5    40    41    1
     6    41    42   ar
     7    42    43   ar
     8    43    44   ar
     9    44    45   ar
    10    45    46   ar
    11    46    47   ar
    12    47    48   ar
    13    48    49   ar
    14    29    30    1
    15    30    31    2
    16    30    32   am
    17    32    34    1
    18    34    35   ar
    19    35    36   ar
    20    36    37   ar
    21    37    38   ar
    22    38    39   ar
    23     2     5    1
    24     5     6   ar
    25     6     7    1
    26     6     8   ar
    27     8     9   ar
    28     9    13    1
    29    13    14    1
    30    14    15    1
    31    15    16    1
    32    16    19    1
    33    19    20   ar
    34    20    21   ar
    35    21    22   ar
    36    22    25    1
    37    25    26    1
    38    25    27    1
    39    25    28    1
    40    22    23   ar
    41    23    24   ar
    42    16    17    1
    43    17    18    1
    44     9    10   ar
    45    10    11   ar
    46    11    12    1
    47    49    41   ar
    48    39    34   ar
    49    11     5   ar
    50    49    44   ar
    51    18    13    1
    52    24    19   ar
    53     3     4    1
    54    43    50    1
    55    32    33    1
