@<TRIPOS>MOLECULE
*****
 54 60 0 0 0
SMALL
GASTEIGER

@<TRIPOS>ATOM
      1 C          59.4540   87.3396   10.3040 C.ar    1  UNL1        0.0481
      2 C          60.1202   87.6965   11.4877 C.ar    1  UNL1        0.0176
      3 C          60.0993   86.8457   12.5967 C.ar    1  UNL1        0.0382
      4 C          59.4099   85.6189   12.5382 C.ar    1  UNL1        0.1388
      5 C          58.7394   85.2712   11.3602 C.ar    1  UNL1        0.0382
      6 C          58.7606   86.1212   10.2513 C.ar    1  UNL1        0.0176
      7 N          60.0042   89.6706    6.8561 N.pl3   1  UNL1       -0.3041
      8 C          59.5554   88.2816    6.7015 C.3     1  UNL1        0.1122
      9 C          58.7553   87.8447    7.9310 C.3     1  UNL1        0.1122
     10 N          59.4707   88.2128    9.1588 N.pl3   1  UNL1       -0.3041
     11 C          59.9094   89.6060    9.3054 C.3     1  UNL1        0.1122
     12 C          60.7255   90.0253    8.0842 C.3     1  UNL1        0.1122
     13 C          60.0450   92.2896    3.4979 C.ar    1  UNL1        0.0726
     14 C          58.8759   92.1053    4.2504 C.ar    1  UNL1        0.0191
     15 C          58.8647   91.2486    5.3504 C.ar    1  UNL1        0.0160
     16 C          60.0255   90.5614    5.7247 C.ar    1  UNL1        0.0481
     17 C          61.2053   90.7545    4.9892 C.ar    1  UNL1        0.0188
     18 C          61.2363   91.6242    3.8827 C.ar    1  UNL1        0.0522
     19 N          59.8296   93.8186    0.2239 N.ar    1  UNL1       -0.2024
     20 N          59.7298   94.8923    0.9948 N.ar    1  UNL1       -0.1442
     21 C          59.8193   94.4572    2.2712 C.ar    1  UNL1        0.2073
     22 N          59.9890   93.1190    2.3257 N.ar    1  UNL1       -0.2397
     23 C          59.9707   92.7499    1.0323 C.ar    1  UNL1        0.3522
     24 O          60.0433   91.5561    0.6333 O.2     1  UNL1       -0.2444
     25 C          59.7616   93.8561   -1.2415 C.3     1  UNL1        0.1099
     26 C          61.1325   93.5169   -1.8426 C.3     1  UNL1        0.0265
     27 C          57.2854   93.2294   -1.1252 C.3     1  UNL1        0.0021
     28 C          58.6467   92.9165   -1.7464 C.3     1  UNL1        0.0245
     29 C          62.5266   91.8747    3.1912 C.2     1  UNL1        0.1749
     30 C          63.6066   90.8372    3.1560 C.3     1  UNL1        0.0773
     31 O          62.7516   92.9997    2.6690 O.2     1  UNL1       -0.2913
     32 O          59.3563   84.7235   13.6190 O.3     1  UNL1       -0.4727
     33 C          60.0217   83.4613   13.6850 C.3     1  UNL1        0.2374
     34 C          59.5718   82.5413   12.5424 C.3     1  UNL1        0.1909
     35 C          59.6275   81.0864   12.9070 C.3     1  UNL1        0.1783
     36 O          60.0163   80.4175   11.7499 O.3     1  UNL1       -0.3271
     37 C          60.4997   81.4045   10.8547 C.3     1  UNL1        0.2232
     38 O          60.4280   82.6795   11.4570 O.3     1  UNL1       -0.3258
     39 C          59.6768   81.3576    9.5600 C.ar    1  UNL1        0.0404
     40 C          60.1270   82.1134    8.4552 C.ar    1  UNL1        0.0021
     41 C          59.4058   82.1479    7.2613 C.ar    1  UNL1        0.0113
     42 C          58.2086   81.4454    7.1466 C.ar    1  UNL1        0.0585
     43 CL         57.3017   81.4945    5.6457 Cl      1  UNL1       -0.0822
     44 C          57.7246   80.7153    8.2319 C.ar    1  UNL1        0.0226
     45 C          58.4348   80.6699    9.4387 C.ar    1  UNL1        0.0591
     46 CL         57.6883   79.7551   10.7477 Cl      1  UNL1       -0.0824
     47 C          61.9726   81.0755   10.5436 C.3     1  UNL1        0.1338
     48 N          62.8834   82.0311   11.2168 N.3     1  UNL1       -0.2659
     49 C          63.5863   81.4116   12.3546 C.3     1  UNL1        0.0896
     50 C          64.3494   82.4858   13.1567 C.3     1  UNL1        0.0862
     51 N          64.5981   83.7102   12.3762 N.3     1  UNL1       -0.2951
     52 C          64.9737   83.3927   10.9935 C.3     1  UNL1        0.0862
     53 C          63.8580   82.6093   10.2675 C.3     1  UNL1        0.0896
     54 H          63.7243   84.2879   12.3602 H       1  UNL1        0.1233
@<TRIPOS>BOND
     1    27    28    1
     2    28    25    1
     3    25    26    1
     4    25    19    1
     5    19    20   ar
     6    20    21   ar
     7    21    22   ar
     8    22    13    1
     9    13    14   ar
    10    14    15   ar
    11    15    16   ar
    12    16     7    1
    13     7     8    1
    14     8     9    1
    15     9    10    1
    16    10     1    1
    17     1     2   ar
    18     2     3   ar
    19     3     4   ar
    20     4    32    1
    21    32    33    1
    22    33    34    1
    23    34    35    1
    24    35    36    1
    25    36    37    1
    26    37    47    1
    27    47    48    1
    28    48    49    1
    29    49    50    1
    30    50    51    1
    31    51    52    1
    32    52    53    1
    33    37    39    1
    34    39    40   ar
    35    40    41   ar
    36    41    42   ar
    37    42    43    1
    38    42    44   ar
    39    44    45   ar
    40    45    46    1
    41    37    38    1
    42     4     5   ar
    43     5     6   ar
    44    10    11    1
    45    11    12    1
    46    16    17   ar
    47    17    18   ar
    48    18    29    1
    49    29    30    1
    50    29    31    2
    51    22    23   ar
    52    23    24    2
    53    23    19   ar
    54    18    13   ar
    55    12     7    1
    56     6     1   ar
    57    38    34    1
    58    53    48    1
    59    45    39   ar
    60    51    54    1
@<TRIPOS>MOLECULE
*****
 54 60 0 0 0
SMALL
GASTEIGER

@<TRIPOS>ATOM
      1 C          59.8668   87.6531   10.4093 C.ar    1  UNL1        0.0481
      2 C          60.9082   87.8071   11.3388 C.ar    1  UNL1        0.0176
      3 C          60.9697   86.9950   12.4750 C.ar    1  UNL1        0.0382
      4 C          59.9872   86.0112   12.6993 C.ar    1  UNL1        0.1388
      5 C          58.9458   85.8672   11.7757 C.ar    1  UNL1        0.0382
      6 C          58.8843   86.6785   10.6396 C.ar    1  UNL1        0.0176
      7 N          60.1452   89.8514    6.8435 N.pl3   1  UNL1       -0.3041
      8 C          59.6394   88.4746    6.7831 C.3     1  UNL1        0.1122
      9 C          58.9520   88.1059    8.1000 C.3     1  UNL1        0.1122
     10 N          59.7973   88.4879    9.2378 N.pl3   1  UNL1       -0.3041
     11 C          60.2923   89.8689    9.2910 C.3     1  UNL1        0.1122
     12 C          60.9959   90.2198    7.9814 C.3     1  UNL1        0.1122
     13 C          59.9368   92.3564    3.4056 C.ar    1  UNL1        0.0726
     14 C          58.8090   92.1511    4.2136 C.ar    1  UNL1        0.0191
     15 C          58.8794   91.3318    5.3396 C.ar    1  UNL1        0.0160
     16 C          60.0822   90.7040    5.6847 C.ar    1  UNL1        0.0481
     17 C          61.2210   90.9191    4.8928 C.ar    1  UNL1        0.0188
     18 C          61.1696   91.7520    3.7590 C.ar    1  UNL1        0.0522
     19 N          59.4541   93.7711    0.1087 N.ar    1  UNL1       -0.2024
     20 N          59.4816   94.8763    0.8401 N.ar    1  UNL1       -0.1442
     21 C          59.6824   94.4851    2.1180 C.ar    1  UNL1        0.2073
     22 N          59.7975   93.1433    2.2112 N.ar    1  UNL1       -0.2397
     23 C          59.6300   92.7277    0.9429 C.ar    1  UNL1        0.3522
     24 O          59.6083   91.5176    0.5890 O.2     1  UNL1       -0.2444
     25 C          59.2375   93.7572   -1.3426 C.3     1  UNL1        0.1099
     26 C          60.5794   93.6225   -2.0754 C.3     1  UNL1        0.0265
     27 C          56.7921   93.0144   -1.4194 C.3     1  UNL1        0.0021
     28 C          58.2432   92.6399   -1.7213 C.3     1  UNL1        0.0245
     29 C          62.4183   92.0302    3.0046 C.2     1  UNL1        0.1749
     30 C          63.5739   91.0775    3.0310 C.3     1  UNL1        0.0773
     31 O          62.5419   93.1134    2.3717 O.2     1  UNL1       -0.2913
     32 O          59.9986   85.1656   13.8206 O.3     1  UNL1       -0.4727
     33 C          61.1675   84.6506   14.4600 C.3     1  UNL1        0.2374
     34 C          61.8928   83.6461   13.5549 C.3     1  UNL1        0.1909
     35 C          63.0432   84.2565   12.8086 C.3     1  UNL1        0.1783
     36 O          63.0607   83.6377   11.5619 O.3     1  UNL1       -0.3271
     37 C          61.8196   82.9667   11.4254 C.3     1  UNL1        0.2232
     38 O          61.0265   83.1799   12.5740 O.3     1  UNL1       -0.3258
     39 C          62.0773   81.4703   11.2014 C.ar    1  UNL1        0.0404
     40 C          62.8544   81.0864   10.0865 C.ar    1  UNL1        0.0021
     41 C          63.0937   79.7418    9.8011 C.ar    1  UNL1        0.0113
     42 C          62.5480   78.7471   10.6091 C.ar    1  UNL1        0.0585
     43 CL         62.8468   77.0574   10.2449 Cl      1  UNL1       -0.0822
     44 C          61.7512   79.0968   11.6990 C.ar    1  UNL1        0.0226
     45 C          61.4994   80.4418   12.0002 C.ar    1  UNL1        0.0591
     46 CL         60.4347   80.7465   13.3719 Cl      1  UNL1       -0.0824
     47 C          61.0989   83.5569   10.1980 C.3     1  UNL1        0.1338
     48 N          60.1461   82.5796    9.6213 N.3     1  UNL1       -0.2659
     49 C          58.8614   82.5726   10.3439 C.3     1  UNL1        0.0896
     50 C          57.9849   81.3996    9.8587 C.3     1  UNL1        0.0862
     51 N          58.3882   80.8968    8.5341 N.3     1  UNL1       -0.2951
     52 C          58.7404   81.9989    7.6312 C.3     1  UNL1        0.0862
     53 C          59.9212   82.8287    8.1816 C.3     1  UNL1        0.0896
     54 H          59.2248   80.2762    8.6449 H       1  UNL1        0.1233
@<TRIPOS>BOND
     1    27    28    1
     2    28    25    1
     3    25    26    1
     4    25    19    1
     5    19    20   ar
     6    20    21   ar
     7    21    22   ar
     8    22    13    1
     9    13    14   ar
    10    14    15   ar
    11    15    16   ar
    12    16     7    1
    13     7     8    1
    14     8     9    1
    15     9    10    1
    16    10     1    1
    17     1     2   ar
    18     2     3   ar
    19     3     4   ar
    20     4    32    1
    21    32    33    1
    22    33    34    1
    23    34    35    1
    24    35    36    1
    25    36    37    1
    26    37    47    1
    27    47    48    1
    28    48    49    1
    29    49    50    1
    30    50    51    1
    31    51    52    1
    32    52    53    1
    33    37    39    1
    34    39    40   ar
    35    40    41   ar
    36    41    42   ar
    37    42    43    1
    38    42    44   ar
    39    44    45   ar
    40    45    46    1
    41    37    38    1
    42     4     5   ar
    43     5     6   ar
    44    10    11    1
    45    11    12    1
    46    16    17   ar
    47    17    18   ar
    48    18    29    1
    49    29    30    1
    50    29    31    2
    51    22    23   ar
    52    23    24    2
    53    23    19   ar
    54    18    13   ar
    55    12     7    1
    56     6     1   ar
    57    38    34    1
    58    53    48    1
    59    45    39   ar
    60    51    54    1
@<TRIPOS>MOLECULE
*****
 54 60 0 0 0
SMALL
GASTEIGER

@<TRIPOS>ATOM
      1 C          59.7697   87.9617   10.6645 C.ar    1  UNL1        0.0481
      2 C          60.6885   88.2602   11.6838 C.ar    1  UNL1        0.0176
      3 C          60.7190   87.4984   12.8556 C.ar    1  UNL1        0.0382
      4 C          59.8283   86.4209   13.0260 C.ar    1  UNL1        0.1388
      5 C          58.9079   86.1325   12.0121 C.ar    1  UNL1        0.0382
      6 C          58.8775   86.8934   10.8404 C.ar    1  UNL1        0.0176
      7 N          60.1218   89.9673    6.9932 N.pl3   1  UNL1       -0.3041
      8 C          59.5220   88.6276    7.0078 C.3     1  UNL1        0.1122
      9 C          58.8392   88.3689    8.3530 C.3     1  UNL1        0.1122
     10 N          59.7325   88.7440    9.4558 N.pl3   1  UNL1       -0.3041
     11 C          60.3218   90.0883    9.4340 C.3     1  UNL1        0.1122
     12 C          61.0197   90.3284    8.0967 C.3     1  UNL1        0.1122
     13 C          60.0130   92.3171    3.4430 C.ar    1  UNL1        0.0726
     14 C          58.8709   92.1739    4.2443 C.ar    1  UNL1        0.0191
     15 C          58.9088   91.4054    5.4070 C.ar    1  UNL1        0.0160
     16 C          60.0926   90.7674    5.7962 C.ar    1  UNL1        0.0481
     17 C          61.2456   90.9209    5.0107 C.ar    1  UNL1        0.0188
     18 C          61.2272   91.7022    3.8398 C.ar    1  UNL1        0.0522
     19 N          59.6027   93.5907    0.0794 N.ar    1  UNL1       -0.2024
     20 N          59.6477   94.7272    0.7602 N.ar    1  UNL1       -0.1442
     21 C          59.8242   94.3902    2.0570 C.ar    1  UNL1        0.2073
     22 N          59.9064   93.0518    2.2125 N.ar    1  UNL1       -0.2397
     23 C          59.7441   92.5826    0.9623 C.ar    1  UNL1        0.3522
     24 O          59.6979   91.3586    0.6633 O.2     1  UNL1       -0.2444
     25 C          59.4030   93.5156   -1.3724 C.3     1  UNL1        0.1099
     26 C          60.7348   93.2152   -2.0738 C.3     1  UNL1        0.0265
     27 C          56.9002   92.9960   -1.4358 C.3     1  UNL1        0.0021
     28 C          58.3123   92.4766   -1.7063 C.3     1  UNL1        0.0245
     29 C          62.4911   91.9179    3.0903 C.2     1  UNL1        0.1749
     30 C          63.5824   90.8918    3.0901 C.3     1  UNL1        0.0773
     31 O          62.6847   93.0067    2.4851 O.2     1  UNL1       -0.2913
     32 O          59.8143   85.6198   14.1796 O.3     1  UNL1       -0.4727
     33 C          60.9685   85.1365   14.8686 C.3     1  UNL1        0.2374
     34 C          61.7630   84.1585   13.9930 C.3     1  UNL1        0.1909
     35 C          63.1798   84.5976   13.7638 C.3     1  UNL1        0.1783
     36 O          63.4925   84.2141   12.4627 O.3     1  UNL1       -0.3271
     37 C          62.2663   83.8888   11.8306 C.3     1  UNL1        0.2232
     38 O          61.1936   84.0845   12.7279 O.3     1  UNL1       -0.3258
     39 C          62.3206   82.4347   11.3426 C.ar    1  UNL1        0.0404
     40 C          61.3469   81.5322   11.8240 C.ar    1  UNL1        0.0021
     41 C          61.3619   80.1873   11.4528 C.ar    1  UNL1        0.0113
     42 C          62.3592   79.7058   10.6081 C.ar    1  UNL1        0.0585
     43 CL         62.3781   78.0134   10.1469 Cl      1  UNL1       -0.0822
     44 C          63.3513   80.5682   10.1421 C.ar    1  UNL1        0.0226
     45 C          63.3527   81.9214   10.5051 C.ar    1  UNL1        0.0591
     46 CL         64.6907   82.8910    9.8909 Cl      1  UNL1       -0.0824
     47 C          62.0942   84.8330   10.6251 C.3     1  UNL1        0.1338
     48 N          61.5053   84.1164    9.4696 N.3     1  UNL1       -0.2659
     49 C          60.0438   83.9743    9.5980 C.3     1  UNL1        0.0896
     50 C          59.5017   83.0401    8.4966 C.3     1  UNL1        0.0862
     51 N          60.4202   82.9161    7.3516 N.3     1  UNL1       -0.2951
     52 C          61.0260   84.2092    7.0129 C.3     1  UNL1        0.0862
     53 C          61.8440   84.7795    8.1925 C.3     1  UNL1        0.0896
     54 H          61.1849   82.2442    7.5988 H       1  UNL1        0.1233
@<TRIPOS>BOND
     1    27    28    1
     2    28    25    1
     3    25    26    1
     4    25    19    1
     5    19    20   ar
     6    20    21   ar
     7    21    22   ar
     8    22    13    1
     9    13    14   ar
    10    14    15   ar
    11    15    16   ar
    12    16     7    1
    13     7     8    1
    14     8     9    1
    15     9    10    1
    16    10     1    1
    17     1     2   ar
    18     2     3   ar
    19     3     4   ar
    20     4    32    1
    21    32    33    1
    22    33    34    1
    23    34    35    1
    24    35    36    1
    25    36    37    1
    26    37    47    1
    27    47    48    1
    28    48    49    1
    29    49    50    1
    30    50    51    1
    31    51    52    1
    32    52    53    1
    33    37    39    1
    34    39    40   ar
    35    40    41   ar
    36    41    42   ar
    37    42    43    1
    38    42    44   ar
    39    44    45   ar
    40    45    46    1
    41    37    38    1
    42     4     5   ar
    43     5     6   ar
    44    10    11    1
    45    11    12    1
    46    16    17   ar
    47    17    18   ar
    48    18    29    1
    49    29    30    1
    50    29    31    2
    51    22    23   ar
    52    23    24    2
    53    23    19   ar
    54    18    13   ar
    55    12     7    1
    56     6     1   ar
    57    38    34    1
    58    53    48    1
    59    45    39   ar
    60    51    54    1
@<TRIPOS>MOLECULE
*****
 54 60 0 0 0
SMALL
GASTEIGER

@<TRIPOS>ATOM
      1 C          59.4368   86.2052   10.3875 C.ar    1  UNL1        0.0481
      2 C          58.4223   85.4711   11.0232 C.ar    1  UNL1        0.0176
      3 C          57.5590   84.6629   10.2777 C.ar    1  UNL1        0.0382
      4 C          57.6987   84.5750    8.8790 C.ar    1  UNL1        0.1388
      5 C          58.7047   85.3153    8.2481 C.ar    1  UNL1        0.0382
      6 C          59.5681   86.1228    8.9931 C.ar    1  UNL1        0.0176
      7 N          62.4180   88.5201   12.2256 N.pl3   1  UNL1       -0.3041
      8 C          61.6876   89.0898   11.0868 C.3     1  UNL1        0.1122
      9 C          60.2762   88.5018   11.0165 C.3     1  UNL1        0.1122
     10 N          60.3281   87.0408   11.1501 N.pl3   1  UNL1       -0.3041
     11 C          61.0559   86.4824   12.2961 C.3     1  UNL1        0.1122
     12 C          62.4700   87.0580   12.3444 C.3     1  UNL1        0.1122
     13 C          65.0401   90.9433   14.5473 C.ar    1  UNL1        0.0726
     14 C          64.5174   89.7498   15.0665 C.ar    1  UNL1        0.0191
     15 C          63.6603   88.9570   14.3044 C.ar    1  UNL1        0.0160
     16 C          63.3115   89.3388   13.0034 C.ar    1  UNL1        0.0481
     17 C          63.8451   90.5218   12.4686 C.ar    1  UNL1        0.0188
     18 C          64.7205   91.3279   13.2207 C.ar    1  UNL1        0.0522
     19 N          67.5699   92.8750   16.2714 N.ar    1  UNL1       -0.2024
     20 N          66.4795   93.3040   16.8913 N.ar    1  UNL1       -0.1442
     21 C          65.4404   92.6323   16.3476 C.ar    1  UNL1        0.2073
     22 N          65.8544   91.7684   15.3965 N.ar    1  UNL1       -0.2397
     23 C          67.1854   91.9598   15.3602 C.ar    1  UNL1        0.3522
     24 O          67.9646   91.3810   14.5554 O.2     1  UNL1       -0.2444
     25 C          68.9207   93.3723   16.5566 C.3     1  UNL1        0.1099
     26 C          69.9424   92.2355   16.4164 C.3     1  UNL1        0.0265
     27 C          70.7475   94.8564   15.5575 C.3     1  UNL1        0.0021
     28 C          69.2475   94.5754   15.6475 C.3     1  UNL1        0.0245
     29 C          65.3385   92.5192   12.5846 C.2     1  UNL1        0.1749
     30 C          66.0304   92.4247   11.2594 C.3     1  UNL1        0.0773
     31 O          65.3373   93.6256   13.1886 O.2     1  UNL1       -0.2913
     32 O          56.8630   83.7784    8.0791 O.3     1  UNL1       -0.4727
     33 C          57.2463   82.5657    7.4289 C.3     1  UNL1        0.2374
     34 C          58.6911   82.1861    7.7791 C.3     1  UNL1        0.1909
     35 C          59.1397   80.9173    7.1144 C.3     1  UNL1        0.1783
     36 O          59.9695   80.2787    8.0316 O.3     1  UNL1       -0.3271
     37 C          59.7650   80.9210    9.2785 C.3     1  UNL1        0.2232
     38 O          58.8006   81.9433    9.1426 O.3     1  UNL1       -0.3258
     39 C          61.1013   81.4847    9.7807 C.ar    1  UNL1        0.0404
     40 C          61.2338   82.8860    9.8952 C.ar    1  UNL1        0.0021
     41 C          62.4336   83.4671   10.3068 C.ar    1  UNL1        0.0113
     42 C          63.5360   82.6663   10.5955 C.ar    1  UNL1        0.0585
     43 CL         65.0446   83.4001   11.1082 Cl      1  UNL1       -0.0822
     44 C          63.4428   81.2812   10.4614 C.ar    1  UNL1        0.0226
     45 C          62.2464   80.6803   10.0485 C.ar    1  UNL1        0.0591
     46 CL         62.2771   78.9269    9.8689 Cl      1  UNL1       -0.0824
     47 C          59.2435   79.8642   10.2713 C.3     1  UNL1        0.1338
     48 N          59.4564   80.3005   11.6712 N.3     1  UNL1       -0.2659
     49 C          58.6737   81.5066   11.9959 C.3     1  UNL1        0.0896
     50 C          59.0870   82.0524   13.3782 C.3     1  UNL1        0.0862
     51 N          59.7536   81.0395   14.2147 N.3     1  UNL1       -0.2951
     52 C          59.1036   79.7302   14.0844 C.3     1  UNL1        0.0862
     53 C          59.1465   79.2172   12.6282 C.3     1  UNL1        0.0896
     54 H          60.7516   80.9482   13.9097 H       1  UNL1        0.1233
@<TRIPOS>BOND
     1    27    28    1
     2    28    25    1
     3    25    26    1
     4    25    19    1
     5    19    20   ar
     6    20    21   ar
     7    21    22   ar
     8    22    13    1
     9    13    14   ar
    10    14    15   ar
    11    15    16   ar
    12    16     7    1
    13     7     8    1
    14     8     9    1
    15     9    10    1
    16    10     1    1
    17     1     2   ar
    18     2     3   ar
    19     3     4   ar
    20     4    32    1
    21    32    33    1
    22    33    34    1
    23    34    35    1
    24    35    36    1
    25    36    37    1
    26    37    47    1
    27    47    48    1
    28    48    49    1
    29    49    50    1
    30    50    51    1
    31    51    52    1
    32    52    53    1
    33    37    39    1
    34    39    40   ar
    35    40    41   ar
    36    41    42   ar
    37    42    43    1
    38    42    44   ar
    39    44    45   ar
    40    45    46    1
    41    37    38    1
    42     4     5   ar
    43     5     6   ar
    44    10    11    1
    45    11    12    1
    46    16    17   ar
    47    17    18   ar
    48    18    29    1
    49    29    30    1
    50    29    31    2
    51    22    23   ar
    52    23    24    2
    53    23    19   ar
    54    18    13   ar
    55    12     7    1
    56     6     1   ar
    57    38    34    1
    58    53    48    1
    59    45    39   ar
    60    51    54    1
@<TRIPOS>MOLECULE
*****
 54 60 0 0 0
SMALL
GASTEIGER

@<TRIPOS>ATOM
      1 C          60.3906   85.5883    9.1735 C.ar    1  UNL1        0.0481
      2 C          60.9558   84.6308    8.3157 C.ar    1  UNL1        0.0176
      3 C          60.1534   83.6566    7.7143 C.ar    1  UNL1        0.0382
      4 C          58.7673   83.6260    7.9617 C.ar    1  UNL1        0.1388
      5 C          58.2093   84.5759    8.8245 C.ar    1  UNL1        0.0382
      6 C          59.0109   85.5501    9.4253 C.ar    1  UNL1        0.0176
      7 N          62.3898   88.5473   11.3808 N.pl3   1  UNL1       -0.3041
      8 C          62.4929   87.1510   11.8219 C.3     1  UNL1        0.1122
      9 C          62.3623   86.2073   10.6240 C.3     1  UNL1        0.1122
     10 N          61.2123   86.5932    9.7972 N.pl3   1  UNL1       -0.3041
     11 C          61.1227   87.9907    9.3568 C.3     1  UNL1        0.1122
     12 C          61.2316   88.9235   10.5614 C.3     1  UNL1        0.1122
     13 C          64.8237   91.5519   13.1657 C.ar    1  UNL1        0.0726
     14 C          64.8073   91.3741   11.7746 C.ar    1  UNL1        0.0191
     15 C          64.0087   90.3909   11.1919 C.ar    1  UNL1        0.0160
     16 C          63.2047   89.5672   11.9887 C.ar    1  UNL1        0.0481
     17 C          63.2000   89.7508   13.3803 C.ar    1  UNL1        0.0188
     18 C          63.9920   90.7461   13.9835 C.ar    1  UNL1        0.0522
     19 N          67.3961   93.4819   14.8275 N.ar    1  UNL1       -0.2024
     20 N          66.8416   94.4223   14.0757 N.ar    1  UNL1       -0.1442
     21 C          65.8298   93.8290   13.4043 C.ar    1  UNL1        0.2073
     22 N          65.7217   92.5229   13.7279 N.ar    1  UNL1       -0.2397
     23 C          66.7263   92.3346   14.6024 C.ar    1  UNL1        0.3522
     24 O          67.0206   91.2219   15.1174 O.2     1  UNL1       -0.2444
     25 C          68.5502   93.7120   15.7042 C.3     1  UNL1        0.1099
     26 C          68.4420   92.8365   16.9602 C.3     1  UNL1        0.0265
     27 C          69.8145   92.2160   14.0606 C.3     1  UNL1        0.0021
     28 C          69.8628   93.4731   14.9292 C.3     1  UNL1        0.0245
     29 C          63.8852   90.9715   15.4476 C.2     1  UNL1        0.1749
     30 C          63.4876   89.8681   16.3794 C.3     1  UNL1        0.0773
     31 O          64.0747   92.1243   15.9213 O.2     1  UNL1       -0.2913
     32 O          57.9119   82.6732    7.3845 O.3     1  UNL1       -0.4727
     33 C          57.5422   81.4251    7.9727 C.3     1  UNL1        0.2374
     34 C          58.5055   81.0430    9.1042 C.3     1  UNL1        0.1909
     35 C          57.9677   79.9550    9.9872 C.3     1  UNL1        0.1783
     36 O          58.4057   80.2560   11.2737 O.3     1  UNL1       -0.3271
     37 C          58.8692   81.5951   11.2407 C.3     1  UNL1        0.2232
     38 O          58.7054   82.1310    9.9447 O.3     1  UNL1       -0.3258
     39 C          60.3419   81.6299   11.6713 C.ar    1  UNL1        0.0404
     40 C          61.2639   82.3060   10.8424 C.ar    1  UNL1        0.0021
     41 C          62.6236   82.3421   11.1532 C.ar    1  UNL1        0.0113
     42 C          63.0996   81.6887   12.2874 C.ar    1  UNL1        0.0585
     43 CL         64.8104   81.7319   12.6730 Cl      1  UNL1       -0.0822
     44 C          62.2160   80.9874   13.1075 C.ar    1  UNL1        0.0226
     45 C          60.8476   80.9396   12.8105 C.ar    1  UNL1        0.0591
     46 CL         59.8481   79.9766   13.8974 Cl      1  UNL1       -0.0824
     47 C          58.0201   82.4107   12.2349 C.3     1  UNL1        0.1338
     48 N          58.4802   83.8179   12.2959 N.3     1  UNL1       -0.2659
     49 C          57.3727   84.7460   12.5867 C.3     1  UNL1        0.0896
     50 C          57.8456   86.2054   12.4251 C.3     1  UNL1        0.0862
     51 N          59.3101   86.3420   12.5059 N.3     1  UNL1       -0.2951
     52 C          59.8680   85.4802   13.5546 C.3     1  UNL1        0.0862
     53 C          59.5643   83.9898   13.2861 C.3     1  UNL1        0.0896
     54 H          59.7299   86.0637   11.5873 H       1  UNL1        0.1233
@<TRIPOS>BOND
     1    27    28    1
     2    28    25    1
     3    25    26    1
     4    25    19    1
     5    19    20   ar
     6    20    21   ar
     7    21    22   ar
     8    22    13    1
     9    13    14   ar
    10    14    15   ar
    11    15    16   ar
    12    16     7    1
    13     7     8    1
    14     8     9    1
    15     9    10    1
    16    10     1    1
    17     1     2   ar
    18     2     3   ar
    19     3     4   ar
    20     4    32    1
    21    32    33    1
    22    33    34    1
    23    34    35    1
    24    35    36    1
    25    36    37    1
    26    37    47    1
    27    47    48    1
    28    48    49    1
    29    49    50    1
    30    50    51    1
    31    51    52    1
    32    52    53    1
    33    37    39    1
    34    39    40   ar
    35    40    41   ar
    36    41    42   ar
    37    42    43    1
    38    42    44   ar
    39    44    45   ar
    40    45    46    1
    41    37    38    1
    42     4     5   ar
    43     5     6   ar
    44    10    11    1
    45    11    12    1
    46    16    17   ar
    47    17    18   ar
    48    18    29    1
    49    29    30    1
    50    29    31    2
    51    22    23   ar
    52    23    24    2
    53    23    19   ar
    54    18    13   ar
    55    12     7    1
    56     6     1   ar
    57    38    34    1
    58    53    48    1
    59    45    39   ar
    60    51    54    1
@<TRIPOS>MOLECULE
*****
 54 60 0 0 0
SMALL
GASTEIGER

@<TRIPOS>ATOM
      1 C          59.5241   86.1316   10.0526 C.ar    1  UNL1        0.0481
      2 C          58.4021   85.6259   10.7290 C.ar    1  UNL1        0.0176
      3 C          57.5830   84.6674   10.1250 C.ar    1  UNL1        0.0382
      4 C          57.8757   84.1970    8.8302 C.ar    1  UNL1        0.1388
      5 C          58.9891   84.7102    8.1556 C.ar    1  UNL1        0.0382
      6 C          59.8084   85.6679    8.7593 C.ar    1  UNL1        0.0176
      7 N          62.3911   88.8307   11.5083 N.pl3   1  UNL1       -0.3041
      8 C          61.6937   89.1526   10.2574 C.3     1  UNL1        0.1122
      9 C          60.2970   88.5266   10.2548 C.3     1  UNL1        0.1122
     10 N          60.3706   87.1203   10.6691 N.pl3   1  UNL1       -0.3041
     11 C          61.0651   86.8108   11.9248 C.3     1  UNL1        0.1122
     12 C          62.4654   87.4205   11.9084 C.3     1  UNL1        0.1122
     13 C          64.9241   91.7021   13.3730 C.ar    1  UNL1        0.0726
     14 C          64.9217   91.5446   11.9793 C.ar    1  UNL1        0.0191
     15 C          64.0907   90.6051   11.3705 C.ar    1  UNL1        0.0160
     16 C          63.2396   89.8059   12.1431 C.ar    1  UNL1        0.0481
     17 C          63.2213   89.9700   13.5370 C.ar    1  UNL1        0.0188
     18 C          64.0460   90.9216   14.1664 C.ar    1  UNL1        0.0522
     19 N          67.5826   93.4939   15.0540 N.ar    1  UNL1       -0.2024
     20 N          67.0060   94.4883   14.3938 N.ar    1  UNL1       -0.1442
     21 C          65.9613   93.9501   13.7264 C.ar    1  UNL1        0.2073
     22 N          65.8543   92.6253   13.9626 N.ar    1  UNL1       -0.2397
     23 C          66.8929   92.3697   14.7783 C.ar    1  UNL1        0.3522
     24 O          67.1979   91.2218   15.2016 O.2     1  UNL1       -0.2444
     25 C          68.7746   93.6545   15.8946 C.3     1  UNL1        0.1099
     26 C          68.7532   92.6346   17.0415 C.3     1  UNL1        0.0265
     27 C          70.0500   92.3172   14.1274 C.3     1  UNL1        0.0021
     28 C          70.0507   93.5482   15.0338 C.3     1  UNL1        0.0245
     29 C          63.9263   91.1309   15.6319 C.2     1  UNL1        0.1749
     30 C          63.4752   90.0304   16.5425 C.3     1  UNL1        0.0773
     31 O          64.1509   92.2694   16.1244 O.2     1  UNL1       -0.2913
     32 O          57.0909   83.2341    8.1746 O.3     1  UNL1       -0.4727
     33 C          57.5794   82.0328    7.5758 C.3     1  UNL1        0.2374
     34 C          58.3540   81.1857    8.5941 C.3     1  UNL1        0.1909
     35 C          57.7235   81.1877    9.9562 C.3     1  UNL1        0.1783
     36 O          58.7778   81.1631   10.8648 O.3     1  UNL1       -0.3271
     37 C          59.9504   81.4771   10.1331 C.3     1  UNL1        0.2232
     38 O          59.6263   81.7124    8.7790 O.3     1  UNL1       -0.3258
     39 C          60.9537   80.3236   10.2690 C.ar    1  UNL1        0.0404
     40 C          61.7036   79.9536    9.1309 C.ar    1  UNL1        0.0021
     41 C          62.6036   78.8883    9.1736 C.ar    1  UNL1        0.0113
     42 C          62.7634   78.1540   10.3464 C.ar    1  UNL1        0.0585
     43 CL         63.8923   76.8122   10.3956 Cl      1  UNL1       -0.0822
     44 C          62.0133   78.4780   11.4767 C.ar    1  UNL1        0.0226
     45 C          61.1042   79.5438   11.4519 C.ar    1  UNL1        0.0591
     46 CL         60.1816   79.8149   12.9294 Cl      1  UNL1       -0.0824
     47 C          60.5522   82.7602   10.7381 C.3     1  UNL1        0.1338
     48 N          62.0236   82.6451   10.8702 N.3     1  UNL1       -0.2659
     49 C          62.7308   83.5306    9.9278 C.3     1  UNL1        0.0896
     50 C          64.2424   83.2233    9.9420 C.3     1  UNL1        0.0862
     51 N          64.6697   82.5211   11.1644 N.3     1  UNL1       -0.2951
     52 C          63.9992   83.0638   12.3518 C.3     1  UNL1        0.0862
     53 C          62.4648   82.9158   12.2549 C.3     1  UNL1        0.0896
     54 H          64.4251   81.5061   11.0780 H       1  UNL1        0.1233
@<TRIPOS>BOND
     1    27    28    1
     2    28    25    1
     3    25    26    1
     4    25    19    1
     5    19    20   ar
     6    20    21   ar
     7    21    22   ar
     8    22    13    1
     9    13    14   ar
    10    14    15   ar
    11    15    16   ar
    12    16     7    1
    13     7     8    1
    14     8     9    1
    15     9    10    1
    16    10     1    1
    17     1     2   ar
    18     2     3   ar
    19     3     4   ar
    20     4    32    1
    21    32    33    1
    22    33    34    1
    23    34    35    1
    24    35    36    1
    25    36    37    1
    26    37    47    1
    27    47    48    1
    28    48    49    1
    29    49    50    1
    30    50    51    1
    31    51    52    1
    32    52    53    1
    33    37    39    1
    34    39    40   ar
    35    40    41   ar
    36    41    42   ar
    37    42    43    1
    38    42    44   ar
    39    44    45   ar
    40    45    46    1
    41    37    38    1
    42     4     5   ar
    43     5     6   ar
    44    10    11    1
    45    11    12    1
    46    16    17   ar
    47    17    18   ar
    48    18    29    1
    49    29    30    1
    50    29    31    2
    51    22    23   ar
    52    23    24    2
    53    23    19   ar
    54    18    13   ar
    55    12     7    1
    56     6     1   ar
    57    38    34    1
    58    53    48    1
    59    45    39   ar
    60    51    54    1
@<TRIPOS>MOLECULE
*****
 54 60 0 0 0
SMALL
GASTEIGER

@<TRIPOS>ATOM
      1 C          60.1982   83.8333   12.8576 C.ar    1  UNL1        0.0481
      2 C          60.5596   82.5159   13.1831 C.ar    1  UNL1        0.0176
      3 C          59.7590   81.4420   12.7827 C.ar    1  UNL1        0.0382
      4 C          58.5805   81.6702   12.0462 C.ar    1  UNL1        0.1388
      5 C          58.2187   82.9850   11.7320 C.ar    1  UNL1        0.0382
      6 C          59.0190   84.0586   12.1315 C.ar    1  UNL1        0.0176
      7 N          62.5763   87.2284   13.5228 N.pl3   1  UNL1       -0.3041
      8 C          61.1205   87.3956   13.4365 C.3     1  UNL1        0.1122
      9 C          60.4135   86.1211   13.9038 C.3     1  UNL1        0.1122
     10 N          61.0180   84.9437   13.2687 N.pl3   1  UNL1       -0.3041
     11 C          62.4739   84.7836   13.3666 C.3     1  UNL1        0.1122
     12 C          63.1705   86.0518   12.8773 C.3     1  UNL1        0.1122
     13 C          65.0392   90.4724   14.7673 C.ar    1  UNL1        0.0726
     14 C          64.9376   89.3090   15.5441 C.ar    1  UNL1        0.0191
     15 C          64.1320   88.2475   15.1344 C.ar    1  UNL1        0.0160
     16 C          63.4141   88.3248   13.9350 C.ar    1  UNL1        0.0481
     17 C          63.5249   89.4773   13.1415 C.ar    1  UNL1        0.0188
     18 C          64.3424   90.5535   13.5353 C.ar    1  UNL1        0.0522
     19 N          67.4063   93.0993   15.5419 N.ar    1  UNL1       -0.2024
     20 N          66.3946   93.4531   16.3220 N.ar    1  UNL1       -0.1442
     21 C          65.4297   92.5239   16.1431 C.ar    1  UNL1        0.2073
     22 N          65.8173   91.5720   15.2678 N.ar    1  UNL1       -0.2397
     23 C          67.0468   91.9722   14.8969 C.ar    1  UNL1        0.3522
     24 O          67.7545   91.3855   14.0339 O.2     1  UNL1       -0.2444
     25 C          68.6551   93.8614   15.4279 C.3     1  UNL1        0.1099
     26 C          68.7863   94.8390   16.6039 C.3     1  UNL1        0.0265
     27 C          70.0632   92.0718   16.5908 C.3     1  UNL1        0.0021
     28 C          69.8572   92.8999   15.3225 C.3     1  UNL1        0.0245
     29 C          64.5077   91.7127   12.6217 C.2     1  UNL1        0.1749
     30 C          64.2033   91.6025   11.1591 C.3     1  UNL1        0.0773
     31 O          64.9671   92.8004   13.0634 O.2     1  UNL1       -0.2913
     32 O          57.7389   80.6316   11.6153 O.3     1  UNL1       -0.4727
     33 C          57.5693   80.2081   10.2617 C.3     1  UNL1        0.2374
     34 C          57.8965   81.3447    9.2842 C.3     1  UNL1        0.1909
     35 C          58.0238   80.8757    7.8641 C.3     1  UNL1        0.1783
     36 O          59.0335   81.6476    7.2963 O.3     1  UNL1       -0.3271
     37 C          59.7071   82.2852    8.3681 C.3     1  UNL1        0.2232
     38 O          59.1308   81.8997    9.5982 O.3     1  UNL1       -0.3258
     39 C          59.6344   83.8062    8.1760 C.ar    1  UNL1        0.0404
     40 C          60.8164   84.4910    7.8180 C.ar    1  UNL1        0.0021
     41 C          60.8303   85.8780    7.6667 C.ar    1  UNL1        0.0113
     42 C          59.6708   86.6175    7.8875 C.ar    1  UNL1        0.0585
     43 CL         59.6926   88.3616    7.7010 Cl      1  UNL1       -0.0822
     44 C          58.4967   85.9704    8.2719 C.ar    1  UNL1        0.0226
     45 C          58.4643   84.5786    8.4296 C.ar    1  UNL1        0.0591
     46 CL         56.9332   83.8915    8.9692 Cl      1  UNL1       -0.0824
     47 C          61.1787   81.8294    8.3356 C.3     1  UNL1        0.1338
     48 N          61.5923   81.2773    9.6470 N.3     1  UNL1       -0.2659
     49 C          61.9446   79.8490    9.5554 C.3     1  UNL1        0.0896
     50 C          62.1549   79.2618   10.9663 C.3     1  UNL1        0.0862
     51 N          62.4322   80.2957   11.9783 N.3     1  UNL1       -0.2951
     52 C          63.3298   81.3299   11.4503 C.3     1  UNL1        0.0862
     53 C          62.7153   82.0445   10.2266 C.3     1  UNL1        0.0896
     54 H          61.5304   80.7486   12.2593 H       1  UNL1        0.1233
@<TRIPOS>BOND
     1    27    28    1
     2    28    25    1
     3    25    26    1
     4    25    19    1
     5    19    20   ar
     6    20    21   ar
     7    21    22   ar
     8    22    13    1
     9    13    14   ar
    10    14    15   ar
    11    15    16   ar
    12    16     7    1
    13     7     8    1
    14     8     9    1
    15     9    10    1
    16    10     1    1
    17     1     2   ar
    18     2     3   ar
    19     3     4   ar
    20     4    32    1
    21    32    33    1
    22    33    34    1
    23    34    35    1
    24    35    36    1
    25    36    37    1
    26    37    47    1
    27    47    48    1
    28    48    49    1
    29    49    50    1
    30    50    51    1
    31    51    52    1
    32    52    53    1
    33    37    39    1
    34    39    40   ar
    35    40    41   ar
    36    41    42   ar
    37    42    43    1
    38    42    44   ar
    39    44    45   ar
    40    45    46    1
    41    37    38    1
    42     4     5   ar
    43     5     6   ar
    44    10    11    1
    45    11    12    1
    46    16    17   ar
    47    17    18   ar
    48    18    29    1
    49    29    30    1
    50    29    31    2
    51    22    23   ar
    52    23    24    2
    53    23    19   ar
    54    18    13   ar
    55    12     7    1
    56     6     1   ar
    57    38    34    1
    58    53    48    1
    59    45    39   ar
    60    51    54    1
@<TRIPOS>MOLECULE
*****
 54 60 0 0 0
SMALL
GASTEIGER

@<TRIPOS>ATOM
      1 C          61.0751   85.5918   10.1972 C.ar    1  UNL1        0.0481
      2 C          62.3341   85.0520   10.5069 C.ar    1  UNL1        0.0176
      3 C          62.4570   84.0502   11.4741 C.ar    1  UNL1        0.0382
      4 C          61.3176   83.5696   12.1482 C.ar    1  UNL1        0.1388
      5 C          60.0661   84.1165   11.8436 C.ar    1  UNL1        0.0382
      6 C          59.9428   85.1176   10.8764 C.ar    1  UNL1        0.0176
      7 N          60.1782   88.6860    7.5053 N.pl3   1  UNL1       -0.3041
      8 C          60.6086   89.0385    8.8638 C.3     1  UNL1        0.1122
      9 C          61.5293   87.9523    9.4251 C.3     1  UNL1        0.1122
     10 N          60.9424   86.6252    9.2029 N.pl3   1  UNL1       -0.3041
     11 C          60.5212   86.2812    7.8394 C.3     1  UNL1        0.1122
     12 C          59.5854   87.3596    7.2967 C.3     1  UNL1        0.1122
     13 C          59.7982   91.7101    4.5308 C.ar    1  UNL1        0.0726
     14 C          61.0241   91.0627    4.7438 C.ar    1  UNL1        0.0191
     15 C          61.1462   90.0719    5.7171 C.ar    1  UNL1        0.0160
     16 C          60.0423   89.7033    6.4952 C.ar    1  UNL1        0.0481
     17 C          58.8068   90.3322    6.2758 C.ar    1  UNL1        0.0188
     18 C          58.6639   91.3267    5.2898 C.ar    1  UNL1        0.0522
     19 N          59.5203   93.9351    1.6889 N.ar    1  UNL1       -0.2024
     20 N          59.5328   94.8154    2.6799 N.ar    1  UNL1       -0.1442
     21 C          59.6575   94.1044    3.8225 C.ar    1  UNL1        0.2073
     22 N          59.7389   92.7801    3.5733 N.ar    1  UNL1       -0.2397
     23 C          59.6298   92.7079    2.2346 C.ar    1  UNL1        0.3522
     24 O          59.6010   91.6298    1.5813 O.2     1  UNL1       -0.2444
     25 C          59.3804   94.2996    0.2744 C.3     1  UNL1        0.1099
     26 C          60.7230   94.1299   -0.4499 C.3     1  UNL1        0.0265
     27 C          57.2570   94.3460   -1.1493 C.3     1  UNL1        0.0021
     28 C          58.2497   93.4766   -0.3775 C.3     1  UNL1        0.0245
     29 C          57.3191   91.8981    5.0236 C.2     1  UNL1        0.1749
     30 C          56.1539   91.0220    4.6792 C.3     1  UNL1        0.0773
     31 O          57.1552   93.1480    5.0284 O.2     1  UNL1       -0.2913
     32 O          61.3797   82.5638   13.1266 O.3     1  UNL1       -0.4727
     33 C          62.3042   82.5201   14.2146 C.3     1  UNL1        0.2374
     34 C          62.7477   83.9327   14.6172 C.3     1  UNL1        0.1909
     35 C          62.8431   84.1139   16.1041 C.3     1  UNL1        0.1783
     36 O          62.4307   85.4191   16.3568 O.3     1  UNL1       -0.3271
     37 C          61.8015   85.8813   15.1738 C.3     1  UNL1        0.2232
     38 O          61.8070   84.8637   14.1948 O.3     1  UNL1       -0.3258
     39 C          62.5301   87.1354   14.6718 C.ar    1  UNL1        0.0404
     40 C          62.7323   87.2783   13.2814 C.ar    1  UNL1        0.0021
     41 C          63.4222   88.3734   12.7605 C.ar    1  UNL1        0.0113
     42 C          63.9438   89.3424   13.6143 C.ar    1  UNL1        0.0585
     43 CL         64.8147   90.7158   12.9564 Cl      1  UNL1       -0.0822
     44 C          63.7856   89.2109   14.9937 C.ar    1  UNL1        0.0226
     45 C          63.0966   88.1174   15.5347 C.ar    1  UNL1        0.0591
     46 CL         63.0129   88.0430   17.2940 Cl      1  UNL1       -0.0824
     47 C          60.3436   86.2357   15.5248 C.3     1  UNL1        0.1338
     48 N          59.6158   86.7301   14.3325 N.3     1  UNL1       -0.2659
     49 C          58.2743   86.1299   14.2197 C.3     1  UNL1        0.0896
     50 C          57.6403   86.4965   12.8620 C.3     1  UNL1        0.0862
     51 N          58.2578   87.6841   12.2469 N.3     1  UNL1       -0.2951
     52 C          58.5408   88.7168   13.2506 C.3     1  UNL1        0.0862
     53 C          59.5174   88.2051   14.3323 C.3     1  UNL1        0.0896
     54 H          59.1597   87.4037   11.7936 H       1  UNL1        0.1233
@<TRIPOS>BOND
     1    27    28    1
     2    28    25    1
     3    25    26    1
     4    25    19    1
     5    19    20   ar
     6    20    21   ar
     7    21    22   ar
     8    22    13    1
     9    13    14   ar
    10    14    15   ar
    11    15    16   ar
    12    16     7    1
    13     7     8    1
    14     8     9    1
    15     9    10    1
    16    10     1    1
    17     1     2   ar
    18     2     3   ar
    19     3     4   ar
    20     4    32    1
    21    32    33    1
    22    33    34    1
    23    34    35    1
    24    35    36    1
    25    36    37    1
    26    37    47    1
    27    47    48    1
    28    48    49    1
    29    49    50    1
    30    50    51    1
    31    51    52    1
    32    52    53    1
    33    37    39    1
    34    39    40   ar
    35    40    41   ar
    36    41    42   ar
    37    42    43    1
    38    42    44   ar
    39    44    45   ar
    40    45    46    1
    41    37    38    1
    42     4     5   ar
    43     5     6   ar
    44    10    11    1
    45    11    12    1
    46    16    17   ar
    47    17    18   ar
    48    18    29    1
    49    29    30    1
    50    29    31    2
    51    22    23   ar
    52    23    24    2
    53    23    19   ar
    54    18    13   ar
    55    12     7    1
    56     6     1   ar
    57    38    34    1
    58    53    48    1
    59    45    39   ar
    60    51    54    1
@<TRIPOS>MOLECULE
*****
 54 60 0 0 0
SMALL
GASTEIGER

@<TRIPOS>ATOM
      1 C          60.6890   86.4992   10.8391 C.ar    1  UNL1        0.0481
      2 C          61.9124   86.1924   11.4566 C.ar    1  UNL1        0.0176
      3 C          61.9538   85.3354   12.5603 C.ar    1  UNL1        0.0382
      4 C          60.7672   84.7685   13.0646 C.ar    1  UNL1        0.1388
      5 C          59.5491   85.0841   12.4525 C.ar    1  UNL1        0.0382
      6 C          59.5074   85.9403   11.3489 C.ar    1  UNL1        0.0176
      7 N          60.0338   89.2072    7.6987 N.pl3   1  UNL1       -0.3041
      8 C          60.4348   89.7337    9.0090 C.3     1  UNL1        0.1122
      9 C          61.2825   88.7015    9.7565 C.3     1  UNL1        0.1122
     10 N          60.6400   87.3828    9.7028 N.pl3   1  UNL1       -0.3041
     11 C          60.2488   86.8636    8.3867 C.3     1  UNL1        0.1122
     12 C          59.3850   87.8913    7.6582 C.3     1  UNL1        0.1122
     13 C          59.8962   91.7861    4.3122 C.ar    1  UNL1        0.0726
     14 C          61.1220   91.3245    4.8137 C.ar    1  UNL1        0.0191
     15 C          61.1651   90.4791    5.9216 C.ar    1  UNL1        0.0160
     16 C          59.9814   90.0727    6.5489 C.ar    1  UNL1        0.0481
     17 C          58.7491   90.5141    6.0422 C.ar    1  UNL1        0.0188
     18 C          58.6876   91.3590    4.9178 C.ar    1  UNL1        0.0522
     19 N          59.8831   93.6067    1.1835 N.ar    1  UNL1       -0.2024
     20 N          59.6914   94.6015    2.0384 N.ar    1  UNL1       -0.1442
     21 C          59.6971   94.0521    3.2731 C.ar    1  UNL1        0.2073
     22 N          59.9038   92.7191    3.2193 N.ar    1  UNL1       -0.2397
     23 C          59.9954   92.4713    1.9003 C.ar    1  UNL1        0.3522
     24 O          60.1354   91.3217    1.4016 O.2     1  UNL1       -0.2444
     25 C          59.9256   93.7783   -0.2733 C.3     1  UNL1        0.1099
     26 C          61.3683   93.6419   -0.7791 C.3     1  UNL1        0.0265
     27 C          57.5034   93.2253   -0.8774 C.3     1  UNL1        0.0021
     28 C          58.9644   92.7820   -0.9545 C.3     1  UNL1        0.0245
     29 C          57.3627   91.7246    4.3552 C.2     1  UNL1        0.1749
     30 C          56.0895   91.3321    5.0400 C.3     1  UNL1        0.0773
     31 O          57.2939   92.3276    3.2503 O.2     1  UNL1       -0.2913
     32 O          60.7476   83.8998   14.1681 O.3     1  UNL1       -0.4727
     33 C          61.0389   82.5020   14.1294 C.3     1  UNL1        0.2374
     34 C          60.3219   81.8226   12.9553 C.3     1  UNL1        0.1909
     35 C          60.1391   80.3465   13.1571 C.3     1  UNL1        0.1783
     36 O          60.2880   79.7680   11.8999 O.3     1  UNL1       -0.3271
     37 C          60.8620   80.7583   11.0638 C.3     1  UNL1        0.2232
     38 O          61.0849   81.9422   11.8004 O.3     1  UNL1       -0.3258
     39 C          59.9287   81.0156    9.8728 C.ar    1  UNL1        0.0404
     40 C          60.4079   80.7297    8.5754 C.ar    1  UNL1        0.0021
     41 C          59.6272   80.9777    7.4460 C.ar    1  UNL1        0.0113
     42 C          58.3577   81.5345    7.5814 C.ar    1  UNL1        0.0585
     43 CL         57.3804   81.8493    6.1591 Cl      1  UNL1       -0.0822
     44 C          57.8712   81.8552    8.8485 C.ar    1  UNL1        0.0226
     45 C          58.6415   81.6142    9.9938 C.ar    1  UNL1        0.0591
     46 CL         57.9322   82.1134   11.5285 Cl      1  UNL1       -0.0824
     47 C          62.2128   80.2185   10.5554 C.3     1  UNL1        0.1338
     48 N          63.2829   81.2308   10.7154 N.3     1  UNL1       -0.2659
     49 C          62.8870   82.5403   10.1668 C.3     1  UNL1        0.0896
     50 C          64.0960   83.4984   10.1528 C.3     1  UNL1        0.0862
     51 N          65.1601   83.0865   11.0845 N.3     1  UNL1       -0.2951
     52 C          64.5998   82.5976   12.3497 C.3     1  UNL1        0.0862
     53 C          63.6875   81.3708   12.1304 C.3     1  UNL1        0.0896
     54 H          65.7174   82.3152   10.6464 H       1  UNL1        0.1233
@<TRIPOS>BOND
     1    27    28    1
     2    28    25    1
     3    25    26    1
     4    25    19    1
     5    19    20   ar
     6    20    21   ar
     7    21    22   ar
     8    22    13    1
     9    13    14   ar
    10    14    15   ar
    11    15    16   ar
    12    16     7    1
    13     7     8    1
    14     8     9    1
    15     9    10    1
    16    10     1    1
    17     1     2   ar
    18     2     3   ar
    19     3     4   ar
    20     4    32    1
    21    32    33    1
    22    33    34    1
    23    34    35    1
    24    35    36    1
    25    36    37    1
    26    37    47    1
    27    47    48    1
    28    48    49    1
    29    49    50    1
    30    50    51    1
    31    51    52    1
    32    52    53    1
    33    37    39    1
    34    39    40   ar
    35    40    41   ar
    36    41    42   ar
    37    42    43    1
    38    42    44   ar
    39    44    45   ar
    40    45    46    1
    41    37    38    1
    42     4     5   ar
    43     5     6   ar
    44    10    11    1
    45    11    12    1
    46    16    17   ar
    47    17    18   ar
    48    18    29    1
    49    29    30    1
    50    29    31    2
    51    22    23   ar
    52    23    24    2
    53    23    19   ar
    54    18    13   ar
    55    12     7    1
    56     6     1   ar
    57    38    34    1
    58    53    48    1
    59    45    39   ar
    60    51    54    1
