@<TRIPOS>MOLECULE
*****
 37 42 0 0 0
SMALL
GASTEIGER

@<TRIPOS>ATOM
      1 C          49.3961   11.4609  -25.9434 C.ar    1  UNL1        0.1095
      2 N          49.5213   10.5192  -26.9124 N.ar    1  UNL1       -0.1677
      3 N          50.8146   10.3472  -27.1595 N.ar    1  UNL1       -0.2319
      4 C          51.3484    9.3437  -28.0705 C.3     1  UNL1        0.1554
      5 C          51.5120   11.1375  -26.3298 C.ar    1  UNL1        0.1654
      6 N          52.8574   11.1777  -26.1767 N.ar    1  UNL1       -0.2050
      7 C          53.3717   12.0215  -25.2343 C.ar    1  UNL1        0.2014
      8 N          52.5435   12.8224  -24.4923 N.ar    1  UNL1       -0.2089
      9 C          51.1853   12.7890  -24.6435 C.ar    1  UNL1        0.1379
     10 C          50.6650   11.8789  -25.5661 C.ar    1  UNL1        0.0865
     11 C          46.8946   12.0040  -25.7925 C.ar    1  UNL1        0.0809
     12 C          48.1300   11.7181  -25.2447 C.ar    1  UNL1        0.0577
     13 C          47.9215   11.7029  -23.8780 C.ar    1  UNL1        0.1231
     14 N          46.6249   11.9679  -23.6220 N.ar    1  UNL1       -0.1676
     15 N          46.0116   12.1498  -24.7821 N.ar    1  UNL1       -0.2488
     16 C          44.5983   12.4912  -24.8997 C.3     1  UNL1        0.1537
     17 C          45.7443   13.0543  -31.3616 C.3     1  UNL1        0.0310
     18 C          46.0183   12.7813  -29.9126 C.ar    1  UNL1       -0.0218
     19 C          46.0903   13.8406  -28.9947 C.ar    1  UNL1       -0.0042
     20 C          46.3794   13.5896  -27.6501 C.ar    1  UNL1        0.0012
     21 C          46.6115   12.2789  -27.2118 C.ar    1  UNL1        0.0174
     22 C          46.5627   11.2223  -28.1318 C.ar    1  UNL1        0.0012
     23 C          46.2725   11.4721  -29.4757 C.ar    1  UNL1       -0.0042
     24 N          50.3703   13.7681  -23.9813 N.pl3   1  UNL1       -0.2933
     25 C          50.2828   13.8419  -22.5321 C.3     1  UNL1        0.0936
     26 C          49.2634   14.9375  -22.2461 C.3     1  UNL1        0.0391
     27 C          49.3372   15.8494  -23.4822 C.3     1  UNL1        0.0773
     28 C          49.7412   14.9151  -24.6428 C.3     1  UNL1        0.0887
     29 N          48.1215   16.6565  -23.7810 N.3     1  UNL1       -0.2724
     30 C          47.1432   16.0345  -24.6997 C.3     1  UNL1        0.0721
     31 C          46.1159   17.0798  -25.1403 C.3     1  UNL1        0.0174
     32 C          45.3958   17.6597  -23.9187 C.3     1  UNL1        0.0029
     33 C          46.4024   18.1847  -22.8894 C.3     1  UNL1        0.0174
     34 C          47.4479   17.1152  -22.5489 C.3     1  UNL1        0.0721
     35 C          50.6621   15.5753  -25.7168 C.3     1  UNL1        0.0195
     36 C          51.1480   16.9911  -25.3552 C.3     1  UNL1        0.0017
     37 C          49.9945   15.5792  -27.0988 C.3     1  UNL1        0.0017
@<TRIPOS>BOND
     1    17    18    1
     2    18    19   ar
     3    19    20   ar
     4    20    21   ar
     5    21    11    1
     6    11    12   ar
     7    12     1    1
     8     1     2   ar
     9     2     3   ar
    10     3     4    1
    11     3     5   ar
    12     5     6   ar
    13     6     7   ar
    14     7     8   ar
    15     8     9   ar
    16     9    24    1
    17    24    25    1
    18    25    26    1
    19    26    27    1
    20    27    29    1
    21    29    30    1
    22    30    31    1
    23    31    32    1
    24    32    33    1
    25    33    34    1
    26    27    28    1
    27    28    35    1
    28    35    36    1
    29    35    37    1
    30     9    10   ar
    31    12    13   ar
    32    13    14   ar
    33    14    15   ar
    34    15    16    1
    35    21    22   ar
    36    22    23   ar
    37    23    18   ar
    38    15    11   ar
    39    10     1   ar
    40    10     5   ar
    41    28    24    1
    42    34    29    1
@<TRIPOS>MOLECULE
*****
 37 42 0 0 0
SMALL
GASTEIGER

@<TRIPOS>ATOM
      1 C          48.2974   11.6663  -25.4145 C.ar    1  UNL1        0.1095
      2 N          48.1807   11.6375  -26.7662 N.ar    1  UNL1       -0.1677
      3 N          46.9116   11.8725  -27.0783 N.ar    1  UNL1       -0.2319
      4 C          46.4164   12.0193  -28.4403 C.3     1  UNL1        0.1554
      5 C          46.2309   12.0915  -25.9434 C.ar    1  UNL1        0.1654
      6 N          44.9384   12.4801  -25.8269 N.ar    1  UNL1       -0.2050
      7 C          44.4447   12.7014  -24.5731 C.ar    1  UNL1        0.2014
      8 N          45.2337   12.5030  -23.4704 N.ar    1  UNL1       -0.2089
      9 C          46.5379   12.1083  -23.5806 C.ar    1  UNL1        0.1379
     10 C          47.0515   11.9439  -24.8687 C.ar    1  UNL1        0.0865
     11 C          50.4164   12.7897  -24.5073 C.ar    1  UNL1        0.0809
     12 C          49.5965   11.7005  -24.7300 C.ar    1  UNL1        0.0577
     13 C          50.2526   10.6324  -24.1468 C.ar    1  UNL1        0.1231
     14 N          51.4087   11.0624  -23.6032 N.ar    1  UNL1       -0.1676
     15 N          51.5014   12.3651  -23.8258 N.ar    1  UNL1       -0.2488
     16 C          52.6424   13.1728  -23.4093 C.3     1  UNL1        0.1537
     17 C          49.7693   18.1088  -26.6819 C.3     1  UNL1        0.0310
     18 C          49.9570   16.7260  -26.1324 C.ar    1  UNL1       -0.0218
     19 C          49.3932   15.6214  -26.7894 C.ar    1  UNL1       -0.0042
     20 C          49.5391   14.3361  -26.2591 C.ar    1  UNL1        0.0012
     21 C          50.2393   14.1433  -25.0606 C.ar    1  UNL1        0.0174
     22 C          50.7832   15.2484  -24.3911 C.ar    1  UNL1        0.0012
     23 C          50.6390   16.5333  -24.9211 C.ar    1  UNL1       -0.0042
     24 N          47.2719   11.7374  -22.4037 N.pl3   1  UNL1       -0.2933
     25 C          47.7041   10.3697  -22.1669 C.3     1  UNL1        0.0936
     26 C          48.3584   10.3873  -20.7910 C.3     1  UNL1        0.0391
     27 C          48.8488   11.8358  -20.6283 C.3     1  UNL1        0.0773
     28 C          47.8591   12.6863  -21.4531 C.3     1  UNL1        0.0887
     29 N          49.0120   12.3247  -19.2308 N.3     1  UNL1       -0.2724
     30 C          47.7604   12.6145  -18.4977 C.3     1  UNL1        0.0721
     31 C          48.0838   13.3764  -17.2105 C.3     1  UNL1        0.0174
     32 C          49.0293   12.5508  -16.3319 C.3     1  UNL1        0.0029
     33 C          50.2718   12.1218  -17.1195 C.3     1  UNL1        0.0174
     34 C          49.8788   11.4336  -18.4329 C.3     1  UNL1        0.0721
     35 C          48.4968   13.9281  -22.1522 C.3     1  UNL1        0.0195
     36 C          49.5465   14.6678  -21.3023 C.3     1  UNL1        0.0017
     37 C          47.4210   14.9082  -22.6398 C.3     1  UNL1        0.0017
@<TRIPOS>BOND
     1    17    18    1
     2    18    19   ar
     3    19    20   ar
     4    20    21   ar
     5    21    11    1
     6    11    12   ar
     7    12     1    1
     8     1     2   ar
     9     2     3   ar
    10     3     4    1
    11     3     5   ar
    12     5     6   ar
    13     6     7   ar
    14     7     8   ar
    15     8     9   ar
    16     9    24    1
    17    24    25    1
    18    25    26    1
    19    26    27    1
    20    27    29    1
    21    29    30    1
    22    30    31    1
    23    31    32    1
    24    32    33    1
    25    33    34    1
    26    27    28    1
    27    28    35    1
    28    35    36    1
    29    35    37    1
    30     9    10   ar
    31    12    13   ar
    32    13    14   ar
    33    14    15   ar
    34    15    16    1
    35    21    22   ar
    36    22    23   ar
    37    23    18   ar
    38    15    11   ar
    39    10     1   ar
    40    10     5   ar
    41    28    24    1
    42    34    29    1
@<TRIPOS>MOLECULE
*****
 37 42 0 0 0
SMALL
GASTEIGER

@<TRIPOS>ATOM
      1 C          48.7268   12.0681  -25.2704 C.ar    1  UNL1        0.1095
      2 N          48.5530   11.3175  -26.3875 N.ar    1  UNL1       -0.1677
      3 N          47.3777   11.6313  -26.9197 N.ar    1  UNL1       -0.2319
      4 C          46.8842   11.1044  -28.1849 C.3     1  UNL1        0.1554
      5 C          46.8233   12.6015  -26.1775 C.ar    1  UNL1        0.1654
      6 N          45.6825   13.2825  -26.4417 N.ar    1  UNL1       -0.2050
      7 C          45.3137   14.2764  -25.5810 C.ar    1  UNL1        0.2014
      8 N          46.0669   14.5475  -24.4688 N.ar    1  UNL1       -0.2089
      9 C          47.2177   13.8624  -24.1947 C.ar    1  UNL1        0.1379
     10 C          47.6191   12.8898  -25.1128 C.ar    1  UNL1        0.0865
     11 C          50.7984   13.2913  -24.3830 C.ar    1  UNL1        0.0809
     12 C          50.0161   12.1690  -24.5740 C.ar    1  UNL1        0.0577
     13 C          50.6988   11.1446  -23.9447 C.ar    1  UNL1        0.1231
     14 N          51.8342   11.6312  -23.4052 N.ar    1  UNL1       -0.1676
     15 N          51.8882   12.9270  -23.6749 N.ar    1  UNL1       -0.2488
     16 C          52.9981   13.7857  -23.2766 C.3     1  UNL1        0.1537
     17 C          50.0065   18.5091  -26.7471 C.3     1  UNL1        0.0310
     18 C          50.2352   17.1559  -26.1425 C.ar    1  UNL1       -0.0218
     19 C          50.0372   15.9965  -26.9082 C.ar    1  UNL1       -0.0042
     20 C          50.2173   14.7340  -26.3352 C.ar    1  UNL1        0.0012
     21 C          50.5850   14.6174  -24.9880 C.ar    1  UNL1        0.0174
     22 C          50.7606   15.7740  -24.2156 C.ar    1  UNL1        0.0012
     23 C          50.5821   17.0364  -24.7879 C.ar    1  UNL1       -0.0042
     24 N          47.8758   14.0511  -22.9326 N.pl3   1  UNL1       -0.2933
     25 C          48.1204   15.3749  -22.3839 C.3     1  UNL1        0.0936
     26 C          48.9057   15.1390  -21.0997 C.3     1  UNL1        0.0391
     27 C          48.4870   13.7264  -20.6591 C.3     1  UNL1        0.0773
     28 C          48.1569   12.9816  -21.9703 C.3     1  UNL1        0.0887
     29 N          49.4538   12.9892  -19.7986 N.3     1  UNL1       -0.2724
     30 C          50.8555   13.4586  -19.8536 C.3     1  UNL1        0.0721
     31 C          51.7659   12.4393  -19.1650 C.3     1  UNL1        0.0174
     32 C          51.3329   12.2444  -17.7083 C.3     1  UNL1        0.0029
     33 C          49.8438   11.8928  -17.6234 C.3     1  UNL1        0.0174
     34 C          48.9946   12.9095  -18.3969 C.3     1  UNL1        0.0721
     35 C          46.9915   11.9491  -21.8543 C.3     1  UNL1        0.0195
     36 C          46.0947   12.1377  -20.6168 C.3     1  UNL1        0.0017
     37 C          47.5144   10.5074  -21.9171 C.3     1  UNL1        0.0017
@<TRIPOS>BOND
     1    17    18    1
     2    18    19   ar
     3    19    20   ar
     4    20    21   ar
     5    21    11    1
     6    11    12   ar
     7    12     1    1
     8     1     2   ar
     9     2     3   ar
    10     3     4    1
    11     3     5   ar
    12     5     6   ar
    13     6     7   ar
    14     7     8   ar
    15     8     9   ar
    16     9    24    1
    17    24    25    1
    18    25    26    1
    19    26    27    1
    20    27    29    1
    21    29    30    1
    22    30    31    1
    23    31    32    1
    24    32    33    1
    25    33    34    1
    26    27    28    1
    27    28    35    1
    28    35    36    1
    29    35    37    1
    30     9    10   ar
    31    12    13   ar
    32    13    14   ar
    33    14    15   ar
    34    15    16    1
    35    21    22   ar
    36    22    23   ar
    37    23    18   ar
    38    15    11   ar
    39    10     1   ar
    40    10     5   ar
    41    28    24    1
    42    34    29    1
@<TRIPOS>MOLECULE
*****
 37 42 0 0 0
SMALL
GASTEIGER

@<TRIPOS>ATOM
      1 C          47.3963   15.9210  -24.7834 C.ar    1  UNL1        0.1095
      2 N          46.9290   17.1950  -24.7743 N.ar    1  UNL1       -0.1677
      3 N          47.8183   17.9678  -25.3868 N.ar    1  UNL1       -0.2319
      4 C          47.6212   19.3846  -25.6618 C.3     1  UNL1        0.1554
      5 C          48.8234   17.1928  -25.8211 C.ar    1  UNL1        0.1654
      6 N          49.8715   17.5688  -26.5926 N.ar    1  UNL1       -0.2050
      7 C          50.7661   16.6097  -26.9726 C.ar    1  UNL1        0.2014
      8 N          50.6152   15.3136  -26.5541 N.ar    1  UNL1       -0.2089
      9 C          49.5615   14.9278  -25.7733 C.ar    1  UNL1        0.1379
     10 C          48.6190   15.9030  -25.4407 C.ar    1  UNL1        0.0865
     11 C          45.9955   13.8270  -25.2610 C.ar    1  UNL1        0.0809
     12 C          46.5628   14.7667  -24.4224 C.ar    1  UNL1        0.0577
     13 C          46.1954   14.3781  -23.1474 C.ar    1  UNL1        0.1231
     14 N          45.4443   13.2614  -23.2210 N.ar    1  UNL1       -0.1676
     15 N          45.3267   12.9354  -24.4996 N.ar    1  UNL1       -0.2488
     16 C          44.5496   11.7942  -24.9704 C.3     1  UNL1        0.1537
     17 C          45.8512   13.9775  -31.0400 C.3     1  UNL1        0.0310
     18 C          45.8644   13.9334  -29.5410 C.ar    1  UNL1       -0.0218
     19 C          45.5504   15.0812  -28.7969 C.ar    1  UNL1       -0.0042
     20 C          45.5956   15.0497  -27.3999 C.ar    1  UNL1        0.0012
     21 C          45.9670   13.8745  -26.7330 C.ar    1  UNL1        0.0174
     22 C          46.3033   12.7339  -27.4754 C.ar    1  UNL1        0.0012
     23 C          46.2570   12.7640  -28.8717 C.ar    1  UNL1       -0.0042
     24 N          49.5387   13.6079  -25.2088 N.pl3   1  UNL1       -0.2933
     25 C          49.8010   12.4243  -26.0112 C.3     1  UNL1        0.0936
     26 C          49.5939   11.2454  -25.0685 C.3     1  UNL1        0.0391
     27 C          49.8823   11.8261  -23.6740 C.3     1  UNL1        0.0773
     28 C          49.4876   13.3152  -23.7733 C.3     1  UNL1        0.0887
     29 N          49.2421   11.1298  -22.5234 N.3     1  UNL1       -0.2724
     30 C          47.7885   10.8842  -22.6448 C.3     1  UNL1        0.0721
     31 C          47.2274   10.4426  -21.2912 C.3     1  UNL1        0.0174
     32 C          47.9380    9.1717  -20.8146 C.3     1  UNL1        0.0029
     33 C          49.4584    9.3627  -20.8157 C.3     1  UNL1        0.0174
     34 C          49.9461    9.8786  -22.1754 C.3     1  UNL1        0.0721
     35 C          50.3762   14.2798  -22.9262 C.3     1  UNL1        0.0195
     36 C          51.7971   13.7560  -22.6470 C.3     1  UNL1        0.0017
     37 C          49.6845   14.6668  -21.6119 C.3     1  UNL1        0.0017
@<TRIPOS>BOND
     1    17    18    1
     2    18    19   ar
     3    19    20   ar
     4    20    21   ar
     5    21    11    1
     6    11    12   ar
     7    12     1    1
     8     1     2   ar
     9     2     3   ar
    10     3     4    1
    11     3     5   ar
    12     5     6   ar
    13     6     7   ar
    14     7     8   ar
    15     8     9   ar
    16     9    24    1
    17    24    25    1
    18    25    26    1
    19    26    27    1
    20    27    29    1
    21    29    30    1
    22    30    31    1
    23    31    32    1
    24    32    33    1
    25    33    34    1
    26    27    28    1
    27    28    35    1
    28    35    36    1
    29    35    37    1
    30     9    10   ar
    31    12    13   ar
    32    13    14   ar
    33    14    15   ar
    34    15    16    1
    35    21    22   ar
    36    22    23   ar
    37    23    18   ar
    38    15    11   ar
    39    10     1   ar
    40    10     5   ar
    41    28    24    1
    42    34    29    1
@<TRIPOS>MOLECULE
*****
 37 42 0 0 0
SMALL
GASTEIGER

@<TRIPOS>ATOM
      1 C          48.8826   16.3340  -24.7486 C.ar    1  UNL1        0.1095
      2 N          49.5757   17.3595  -25.3047 N.ar    1  UNL1       -0.1677
      3 N          48.9881   17.6848  -26.4502 N.ar    1  UNL1       -0.2319
      4 C          49.3874   18.8094  -27.2854 C.3     1  UNL1        0.1554
      5 C          47.9069   16.9064  -26.6064 C.ar    1  UNL1        0.1654
      6 N          46.9698   16.9942  -27.5807 N.ar    1  UNL1       -0.2050
      7 C          45.9100   16.1345  -27.5319 C.ar    1  UNL1        0.2014
      8 N          45.8232   15.1938  -26.5392 N.ar    1  UNL1       -0.2089
      9 C          46.7666   15.0979  -25.5545 C.ar    1  UNL1        0.1379
     10 C          47.8142   16.0210  -25.5780 C.ar    1  UNL1        0.0865
     11 C          50.0146   14.9742  -22.8926 C.ar    1  UNL1        0.0809
     12 C          49.0946   15.8901  -23.3646 C.ar    1  UNL1        0.0577
     13 C          48.4155   16.3273  -22.2425 C.ar    1  UNL1        0.1231
     14 N          48.9053   15.7020  -21.1534 N.ar    1  UNL1       -0.1676
     15 N          49.8690   14.8860  -21.5537 N.ar    1  UNL1       -0.2488
     16 C          50.6109   14.0136  -20.6501 C.3     1  UNL1        0.1537
     17 C          53.4148   11.5431  -26.0718 C.3     1  UNL1        0.0310
     18 C          52.5169   12.4143  -25.2448 C.ar    1  UNL1       -0.0218
     19 C          51.4751   13.1333  -25.8510 C.ar    1  UNL1       -0.0042
     20 C          50.6591   13.9719  -25.0858 C.ar    1  UNL1        0.0012
     21 C          50.8839   14.1098  -23.7095 C.ar    1  UNL1        0.0174
     22 C          51.9385   13.4102  -23.1066 C.ar    1  UNL1        0.0012
     23 C          52.7537   12.5707  -23.8704 C.ar    1  UNL1       -0.0042
     24 N          46.7356   13.9885  -24.6437 N.pl3   1  UNL1       -0.2933
     25 C          45.8051   13.9359  -23.5281 C.3     1  UNL1        0.0936
     26 C          46.1553   12.6603  -22.7720 C.3     1  UNL1        0.0391
     27 C          46.7836   11.7517  -23.8419 C.3     1  UNL1        0.0773
     28 C          47.4386   12.7189  -24.8511 C.3     1  UNL1        0.0887
     29 N          47.7192   10.7021  -23.3503 N.3     1  UNL1       -0.2724
     30 C          49.1589   10.9737  -23.5540 C.3     1  UNL1        0.0721
     31 C          49.9654    9.7026  -23.2783 C.3     1  UNL1        0.0174
     32 C          49.7182    9.2213  -21.8449 C.3     1  UNL1        0.0029
     33 C          48.2183    9.0677  -21.5712 C.3     1  UNL1        0.0174
     34 C          47.4588   10.3484  -21.9400 C.3     1  UNL1        0.0721
     35 C          47.3933   12.2366  -26.3353 C.3     1  UNL1        0.0195
     36 C          46.0454   11.6292  -26.7664 C.3     1  UNL1        0.0017
     37 C          48.5380   11.2609  -26.6408 C.3     1  UNL1        0.0017
@<TRIPOS>BOND
     1    17    18    1
     2    18    19   ar
     3    19    20   ar
     4    20    21   ar
     5    21    11    1
     6    11    12   ar
     7    12     1    1
     8     1     2   ar
     9     2     3   ar
    10     3     4    1
    11     3     5   ar
    12     5     6   ar
    13     6     7   ar
    14     7     8   ar
    15     8     9   ar
    16     9    24    1
    17    24    25    1
    18    25    26    1
    19    26    27    1
    20    27    29    1
    21    29    30    1
    22    30    31    1
    23    31    32    1
    24    32    33    1
    25    33    34    1
    26    27    28    1
    27    28    35    1
    28    35    36    1
    29    35    37    1
    30     9    10   ar
    31    12    13   ar
    32    13    14   ar
    33    14    15   ar
    34    15    16    1
    35    21    22   ar
    36    22    23   ar
    37    23    18   ar
    38    15    11   ar
    39    10     1   ar
    40    10     5   ar
    41    28    24    1
    42    34    29    1
@<TRIPOS>MOLECULE
*****
 37 42 0 0 0
SMALL
GASTEIGER

@<TRIPOS>ATOM
      1 C          48.0360   12.5308  -25.4494 C.ar    1  UNL1        0.1095
      2 N          47.0668   12.4015  -26.3903 N.ar    1  UNL1       -0.1677
      3 N          47.1179   13.4623  -27.1874 N.ar    1  UNL1       -0.2319
      4 C          46.2965   13.6327  -28.3782 C.3     1  UNL1        0.1554
      5 C          48.1344   14.2416  -26.7889 C.ar    1  UNL1        0.1654
      6 N          48.5990   15.3567  -27.4020 N.ar    1  UNL1       -0.2050
      7 C          49.6855   15.9821  -26.8605 C.ar    1  UNL1        0.2014
      8 N          50.2618   15.5045  -25.7126 N.ar    1  UNL1       -0.2089
      9 C          49.7964   14.3814  -25.0873 C.ar    1  UNL1        0.1379
     10 C          48.7237   13.7141  -25.6823 C.ar    1  UNL1        0.0865
     11 C          49.5058   10.5678  -24.7002 C.ar    1  UNL1        0.0809
     12 C          48.4348   11.4294  -24.5633 C.ar    1  UNL1        0.0577
     13 C          47.8157   11.0481  -23.3874 C.ar    1  UNL1        0.1231
     14 N          48.4837   10.0087  -22.8487 N.ar    1  UNL1       -0.1676
     15 N          49.5016    9.7234  -23.6471 N.ar    1  UNL1       -0.2488
     16 C          50.4325    8.6272  -23.4029 C.3     1  UNL1        0.1537
     17 C          53.0400   10.1367  -29.2570 C.3     1  UNL1        0.0310
     18 C          52.1348   10.2291  -28.0648 C.ar    1  UNL1       -0.0218
     19 C          50.9583    9.4659  -28.0092 C.ar    1  UNL1       -0.0042
     20 C          50.0971    9.5772  -26.9135 C.ar    1  UNL1        0.0012
     21 C          50.3968   10.4613  -25.8684 C.ar    1  UNL1        0.0174
     22 C          51.5597   11.2413  -25.9334 C.ar    1  UNL1        0.0012
     23 C          52.4219   11.1297  -27.0275 C.ar    1  UNL1       -0.0042
     24 N          50.3093   14.0206  -23.7957 N.pl3   1  UNL1       -0.2933
     25 C          51.7148   13.7147  -23.5852 C.3     1  UNL1        0.0936
     26 C          51.8217   13.3016  -22.1225 C.3     1  UNL1        0.0391
     27 C          50.6456   14.0228  -21.4431 C.3     1  UNL1        0.0773
     28 C          49.5648   14.1418  -22.5388 C.3     1  UNL1        0.0887
     29 N          50.1340   13.4113  -20.1849 N.3     1  UNL1       -0.2724
     30 C          49.0376   12.4309  -20.3427 C.3     1  UNL1        0.0721
     31 C          48.4260   12.1199  -18.9748 C.3     1  UNL1        0.0174
     32 C          49.4976   11.5638  -18.0316 C.3     1  UNL1        0.0029
     33 C          50.7064   12.5031  -17.9638 C.3     1  UNL1        0.0174
     34 C          51.2229   12.8357  -19.3694 C.3     1  UNL1        0.0721
     35 C          48.7073   15.4445  -22.4656 C.3     1  UNL1        0.0195
     36 C          48.6676   16.1032  -21.0742 C.3     1  UNL1        0.0017
     37 C          47.2816   15.2044  -22.9809 C.3     1  UNL1        0.0017
@<TRIPOS>BOND
     1    17    18    1
     2    18    19   ar
     3    19    20   ar
     4    20    21   ar
     5    21    11    1
     6    11    12   ar
     7    12     1    1
     8     1     2   ar
     9     2     3   ar
    10     3     4    1
    11     3     5   ar
    12     5     6   ar
    13     6     7   ar
    14     7     8   ar
    15     8     9   ar
    16     9    24    1
    17    24    25    1
    18    25    26    1
    19    26    27    1
    20    27    29    1
    21    29    30    1
    22    30    31    1
    23    31    32    1
    24    32    33    1
    25    33    34    1
    26    27    28    1
    27    28    35    1
    28    35    36    1
    29    35    37    1
    30     9    10   ar
    31    12    13   ar
    32    13    14   ar
    33    14    15   ar
    34    15    16    1
    35    21    22   ar
    36    22    23   ar
    37    23    18   ar
    38    15    11   ar
    39    10     1   ar
    40    10     5   ar
    41    28    24    1
    42    34    29    1
@<TRIPOS>MOLECULE
*****
 37 42 0 0 0
SMALL
GASTEIGER

@<TRIPOS>ATOM
      1 C          49.6797   12.0631  -24.9091 C.ar    1  UNL1        0.1095
      2 N          50.4335   10.9793  -25.2233 N.ar    1  UNL1       -0.1677
      3 N          51.5991   11.0885  -24.5967 N.ar    1  UNL1       -0.2319
      4 C          52.6356   10.0652  -24.6100 C.3     1  UNL1        0.1554
      5 C          51.5774   12.2067  -23.8559 C.ar    1  UNL1        0.1654
      6 N          52.5205   12.6245  -22.9779 N.ar    1  UNL1       -0.2050
      7 C          52.2834   13.7732  -22.2788 C.ar    1  UNL1        0.2014
      8 N          51.1354   14.4910  -22.4900 N.ar    1  UNL1       -0.2089
      9 C          50.1808   14.0767  -23.3765 C.ar    1  UNL1        0.1379
     10 C          50.4040   12.8692  -24.0414 C.ar    1  UNL1        0.0865
     11 C          47.1813   12.1393  -24.3368 C.ar    1  UNL1        0.0809
     12 C          48.2461   12.1497  -25.2167 C.ar    1  UNL1        0.0577
     13 C          47.6753   12.2819  -26.4690 C.ar    1  UNL1        0.1231
     14 N          46.3348   12.3462  -26.3433 N.ar    1  UNL1       -0.1676
     15 N          46.0440   12.2583  -25.0538 N.ar    1  UNL1       -0.2488
     16 C          44.6805   12.2578  -24.5353 C.3     1  UNL1        0.1537
     17 C          47.4870   11.0755  -18.6609 C.3     1  UNL1        0.0310
     18 C          47.4294   11.3633  -20.1316 C.ar    1  UNL1       -0.0218
     19 C          46.8823   12.5698  -20.5953 C.ar    1  UNL1       -0.0042
     20 C          46.7974   12.8238  -21.9674 C.ar    1  UNL1        0.0012
     21 C          47.2470   11.8697  -22.8901 C.ar    1  UNL1        0.0174
     22 C          47.7724   10.6546  -22.4291 C.ar    1  UNL1        0.0012
     23 C          47.8589   10.4003  -21.0577 C.ar    1  UNL1       -0.0042
     24 N          49.0847   14.9455  -23.7010 N.pl3   1  UNL1       -0.2933
     25 C          48.2541   15.5513  -22.6732 C.3     1  UNL1        0.0936
     26 C          47.1719   16.3132  -23.4281 C.3     1  UNL1        0.0391
     27 C          47.8225   16.6447  -24.7815 C.3     1  UNL1        0.0773
     28 C          48.8238   15.4972  -25.0338 C.3     1  UNL1        0.0887
     29 N          46.8931   16.8678  -25.9239 N.3     1  UNL1       -0.2724
     30 C          46.4200   15.6507  -26.6187 C.3     1  UNL1        0.0721
     31 C          45.7286   16.0420  -27.9268 C.3     1  UNL1        0.0174
     32 C          44.5490   16.9770  -27.6410 C.3     1  UNL1        0.0029
     33 C          44.9950   18.1777  -26.7999 C.3     1  UNL1        0.0174
     34 C          45.7473   17.7194  -25.5441 C.3     1  UNL1        0.0721
     35 C          50.1276   15.9257  -25.7781 C.3     1  UNL1        0.0195
     36 C          50.6645   17.3116  -25.3750 C.3     1  UNL1        0.0017
     37 C          49.9535   15.8455  -27.3009 C.3     1  UNL1        0.0017
@<TRIPOS>BOND
     1    17    18    1
     2    18    19   ar
     3    19    20   ar
     4    20    21   ar
     5    21    11    1
     6    11    12   ar
     7    12     1    1
     8     1     2   ar
     9     2     3   ar
    10     3     4    1
    11     3     5   ar
    12     5     6   ar
    13     6     7   ar
    14     7     8   ar
    15     8     9   ar
    16     9    24    1
    17    24    25    1
    18    25    26    1
    19    26    27    1
    20    27    29    1
    21    29    30    1
    22    30    31    1
    23    31    32    1
    24    32    33    1
    25    33    34    1
    26    27    28    1
    27    28    35    1
    28    35    36    1
    29    35    37    1
    30     9    10   ar
    31    12    13   ar
    32    13    14   ar
    33    14    15   ar
    34    15    16    1
    35    21    22   ar
    36    22    23   ar
    37    23    18   ar
    38    15    11   ar
    39    10     1   ar
    40    10     5   ar
    41    28    24    1
    42    34    29    1
@<TRIPOS>MOLECULE
*****
 37 42 0 0 0
SMALL
GASTEIGER

@<TRIPOS>ATOM
      1 C          47.3188   11.9371  -23.5680 C.ar    1  UNL1        0.1095
      2 N          46.3054   11.9359  -22.6655 N.ar    1  UNL1       -0.1677
      3 N          46.8326   12.0125  -21.4492 N.ar    1  UNL1       -0.2319
      4 C          46.0534   12.1361  -20.2247 C.3     1  UNL1        0.1554
      5 C          48.1652   12.1048  -21.5714 C.ar    1  UNL1        0.1654
      6 N          49.0646   12.3172  -20.5809 N.ar    1  UNL1       -0.2050
      7 C          50.3816   12.4324  -20.9229 C.ar    1  UNL1        0.2014
      8 N          50.7741   12.3043  -22.2296 N.ar    1  UNL1       -0.2089
      9 C          49.8723   12.0873  -23.2337 C.ar    1  UNL1        0.1379
     10 C          48.5220   12.0321  -22.8820 C.ar    1  UNL1        0.0865
     11 C          47.0965   13.2973  -25.7303 C.ar    1  UNL1        0.0809
     12 C          47.0990   12.1194  -25.0088 C.ar    1  UNL1        0.0577
     13 C          46.8686   11.1262  -25.9426 C.ar    1  UNL1        0.1231
     14 N          46.7338   11.6839  -27.1623 N.ar    1  UNL1       -0.1676
     15 N          46.8712   12.9944  -27.0262 N.ar    1  UNL1       -0.2488
     16 C          46.7526   13.9348  -28.1351 C.3     1  UNL1        0.1537
     17 C          47.3167   18.6681  -23.5980 C.3     1  UNL1        0.0310
     18 C          47.2474   17.2838  -24.1708 C.ar    1  UNL1       -0.0218
     19 C          46.1267   16.4740  -23.9299 C.ar    1  UNL1       -0.0042
     20 C          46.0767   15.1714  -24.4351 C.ar    1  UNL1        0.0012
     21 C          47.1512   14.6609  -25.1757 C.ar    1  UNL1        0.0174
     22 C          48.2811   15.4605  -25.3976 C.ar    1  UNL1        0.0012
     23 C          48.3315   16.7631  -24.8941 C.ar    1  UNL1       -0.0042
     24 N          50.3388   11.7787  -24.5560 N.pl3   1  UNL1       -0.2933
     25 C          50.8750   12.8009  -25.4398 C.3     1  UNL1        0.0936
     26 C          51.1657   12.0850  -26.7529 C.3     1  UNL1        0.0391
     27 C          51.4079   10.6244  -26.3373 C.3     1  UNL1        0.0773
     28 C          50.5471   10.4224  -25.0719 C.3     1  UNL1        0.0887
     29 N          51.1598    9.5910  -27.3809 N.3     1  UNL1       -0.2724
     30 C          49.7711    9.4999  -27.8823 C.3     1  UNL1        0.0721
     31 C          49.6069    8.2236  -28.7107 C.3     1  UNL1        0.0174
     32 C          50.5912    8.2261  -29.8847 C.3     1  UNL1        0.0029
     33 C          52.0245    8.4597  -29.3954 C.3     1  UNL1        0.0174
     34 C          52.1055    9.7093  -28.5095 C.3     1  UNL1        0.0721
     35 C          51.1683    9.4596  -24.0114 C.3     1  UNL1        0.0195
     36 C          52.5428    8.8850  -24.4011 C.3     1  UNL1        0.0017
     37 C          50.1998    8.3242  -23.6527 C.3     1  UNL1        0.0017
@<TRIPOS>BOND
     1    17    18    1
     2    18    19   ar
     3    19    20   ar
     4    20    21   ar
     5    21    11    1
     6    11    12   ar
     7    12     1    1
     8     1     2   ar
     9     2     3   ar
    10     3     4    1
    11     3     5   ar
    12     5     6   ar
    13     6     7   ar
    14     7     8   ar
    15     8     9   ar
    16     9    24    1
    17    24    25    1
    18    25    26    1
    19    26    27    1
    20    27    29    1
    21    29    30    1
    22    30    31    1
    23    31    32    1
    24    32    33    1
    25    33    34    1
    26    27    28    1
    27    28    35    1
    28    35    36    1
    29    35    37    1
    30     9    10   ar
    31    12    13   ar
    32    13    14   ar
    33    14    15   ar
    34    15    16    1
    35    21    22   ar
    36    22    23   ar
    37    23    18   ar
    38    15    11   ar
    39    10     1   ar
    40    10     5   ar
    41    28    24    1
    42    34    29    1
@<TRIPOS>MOLECULE
*****
 37 42 0 0 0
SMALL
GASTEIGER

@<TRIPOS>ATOM
      1 C          50.2323   11.1211  -23.2218 C.ar    1  UNL1        0.1095
      2 N          50.2912    9.9391  -22.5579 N.ar    1  UNL1       -0.1677
      3 N          50.2196    8.9580  -23.4499 N.ar    1  UNL1       -0.2319
      4 C          50.3517    7.5442  -23.1252 C.3     1  UNL1        0.1554
      5 C          50.1586    9.5034  -24.6739 C.ar    1  UNL1        0.1654
      6 N          50.1920    8.8530  -25.8617 N.ar    1  UNL1       -0.2050
      7 C          50.1707    9.6005  -27.0042 C.ar    1  UNL1        0.2014
      8 N          50.0866   10.9667  -26.9394 N.ar    1  UNL1       -0.2089
      9 C          50.0497   11.6294  -25.7443 C.ar    1  UNL1        0.1379
     10 C          50.1338   10.8603  -24.5818 C.ar    1  UNL1        0.0865
     11 C          49.8143   13.0735  -21.6129 C.ar    1  UNL1        0.0809
     12 C          50.5386   12.4074  -22.5823 C.ar    1  UNL1        0.0577
     13 C          51.6432   13.2053  -22.8163 C.ar    1  UNL1        0.1231
     14 N          51.5810   14.2954  -22.0259 N.ar    1  UNL1       -0.1676
     15 N          50.4739   14.2097  -21.3035 N.ar    1  UNL1       -0.2488
     16 C          50.0525   15.2332  -20.3533 C.3     1  UNL1        0.1537
     17 C          44.5536   11.6865  -19.6526 C.3     1  UNL1        0.0310
     18 C          45.9136   12.0699  -20.1553 C.ar    1  UNL1       -0.0218
     19 C          46.0819   12.5035  -21.4795 C.ar    1  UNL1       -0.0042
     20 C          47.3545   12.8285  -21.9583 C.ar    1  UNL1        0.0012
     21 C          48.4732   12.7117  -21.1224 C.ar    1  UNL1        0.0174
     22 C          48.3098   12.2567  -19.8066 C.ar    1  UNL1        0.0012
     23 C          47.0379   11.9329  -19.3266 C.ar    1  UNL1       -0.0042
     24 N          49.7789   13.0392  -25.7193 N.pl3   1  UNL1       -0.2933
     25 C          50.7769   14.0204  -26.1122 C.3     1  UNL1        0.0936
     26 C          50.1293   15.3762  -25.8593 C.3     1  UNL1        0.0391
     27 C          48.6214   15.0986  -25.9782 C.3     1  UNL1        0.0773
     28 C          48.4504   13.6303  -25.5334 C.3     1  UNL1        0.0887
     29 N          47.7183   16.0353  -25.2531 N.3     1  UNL1       -0.2724
     30 C          47.8593   16.0585  -23.7809 C.3     1  UNL1        0.0721
     31 C          46.6878   16.8266  -23.1648 C.3     1  UNL1        0.0174
     32 C          46.6483   18.2570  -23.7123 C.3     1  UNL1        0.0029
     33 C          46.6427   18.2554  -25.2447 C.3     1  UNL1        0.0174
     34 C          47.7948   17.4065  -25.7971 C.3     1  UNL1        0.0721
     35 C          47.3288   12.8499  -26.2889 C.3     1  UNL1        0.0195
     36 C          46.6116   13.6646  -27.3812 C.3     1  UNL1        0.0017
     37 C          46.3059   12.2559  -25.3108 C.3     1  UNL1        0.0017
@<TRIPOS>BOND
     1    17    18    1
     2    18    19   ar
     3    19    20   ar
     4    20    21   ar
     5    21    11    1
     6    11    12   ar
     7    12     1    1
     8     1     2   ar
     9     2     3   ar
    10     3     4    1
    11     3     5   ar
    12     5     6   ar
    13     6     7   ar
    14     7     8   ar
    15     8     9   ar
    16     9    24    1
    17    24    25    1
    18    25    26    1
    19    26    27    1
    20    27    29    1
    21    29    30    1
    22    30    31    1
    23    31    32    1
    24    32    33    1
    25    33    34    1
    26    27    28    1
    27    28    35    1
    28    35    36    1
    29    35    37    1
    30     9    10   ar
    31    12    13   ar
    32    13    14   ar
    33    14    15   ar
    34    15    16    1
    35    21    22   ar
    36    22    23   ar
    37    23    18   ar
    38    15    11   ar
    39    10     1   ar
    40    10     5   ar
    41    28    24    1
    42    34    29    1
