@<TRIPOS>MOLECULE
*****
 38 42 0 0 0
SMALL
GASTEIGER

@<TRIPOS>ATOM
      1 C          49.9435   11.8019  -21.7211 C.2     1  UNL1        0.2506
      2 O          51.0910   12.0221  -22.1953 O.2     1  UNL1       -0.2699
      3 N          48.8722   11.3861  -22.5916 N.am    1  UNL1       -0.2680
      4 C          47.9061   10.3808  -22.1362 C.3     1  UNL1        0.1412
      5 C          46.5868   11.0516  -21.7603 C.3     1  UNL1        0.2268
      6 O          46.3288   12.1955  -22.5726 O.3     1  UNL1       -0.4739
      7 C          46.3650   12.1509  -23.9679 C.ar    1  UNL1        0.1362
      8 C          45.1799   12.4011  -24.6666 C.ar    1  UNL1        0.0366
      9 C          45.1509   12.3400  -26.0595 C.ar    1  UNL1        0.0031
     10 C          46.3145   12.0341  -26.7773 C.ar    1  UNL1        0.0008
     11 C          47.5149   11.8214  -26.0824 C.ar    1  UNL1        0.0004
     12 C          47.5583   11.8677  -24.6777 C.ar    1  UNL1        0.0317
     13 C          48.9205   11.7583  -24.0128 C.3     1  UNL1        0.1236
     14 C          46.2936   11.9917  -28.2564 C.ar    1  UNL1        0.0121
     15 C          46.5133   10.7512  -28.9134 C.ar    1  UNL1        0.0025
     16 C          46.5133   10.6676  -30.3167 C.ar    1  UNL1        0.0207
     17 C          46.2872   11.8358  -31.0352 C.ar    1  UNL1        0.0994
     18 N          46.2366   11.9791  -32.3717 N.ar    1  UNL1       -0.2241
     19 C          45.9773   13.3039  -32.5238 C.ar    1  UNL1        0.1750
     20 N          45.8665   13.9709  -31.3505 N.ar    1  UNL1       -0.3343
     21 C          46.0668   13.0297  -30.4182 C.ar    1  UNL1        0.0863
     22 C          46.0567   13.1618  -29.0278 C.ar    1  UNL1        0.0747
     23 CL         45.6931   14.7218  -28.2930 Cl      1  UNL1       -0.0807
     24 H          45.6698   14.9871  -31.2138 H       1  UNL1        0.1675
     25 C          49.0136   13.0656  -19.7430 C.ar    1  UNL1        0.0503
     26 C          48.7903   13.1240  -18.3519 C.ar    1  UNL1        0.0328
     27 C          49.2903   12.1305  -17.5014 C.ar    1  UNL1        0.1069
     28 C          50.0145   11.0608  -18.0347 C.ar    1  UNL1        0.0186
     29 C          50.2369   10.9810  -19.4086 C.ar    1  UNL1        0.0071
     30 C          49.7288   11.9630  -20.2708 C.ar    1  UNL1        0.0667
     31 S          48.9849   12.2213  -15.7697 S.O2    1  UNL1        0.0105
     32 C          50.5348   12.2182  -14.8983 C.3     1  UNL1        0.1816
     33 O          48.2310   13.4806  -15.4451 O.2     1  UNL1       -0.1686
     34 O          48.1605   11.0409  -15.3386 O.2     1  UNL1       -0.1686
     35 N          48.5568   14.1244  -20.6152 N.pl3   1  UNL1       -0.3325
     36 H          47.5317   14.2859  -20.7321 H       1  UNL1        0.1468
     37 C          48.7844   15.4489  -22.6690 C.3     1  UNL1        0.0229
     38 C          49.4367   15.0270  -21.3573 C.3     1  UNL1        0.0871
@<TRIPOS>BOND
     1    37    38    1
     2    38    35    1
     3    35    25    1
     4    25    26   ar
     5    26    27   ar
     6    27    31    1
     7    31    32    1
     8    31    33    2
     9    31    34    2
    10    27    28   ar
    11    28    29   ar
    12    29    30   ar
    13    30     1    1
    14     1     2    2
    15     1     3   am
    16     3     4    1
    17     4     5    1
    18     5     6    1
    19     6     7    1
    20     7     8   ar
    21     8     9   ar
    22     9    10   ar
    23    10    14    1
    24    14    15   ar
    25    15    16   ar
    26    16    17   ar
    27    17    18   ar
    28    18    19   ar
    29    19    20   ar
    30    20    21   ar
    31    21    22   ar
    32    22    23    1
    33    10    11   ar
    34    11    12   ar
    35    12    13    1
    36    30    25   ar
    37    13     3    1
    38    12     7   ar
    39    22    14   ar
    40    21    17   ar
    41    35    36    1
    42    20    24    1
@<TRIPOS>MOLECULE
*****
 38 42 0 0 0
SMALL
GASTEIGER

@<TRIPOS>ATOM
      1 C          49.4853   10.8725  -21.2805 C.2     1  UNL1        0.2506
      2 O          50.5318   10.3306  -21.7289 O.2     1  UNL1       -0.2699
      3 N          48.3383   11.0419  -22.1372 N.am    1  UNL1       -0.2680
      4 C          46.9875   10.8426  -21.6015 C.3     1  UNL1        0.1412
      5 C          46.3095   12.1911  -21.3694 C.3     1  UNL1        0.2268
      6 O          46.7265   13.1609  -22.3287 O.3     1  UNL1       -0.4739
      7 C          46.6784   12.9270  -23.7046 C.ar    1  UNL1        0.1362
      8 C          45.8280   13.7219  -24.4793 C.ar    1  UNL1        0.0366
      9 C          45.7172   13.5125  -25.8535 C.ar    1  UNL1        0.0031
     10 C          46.4651   12.5051  -26.4769 C.ar    1  UNL1        0.0008
     11 C          47.3495   11.7312  -25.7100 C.ar    1  UNL1        0.0004
     12 C          47.4640   11.9220  -24.3216 C.ar    1  UNL1        0.0317
     13 C          48.5389   11.1347  -23.5904 C.3     1  UNL1        0.1236
     14 C          46.3685   12.2951  -27.9385 C.ar    1  UNL1        0.0121
     15 C          46.5538   10.9868  -28.4605 C.ar    1  UNL1        0.0025
     16 C          46.4819   10.7443  -29.8434 C.ar    1  UNL1        0.0207
     17 C          46.2197   11.8247  -30.6776 C.ar    1  UNL1        0.0994
     18 N          46.1007   11.8157  -32.0175 N.ar    1  UNL1       -0.2241
     19 C          45.8344   13.1161  -32.3059 C.ar    1  UNL1        0.1750
     20 N          45.7841   13.9127  -31.2119 N.ar    1  UNL1       -0.3343
     21 C          46.0316   13.0823  -30.1900 C.ar    1  UNL1        0.0863
     22 C          46.0928   13.3716  -28.8250 C.ar    1  UNL1        0.0747
     23 CL         45.7678   15.0071  -28.2548 Cl      1  UNL1       -0.0807
     24 H          45.5950   14.9391  -31.1819 H       1  UNL1        0.1675
     25 C          50.4867   12.1110  -19.3215 C.ar    1  UNL1        0.0503
     26 C          50.3642   12.5469  -17.9861 C.ar    1  UNL1        0.0328
     27 C          49.2633   12.1725  -17.2061 C.ar    1  UNL1        0.1069
     28 C          48.2664   11.3625  -17.7566 C.ar    1  UNL1        0.0186
     29 C          48.3656   10.9298  -19.0781 C.ar    1  UNL1        0.0071
     30 C          49.4566   11.3102  -19.8723 C.ar    1  UNL1        0.0667
     31 S          49.1289   12.7424  -15.5455 S.O2    1  UNL1        0.0105
     32 C          48.7606   11.3676  -14.4799 C.3     1  UNL1        0.1816
     33 O          50.4205   13.3784  -15.1131 O.2     1  UNL1       -0.1686
     34 O          48.0316   13.7650  -15.4486 O.2     1  UNL1       -0.1686
     35 N          51.6548   12.4400  -20.1075 N.pl3   1  UNL1       -0.3325
     36 H          52.2090   11.6724  -20.5483 H       1  UNL1        0.1468
     37 C          52.4093   14.0016  -21.8443 C.3     1  UNL1        0.0229
     38 C          52.1308   13.8001  -20.3591 C.3     1  UNL1        0.0871
@<TRIPOS>BOND
     1    37    38    1
     2    38    35    1
     3    35    25    1
     4    25    26   ar
     5    26    27   ar
     6    27    31    1
     7    31    32    1
     8    31    33    2
     9    31    34    2
    10    27    28   ar
    11    28    29   ar
    12    29    30   ar
    13    30     1    1
    14     1     2    2
    15     1     3   am
    16     3     4    1
    17     4     5    1
    18     5     6    1
    19     6     7    1
    20     7     8   ar
    21     8     9   ar
    22     9    10   ar
    23    10    14    1
    24    14    15   ar
    25    15    16   ar
    26    16    17   ar
    27    17    18   ar
    28    18    19   ar
    29    19    20   ar
    30    20    21   ar
    31    21    22   ar
    32    22    23    1
    33    10    11   ar
    34    11    12   ar
    35    12    13    1
    36    30    25   ar
    37    13     3    1
    38    12     7   ar
    39    22    14   ar
    40    21    17   ar
    41    35    36    1
    42    20    24    1
@<TRIPOS>MOLECULE
*****
 38 42 0 0 0
SMALL
GASTEIGER

@<TRIPOS>ATOM
      1 C          46.7524   12.2678  -20.3295 C.2     1  UNL1        0.2506
      2 O          45.5343   11.9522  -20.2480 O.2     1  UNL1       -0.2699
      3 N          47.3079   12.6732  -21.5965 N.am    1  UNL1       -0.2680
      4 C          48.2919   13.7595  -21.6513 C.3     1  UNL1        0.1412
      5 C          49.6937   13.1896  -21.8562 C.3     1  UNL1        0.2268
      6 O          49.6680   12.0033  -22.6480 O.3     1  UNL1       -0.4739
      7 C          49.0318   11.9412  -23.8895 C.ar    1  UNL1        0.1362
      8 C          49.8170   11.7024  -25.0216 C.ar    1  UNL1        0.0366
      9 C          49.2391   11.6604  -26.2901 C.ar    1  UNL1        0.0031
     10 C          47.8595   11.8496  -26.4442 C.ar    1  UNL1        0.0008
     11 C          47.0619   12.0499  -25.3071 C.ar    1  UNL1        0.0004
     12 C          47.6308   12.1068  -24.0225 C.ar    1  UNL1        0.0317
     13 C          46.6831   12.1935  -22.8375 C.3     1  UNL1        0.1236
     14 C          47.2387   11.7821  -27.7857 C.ar    1  UNL1        0.0121
     15 C          47.1305   10.5216  -28.4324 C.ar    1  UNL1        0.0025
     16 C          46.5580   10.4133  -29.7118 C.ar    1  UNL1        0.0207
     17 C          46.0996   11.5776  -30.3169 C.ar    1  UNL1        0.0994
     18 N          45.5156   11.6995  -31.5226 N.ar    1  UNL1       -0.2241
     19 C          45.2620   13.0317  -31.6021 C.ar    1  UNL1        0.1750
     20 N          45.6598   13.7236  -30.5080 N.ar    1  UNL1       -0.3343
     21 C          46.1892   12.7909  -29.7049 C.ar    1  UNL1        0.0863
     22 C          46.7489   12.9479  -28.4349 C.ar    1  UNL1        0.0747
     23 CL         46.7680   14.5353  -27.6698 Cl      1  UNL1       -0.0807
     24 H          45.5701   14.7499  -30.3384 H       1  UNL1        0.1675
     25 C          48.4485   11.1411  -18.8368 C.ar    1  UNL1        0.0503
     26 C          49.2607   11.1971  -17.6855 C.ar    1  UNL1        0.0328
     27 C          49.1932   12.2883  -16.8107 C.ar    1  UNL1        0.1069
     28 C          48.3162   13.3419  -17.0823 C.ar    1  UNL1        0.0186
     29 C          47.5125   13.3087  -18.2209 C.ar    1  UNL1        0.0071
     30 C          47.5821   12.2274  -19.1108 C.ar    1  UNL1        0.0667
     31 S          50.2288   12.3385  -15.3875 S.O2    1  UNL1        0.0105
     32 C          49.6372   13.5918  -14.2737 C.3     1  UNL1        0.1816
     33 O          50.2150   11.0053  -14.6933 O.2     1  UNL1       -0.1686
     34 O          51.6397   12.6534  -15.7991 O.2     1  UNL1       -0.1686
     35 N          48.4671    9.9853  -19.7052 N.pl3   1  UNL1       -0.3325
     36 H          47.5925    9.4304  -19.8389 H       1  UNL1        0.1468
     37 C          49.2277    8.9898  -21.8159 C.3     1  UNL1        0.0229
     38 C          49.6393    9.5232  -20.4484 C.3     1  UNL1        0.0871
@<TRIPOS>BOND
     1    37    38    1
     2    38    35    1
     3    35    25    1
     4    25    26   ar
     5    26    27   ar
     6    27    31    1
     7    31    32    1
     8    31    33    2
     9    31    34    2
    10    27    28   ar
    11    28    29   ar
    12    29    30   ar
    13    30     1    1
    14     1     2    2
    15     1     3   am
    16     3     4    1
    17     4     5    1
    18     5     6    1
    19     6     7    1
    20     7     8   ar
    21     8     9   ar
    22     9    10   ar
    23    10    14    1
    24    14    15   ar
    25    15    16   ar
    26    16    17   ar
    27    17    18   ar
    28    18    19   ar
    29    19    20   ar
    30    20    21   ar
    31    21    22   ar
    32    22    23    1
    33    10    11   ar
    34    11    12   ar
    35    12    13    1
    36    30    25   ar
    37    13     3    1
    38    12     7   ar
    39    22    14   ar
    40    21    17   ar
    41    35    36    1
    42    20    24    1
@<TRIPOS>MOLECULE
*****
 38 42 0 0 0
SMALL
GASTEIGER

@<TRIPOS>ATOM
      1 C          49.6823   13.4194  -21.6415 C.2     1  UNL1        0.2506
      2 O          50.4562   14.3572  -21.9759 O.2     1  UNL1       -0.2699
      3 N          48.9671   12.6811  -22.6523 N.am    1  UNL1       -0.2680
      4 C          48.7860   11.2324  -22.5111 C.3     1  UNL1        0.1412
      5 C          47.3570   10.9214  -22.0714 C.3     1  UNL1        0.2268
      6 O          46.4269   11.8630  -22.6036 O.3     1  UNL1       -0.4739
      7 C          46.3627   12.1702  -23.9643 C.ar    1  UNL1        0.1362
      8 C          45.1908   11.8521  -24.6576 C.ar    1  UNL1        0.0366
      9 C          45.0828   12.1086  -26.0240 C.ar    1  UNL1        0.0031
     10 C          46.1478   12.6972  -26.7184 C.ar    1  UNL1        0.0008
     11 C          47.3107   13.0544  -26.0189 C.ar    1  UNL1        0.0004
     12 C          47.4398   12.7918  -24.6436 C.ar    1  UNL1        0.0317
     13 C          48.6739   13.3297  -23.9384 C.3     1  UNL1        0.1236
     14 C          46.0286   12.9929  -28.1635 C.ar    1  UNL1        0.0121
     15 C          45.7085   14.3154  -28.5721 C.ar    1  UNL1        0.0025
     16 C          45.5743   14.6378  -29.9339 C.ar    1  UNL1        0.0207
     17 C          45.7695   13.6219  -30.8622 C.ar    1  UNL1        0.0994
     18 N          45.6993   13.7119  -32.2025 N.ar    1  UNL1       -0.2241
     19 C          45.9856   12.4466  -32.6056 C.ar    1  UNL1        0.1750
     20 N          46.2273   11.5949  -31.5810 N.ar    1  UNL1       -0.3343
     21 C          46.0851   12.3520  -30.4847 C.ar    1  UNL1        0.0863
     22 C          46.2296   11.9846  -29.1450 C.ar    1  UNL1        0.0747
     23 CL         46.7106   10.3412  -28.7283 Cl      1  UNL1       -0.0807
     24 H          46.4686   10.5808  -31.6414 H       1  UNL1        0.1675
     25 C          50.6423   12.6635  -19.4321 C.ar    1  UNL1        0.0503
     26 C          50.4475   12.4260  -18.0559 C.ar    1  UNL1        0.0328
     27 C          49.1836   12.5766  -17.4725 C.ar    1  UNL1        0.1069
     28 C          48.0994   12.9749  -18.2592 C.ar    1  UNL1        0.0186
     29 C          48.2749   13.2237  -19.6196 C.ar    1  UNL1        0.0071
     30 C          49.5389   13.0895  -20.2112 C.ar    1  UNL1        0.0667
     31 S          48.9717   12.2865  -15.7487 S.O2    1  UNL1        0.0105
     32 C          50.5665   12.1308  -14.9781 C.3     1  UNL1        0.1816
     33 O          48.2229   13.4295  -15.1224 O.2     1  UNL1       -0.1686
     34 O          48.1847   11.0230  -15.5412 O.2     1  UNL1       -0.1686
     35 N          51.9307   12.4436  -20.0502 N.pl3   1  UNL1       -0.3325
     36 H          52.0995   11.5619  -20.5839 H       1  UNL1        0.1468
     37 C          52.5711   14.7517  -19.5145 C.3     1  UNL1        0.0229
     38 C          53.0465   13.3884  -20.0040 C.3     1  UNL1        0.0871
@<TRIPOS>BOND
     1    37    38    1
     2    38    35    1
     3    35    25    1
     4    25    26   ar
     5    26    27   ar
     6    27    31    1
     7    31    32    1
     8    31    33    2
     9    31    34    2
    10    27    28   ar
    11    28    29   ar
    12    29    30   ar
    13    30     1    1
    14     1     2    2
    15     1     3   am
    16     3     4    1
    17     4     5    1
    18     5     6    1
    19     6     7    1
    20     7     8   ar
    21     8     9   ar
    22     9    10   ar
    23    10    14    1
    24    14    15   ar
    25    15    16   ar
    26    16    17   ar
    27    17    18   ar
    28    18    19   ar
    29    19    20   ar
    30    20    21   ar
    31    21    22   ar
    32    22    23    1
    33    10    11   ar
    34    11    12   ar
    35    12    13    1
    36    30    25   ar
    37    13     3    1
    38    12     7   ar
    39    22    14   ar
    40    21    17   ar
    41    35    36    1
    42    20    24    1
