@<TRIPOS>MOLECULE
*****
 50 55 0 0 0
SMALL
GASTEIGER

@<TRIPOS>ATOM
      1 C           9.1151   76.7293   26.5268 C.2     1  UNL1        0.2483
      2 O          10.2891   76.2682   26.5514 O.2     1  UNL1       -0.2701
      3 N           8.6478   77.5610   27.6036 N.am    1  UNL1       -0.2945
      4 H           7.6417   77.8435   27.6131 H       1  UNL1        0.1501
      5 C           8.5227   75.0390   21.8425 C.3     1  UNL1        0.0323
      6 C           7.9161   75.5579   23.1177 C.ar    1  UNL1       -0.0082
      7 C           8.7550   75.8978   24.1919 C.ar    1  UNL1        0.0037
      8 C           8.2216   76.3782   25.3999 C.ar    1  UNL1        0.0805
      9 C           6.8276   76.5156   25.5255 C.ar    1  UNL1        0.1457
     10 F           6.2758   76.9950   26.6697 F       1  UNL1       -0.2040
     11 C           5.9900   76.1973   24.4552 C.ar    1  UNL1        0.0440
     12 C           6.5211   75.7316   23.2458 C.ar    1  UNL1        0.0461
     13 N           5.6315   75.4388   22.1569 N.pl3   1  UNL1       -0.3043
     14 C           5.2122   74.0517   21.9270 C.3     1  UNL1        0.1123
     15 C           4.3716   73.9224   20.6515 C.3     1  UNL1        0.1136
     16 N           3.3291   74.9613   20.6068 N.pl3   1  UNL1       -0.2897
     17 C           3.6480   76.3375   21.0298 C.3     1  UNL1        0.1136
     18 C           5.1449   76.5184   21.2939 C.3     1  UNL1        0.1123
     19 C           2.0529   74.6665   19.9937 C.ar    1  UNL1        0.1318
     20 C           1.3573   75.6342   19.2474 C.ar    1  UNL1        0.0343
     21 C           0.1290   75.3103   18.6693 C.ar    1  UNL1        0.0083
     22 C          -0.4035   74.0211   18.8145 C.ar    1  UNL1        0.0906
     23 C           0.3053   73.0920   19.5905 C.ar    1  UNL1        0.1041
     24 N           1.4988   73.4305   20.1453 N.ar    1  UNL1       -0.2292
     25 C          -1.7525   73.6747   18.2379 C.3     1  UNL1        0.4200
     26 F          -1.8578   72.3016   18.1188 F       1  UNL1       -0.1658
     27 F          -2.7670   74.1355   19.0591 F       1  UNL1       -0.1658
     28 F          -1.9117   74.2496   16.9889 F       1  UNL1       -0.1658
     29 C           9.4206   77.7595   28.8362 C.3     1  UNL1        0.1535
     30 C           9.0549   79.0753   29.4707 C.2     1  UNL1        0.2443
     31 O           8.1042   79.7555   28.9958 O.2     1  UNL1       -0.2730
     32 N           9.7224   79.4999   30.6699 N.am    1  UNL1       -0.2825
     33 H          10.2551   78.7816   31.2113 H       1  UNL1        0.1549
     34 C           9.6117   80.8201   31.2289 C.ar    1  UNL1        0.0535
     35 C           9.0372   81.0386   32.4929 C.ar    1  UNL1        0.0353
     36 C           8.9284   82.3422   32.9839 C.ar    1  UNL1        0.1002
     37 N           9.3628   83.3916   32.2374 N.ar    1  UNL1       -0.2422
     38 C           9.9055   83.2115   31.0044 C.ar    1  UNL1        0.1002
     39 C          10.0316   81.9248   30.4753 C.ar    1  UNL1        0.0353
     40 C           9.1589   76.6094   29.8231 C.3     1  UNL1        0.0569
     41 C           7.6891   76.3396   29.9690 C.ar    1  UNL1       -0.0017
     42 C           6.7680   77.1268   30.6547 C.ar    1  UNL1        0.0681
     43 N           5.5134   76.6573   30.4675 N.ar    1  UNL1       -0.3523
     44 C           5.6334   75.5893   29.6601 C.ar    1  UNL1        0.0563
     45 C           4.6068   74.7934   29.1540 C.ar    1  UNL1        0.0170
     46 C           4.9566   73.7412   28.2880 C.ar    1  UNL1        0.0015
     47 C           6.3085   73.5148   27.9459 C.ar    1  UNL1        0.0001
     48 C           7.3232   74.3373   28.4681 C.ar    1  UNL1        0.0012
     49 C           6.9461   75.3663   29.3310 C.ar    1  UNL1        0.0131
     50 H           4.6308   77.0632   30.8505 H       1  UNL1        0.1660
@<TRIPOS>BOND
     1     5     6    1
     2     6     7   ar
     3     7     8   ar
     4     8     1    1
     5     1     2    2
     6     1     3   am
     7     3    29    1
     8    29    40    1
     9    40    41    1
    10    41    42   ar
    11    42    43   ar
    12    43    44   ar
    13    44    45   ar
    14    45    46   ar
    15    46    47   ar
    16    47    48   ar
    17    48    49   ar
    18    29    30    1
    19    30    31    2
    20    30    32   am
    21    32    34    1
    22    34    35   ar
    23    35    36   ar
    24    36    37   ar
    25    37    38   ar
    26    38    39   ar
    27     8     9   ar
    28     9    10    1
    29     9    11   ar
    30    11    12   ar
    31    12    13    1
    32    13    14    1
    33    14    15    1
    34    15    16    1
    35    16    19    1
    36    19    20   ar
    37    20    21   ar
    38    21    22   ar
    39    22    25    1
    40    25    26    1
    41    25    27    1
    42    25    28    1
    43    22    23   ar
    44    23    24   ar
    45    16    17    1
    46    17    18    1
    47    12     6   ar
    48    18    13    1
    49    49    41   ar
    50    39    34   ar
    51    24    19   ar
    52    49    44   ar
    53     3     4    1
    54    43    50    1
    55    32    33    1
@<TRIPOS>MOLECULE
*****
 50 55 0 0 0
SMALL
GASTEIGER

@<TRIPOS>ATOM
      1 C           7.9316   75.6235   24.1791 C.2     1  UNL1        0.2483
      2 O           7.6984   74.8084   25.1133 O.2     1  UNL1       -0.2701
      3 N           7.3146   75.4369   22.8929 N.am    1  UNL1       -0.2945
      4 H           7.6041   76.0623   22.1073 H       1  UNL1        0.1501
      5 C          11.6381   77.6760   26.8623 C.3     1  UNL1        0.0323
      6 C          10.6723   77.7613   25.7119 C.ar    1  UNL1       -0.0082
      7 C           9.7773   76.7031   25.4830 C.ar    1  UNL1        0.0037
      8 C           8.8672   76.7465   24.4133 C.ar    1  UNL1        0.0805
      9 C           8.8611   77.8685   23.5653 C.ar    1  UNL1        0.1457
     10 F           7.9834   77.9560   22.5332 F       1  UNL1       -0.2040
     11 C           9.7351   78.9315   23.7989 C.ar    1  UNL1        0.0440
     12 C          10.6333   78.8958   24.8729 C.ar    1  UNL1        0.0461
     13 N          11.4997   80.0189   25.0989 N.pl3   1  UNL1       -0.3043
     14 C          12.8939   79.9509   24.6466 C.3     1  UNL1        0.1123
     15 C          13.6890   81.1849   25.0883 C.3     1  UNL1        0.1136
     16 N          12.9413   82.4191   24.7952 N.pl3   1  UNL1       -0.2897
     17 C          11.4878   82.4700   25.0385 C.3     1  UNL1        0.1136
     18 C          10.9892   81.2192   25.7665 C.3     1  UNL1        0.1123
     19 C          13.6601   83.6202   24.4313 C.ar    1  UNL1        0.1318
     20 C          13.7793   84.7014   25.3223 C.ar    1  UNL1        0.0343
     21 C          14.4831   85.8426   24.9347 C.ar    1  UNL1        0.0083
     22 C          15.0853   85.9070   23.6699 C.ar    1  UNL1        0.0906
     23 C          14.9197   84.8207   22.7979 C.ar    1  UNL1        0.1041
     24 N          14.2287   83.7205   23.1966 N.ar    1  UNL1       -0.2292
     25 C          15.8043   87.1536   23.2210 C.3     1  UNL1        0.4200
     26 F          17.0255   87.2312   23.8639 F       1  UNL1       -0.1658
     27 F          16.0153   87.1293   21.8532 F       1  UNL1       -0.1658
     28 F          15.0619   88.2815   23.5246 F       1  UNL1       -0.1658
     29 C           6.5538   74.2278   22.5537 C.3     1  UNL1        0.1535
     30 C           5.1404   74.5920   22.1834 C.2     1  UNL1        0.2443
     31 O           4.4648   73.8142   21.4550 O.2     1  UNL1       -0.2730
     32 N           4.5367   75.7701   22.7417 N.am    1  UNL1       -0.2825
     33 H           4.9921   76.2009   23.5782 H       1  UNL1        0.1549
     34 C           3.2893   76.3262   22.2918 C.ar    1  UNL1        0.0535
     35 C           2.7630   76.0236   21.0242 C.ar    1  UNL1        0.0353
     36 C           1.5596   76.6080   20.6208 C.ar    1  UNL1        0.1002
     37 N           0.9111   77.4735   21.4439 N.ar    1  UNL1       -0.2422
     38 C           1.4061   77.7986   22.6672 C.ar    1  UNL1        0.1002
     39 C           2.6069   77.2379   23.1089 C.ar    1  UNL1        0.0353
     40 C           7.2264   73.4814   21.3893 C.3     1  UNL1        0.0569
     41 C           8.4387   72.7267   21.8528 C.ar    1  UNL1       -0.0017
     42 C           8.5394   71.3487   22.0240 C.ar    1  UNL1        0.0681
     43 N           9.8123   71.0015   22.3219 N.ar    1  UNL1       -0.3523
     44 C          10.5175   72.1459   22.3278 C.ar    1  UNL1        0.0563
     45 C          11.8863   72.2934   22.5472 C.ar    1  UNL1        0.0170
     46 C          12.4289   73.5892   22.4687 C.ar    1  UNL1        0.0015
     47 C          11.6017   74.6948   22.1696 C.ar    1  UNL1        0.0001
     48 C          10.2242   74.5152   21.9481 C.ar    1  UNL1        0.0012
     49 C           9.7143   73.2202   22.0417 C.ar    1  UNL1        0.0131
     50 H          10.1747   70.0358   22.4844 H       1  UNL1        0.1660
@<TRIPOS>BOND
     1     5     6    1
     2     6     7   ar
     3     7     8   ar
     4     8     1    1
     5     1     2    2
     6     1     3   am
     7     3    29    1
     8    29    40    1
     9    40    41    1
    10    41    42   ar
    11    42    43   ar
    12    43    44   ar
    13    44    45   ar
    14    45    46   ar
    15    46    47   ar
    16    47    48   ar
    17    48    49   ar
    18    29    30    1
    19    30    31    2
    20    30    32   am
    21    32    34    1
    22    34    35   ar
    23    35    36   ar
    24    36    37   ar
    25    37    38   ar
    26    38    39   ar
    27     8     9   ar
    28     9    10    1
    29     9    11   ar
    30    11    12   ar
    31    12    13    1
    32    13    14    1
    33    14    15    1
    34    15    16    1
    35    16    19    1
    36    19    20   ar
    37    20    21   ar
    38    21    22   ar
    39    22    25    1
    40    25    26    1
    41    25    27    1
    42    25    28    1
    43    22    23   ar
    44    23    24   ar
    45    16    17    1
    46    17    18    1
    47    12     6   ar
    48    18    13    1
    49    49    41   ar
    50    39    34   ar
    51    24    19   ar
    52    49    44   ar
    53     3     4    1
    54    43    50    1
    55    32    33    1
@<TRIPOS>MOLECULE
*****
 50 55 0 0 0
SMALL
GASTEIGER

@<TRIPOS>ATOM
      1 C          13.5425   82.9274   24.8299 C.2     1  UNL1        0.2483
      2 O          14.0883   83.5058   25.8091 O.2     1  UNL1       -0.2701
      3 N          13.6425   83.4974   23.5128 N.am    1  UNL1       -0.2945
      4 H          13.0955   83.0581   22.7381 H       1  UNL1        0.1501
      5 C          13.4148   77.9235   25.1375 C.3     1  UNL1        0.0323
      6 C          12.6967   79.2434   25.2103 C.ar    1  UNL1       -0.0082
      7 C          13.4136   80.4314   24.9908 C.ar    1  UNL1        0.0037
      8 C          12.7760   81.6818   25.0587 C.ar    1  UNL1        0.0805
      9 C          11.4016   81.7339   25.3522 C.ar    1  UNL1        0.1457
     10 F          10.7461   82.9217   25.4070 F       1  UNL1       -0.2040
     11 C          10.6799   80.5560   25.5527 C.ar    1  UNL1        0.0440
     12 C          11.3111   79.3083   25.4716 C.ar    1  UNL1        0.0461
     13 N          10.5320   78.1160   25.6574 N.pl3   1  UNL1       -0.3043
     14 C          10.7899   77.2661   26.8253 C.3     1  UNL1        0.1123
     15 C           9.9526   75.9826   26.7825 C.3     1  UNL1        0.1136
     16 N           8.5478   76.2873   26.4635 N.pl3   1  UNL1       -0.2897
     17 C           8.2324   77.2951   25.4343 C.3     1  UNL1        0.1136
     18 C           9.4875   77.7621   24.6927 C.3     1  UNL1        0.1123
     19 C           7.4938   75.4808   27.0384 C.ar    1  UNL1        0.1318
     20 C           6.1655   75.5812   26.5879 C.ar    1  UNL1        0.0343
     21 C           5.1769   74.7840   27.1667 C.ar    1  UNL1        0.0083
     22 C           5.5062   73.8728   28.1805 C.ar    1  UNL1        0.0906
     23 C           6.8362   73.8223   28.6235 C.ar    1  UNL1        0.1041
     24 N           7.7817   74.6094   28.0461 N.ar    1  UNL1       -0.2292
     25 C           4.4390   73.0434   28.8480 C.3     1  UNL1        0.4200
     26 F           4.5052   73.2316   30.2158 F       1  UNL1       -0.1658
     27 F           3.1824   73.4145   28.4018 F       1  UNL1       -0.1658
     28 F           4.6185   71.6998   28.5680 F       1  UNL1       -0.1658
     29 C          14.2064   84.8319   23.2741 C.3     1  UNL1        0.1535
     30 C          14.7970   84.9049   21.8909 C.2     1  UNL1        0.2443
     31 O          15.9936   85.2758   21.7409 O.2     1  UNL1       -0.2730
     32 N          14.0293   84.4577   20.7619 N.am    1  UNL1       -0.2825
     33 H          13.1912   83.8615   20.9483 H       1  UNL1        0.1549
     34 C          14.4038   84.6851   19.3923 C.ar    1  UNL1        0.0535
     35 C          15.3025   83.8359   18.7241 C.ar    1  UNL1        0.0353
     36 C          15.6560   84.1115   17.4007 C.ar    1  UNL1        0.1002
     37 N          15.1444   85.2013   16.7701 N.ar    1  UNL1       -0.2422
     38 C          14.2879   86.0498   17.3975 C.ar    1  UNL1        0.1002
     39 C          13.9095   85.8118   18.7210 C.ar    1  UNL1        0.0353
     40 C          13.1212   85.9089   23.4397 C.3     1  UNL1        0.0569
     41 C          13.4826   87.1655   22.7017 C.ar    1  UNL1       -0.0017
     42 C          14.6132   87.9508   22.9103 C.ar    1  UNL1        0.0681
     43 N          14.6866   88.9296   21.9797 N.ar    1  UNL1       -0.3523
     44 C          13.6201   88.7613   21.1789 C.ar    1  UNL1        0.0563
     45 C          13.2858   89.5071   20.0495 C.ar    1  UNL1        0.0170
     46 C          12.1368   89.1311   19.3298 C.ar    1  UNL1        0.0015
     47 C          11.3605   88.0267   19.7464 C.ar    1  UNL1        0.0001
     48 C          11.7248   87.2893   20.8876 C.ar    1  UNL1        0.0012
     49 C          12.8637   87.6918   21.5853 C.ar    1  UNL1        0.0131
     50 H          15.4374   89.6496   21.8882 H       1  UNL1        0.1660
@<TRIPOS>BOND
     1     5     6    1
     2     6     7   ar
     3     7     8   ar
     4     8     1    1
     5     1     2    2
     6     1     3   am
     7     3    29    1
     8    29    40    1
     9    40    41    1
    10    41    42   ar
    11    42    43   ar
    12    43    44   ar
    13    44    45   ar
    14    45    46   ar
    15    46    47   ar
    16    47    48   ar
    17    48    49   ar
    18    29    30    1
    19    30    31    2
    20    30    32   am
    21    32    34    1
    22    34    35   ar
    23    35    36   ar
    24    36    37   ar
    25    37    38   ar
    26    38    39   ar
    27     8     9   ar
    28     9    10    1
    29     9    11   ar
    30    11    12   ar
    31    12    13    1
    32    13    14    1
    33    14    15    1
    34    15    16    1
    35    16    19    1
    36    19    20   ar
    37    20    21   ar
    38    21    22   ar
    39    22    25    1
    40    25    26    1
    41    25    27    1
    42    25    28    1
    43    22    23   ar
    44    23    24   ar
    45    16    17    1
    46    17    18    1
    47    12     6   ar
    48    18    13    1
    49    49    41   ar
    50    39    34   ar
    51    24    19   ar
    52    49    44   ar
    53     3     4    1
    54    43    50    1
    55    32    33    1
@<TRIPOS>MOLECULE
*****
 50 55 0 0 0
SMALL
GASTEIGER

@<TRIPOS>ATOM
      1 C           8.2059   75.6720   25.5200 C.2     1  UNL1        0.2483
      2 O           8.5120   74.6627   24.8279 O.2     1  UNL1       -0.2701
      3 N           6.9901   75.6732   26.2891 N.am    1  UNL1       -0.2945
      4 H           6.7063   76.5571   26.7690 H       1  UNL1        0.1501
      5 C           9.7142   79.9124   23.3076 C.3     1  UNL1        0.0323
      6 C           9.8393   78.9263   24.4369 C.ar    1  UNL1       -0.0082
      7 C           9.0066   77.7952   24.4601 C.ar    1  UNL1        0.0037
      8 C           9.0916   76.8581   25.5037 C.ar    1  UNL1        0.0805
      9 C          10.0253   77.0652   26.5348 C.ar    1  UNL1        0.1457
     10 F          10.1508   76.1721   27.5498 F       1  UNL1       -0.2040
     11 C          10.8684   78.1773   26.5075 C.ar    1  UNL1        0.0440
     12 C          10.7945   79.1049   25.4607 C.ar    1  UNL1        0.0461
     13 N          11.6955   80.2234   25.4513 N.pl3   1  UNL1       -0.3043
     14 C          13.0202   80.0715   24.8391 C.3     1  UNL1        0.1123
     15 C          13.8791   81.3255   25.0390 C.3     1  UNL1        0.1136
     16 N          13.1147   82.5392   24.7068 N.pl3   1  UNL1       -0.2897
     17 C          11.7044   82.6532   25.1222 C.3     1  UNL1        0.1136
     18 C          11.2876   81.5015   26.0405 C.3     1  UNL1        0.1123
     19 C          13.7954   83.6752   24.1255 C.ar    1  UNL1        0.1318
     20 C          13.7893   84.9333   24.7534 C.ar    1  UNL1        0.0343
     21 C          14.4600   86.0048   24.1618 C.ar    1  UNL1        0.0083
     22 C          15.1532   85.8267   22.9558 C.ar    1  UNL1        0.0906
     23 C          15.1118   84.5648   22.3447 C.ar    1  UNL1        0.1041
     24 N          14.4509   83.5365   22.9386 N.ar    1  UNL1       -0.2292
     25 C          15.8382   86.9880   22.2817 C.3     1  UNL1        0.4200
     26 F          16.9968   87.2951   22.9702 F       1  UNL1       -0.1658
     27 F          16.1613   86.6713   20.9735 F       1  UNL1       -0.1658
     28 F          15.0138   88.0996   22.2671 F       1  UNL1       -0.1658
     29 C           5.9826   74.6119   26.1689 C.3     1  UNL1        0.1535
     30 C           6.0444   73.9916   24.7982 C.2     1  UNL1        0.2443
     31 O           6.3770   72.7809   24.6743 O.2     1  UNL1       -0.2730
     32 N           5.6290   74.7507   23.6514 N.am    1  UNL1       -0.2825
     33 H           5.0594   75.6114   23.8172 H       1  UNL1        0.1549
     34 C           5.8521   74.3418   22.2909 C.ar    1  UNL1        0.0535
     35 C           7.0551   73.7337   21.8929 C.ar    1  UNL1        0.0353
     36 C           7.2362   73.3763   20.5543 C.ar    1  UNL1        0.1002
     37 N           6.2605   73.6282   19.6423 N.ar    1  UNL1       -0.2422
     38 C           5.0949   74.2314   19.9954 C.ar    1  UNL1        0.1002
     39 C           4.8737   74.6062   21.3228 C.ar    1  UNL1        0.0353
     40 C           6.2086   73.5352   27.2436 C.3     1  UNL1        0.0569
     41 C           6.6021   74.1487   28.5562 C.ar    1  UNL1       -0.0017
     42 C           7.8706   74.1318   29.1297 C.ar    1  UNL1        0.0681
     43 N           7.8942   74.8941   30.2467 N.ar    1  UNL1       -0.3523
     44 C           6.6562   75.4017   30.3761 C.ar    1  UNL1        0.0563
     45 C           6.2020   76.2804   31.3583 C.ar    1  UNL1        0.0170
     46 C           4.8674   76.7195   31.2814 C.ar    1  UNL1        0.0015
     47 C           4.0287   76.2807   30.2327 C.ar    1  UNL1        0.0001
     48 C           4.5159   75.3973   29.2524 C.ar    1  UNL1        0.0012
     49 C           5.8401   74.9726   29.3607 C.ar    1  UNL1        0.0131
     50 H           8.7174   75.0728   30.8639 H       1  UNL1        0.1660
@<TRIPOS>BOND
     1     5     6    1
     2     6     7   ar
     3     7     8   ar
     4     8     1    1
     5     1     2    2
     6     1     3   am
     7     3    29    1
     8    29    40    1
     9    40    41    1
    10    41    42   ar
    11    42    43   ar
    12    43    44   ar
    13    44    45   ar
    14    45    46   ar
    15    46    47   ar
    16    47    48   ar
    17    48    49   ar
    18    29    30    1
    19    30    31    2
    20    30    32   am
    21    32    34    1
    22    34    35   ar
    23    35    36   ar
    24    36    37   ar
    25    37    38   ar
    26    38    39   ar
    27     8     9   ar
    28     9    10    1
    29     9    11   ar
    30    11    12   ar
    31    12    13    1
    32    13    14    1
    33    14    15    1
    34    15    16    1
    35    16    19    1
    36    19    20   ar
    37    20    21   ar
    38    21    22   ar
    39    22    25    1
    40    25    26    1
    41    25    27    1
    42    25    28    1
    43    22    23   ar
    44    23    24   ar
    45    16    17    1
    46    17    18    1
    47    12     6   ar
    48    18    13    1
    49    49    41   ar
    50    39    34   ar
    51    24    19   ar
    52    49    44   ar
    53     3     4    1
    54    43    50    1
    55    32    33    1
@<TRIPOS>MOLECULE
*****
 50 55 0 0 0
SMALL
GASTEIGER

@<TRIPOS>ATOM
      1 C           5.8196   74.4070   22.5285 C.2     1  UNL1        0.2483
      2 O           6.1603   73.2141   22.2995 O.2     1  UNL1       -0.2701
      3 N           4.7829   75.0209   21.7423 N.am    1  UNL1       -0.2945
      4 H           4.5917   76.0391   21.8799 H       1  UNL1        0.1501
      5 C          10.0708   75.6108   24.9009 C.3     1  UNL1        0.0323
      6 C           8.5816   75.7661   24.7546 C.ar    1  UNL1       -0.0082
      7 C           7.9076   75.0433   23.7562 C.ar    1  UNL1        0.0037
      8 C           6.5185   75.1704   23.5869 C.ar    1  UNL1        0.0805
      9 C           5.8025   76.0364   24.4326 C.ar    1  UNL1        0.1457
     10 F           4.4568   76.1709   24.3129 F       1  UNL1       -0.2040
     11 C           6.4637   76.7429   25.4386 C.ar    1  UNL1        0.0440
     12 C           7.8461   76.6068   25.6177 C.ar    1  UNL1        0.0461
     13 N           8.4891   77.3288   26.6798 N.pl3   1  UNL1       -0.3043
     14 C           8.9842   78.6865   26.4263 C.3     1  UNL1        0.1123
     15 C           9.7483   79.2410   27.6342 C.3     1  UNL1        0.1136
     16 N           8.9914   79.0172   28.8772 N.pl3   1  UNL1       -0.2897
     17 C           8.2957   77.7346   29.0902 C.3     1  UNL1        0.1136
     18 C           8.6386   76.7145   28.0016 C.3     1  UNL1        0.1123
     19 C           9.0734   79.9863   29.9476 C.ar    1  UNL1        0.1318
     20 C           9.7939   81.1846   29.7979 C.ar    1  UNL1        0.0343
     21 C           9.8475   82.0958   30.8537 C.ar    1  UNL1        0.0083
     22 C           9.1721   81.8292   32.0534 C.ar    1  UNL1        0.0906
     23 C           8.4886   80.6104   32.1756 C.ar    1  UNL1        0.1041
     24 N           8.4514   79.7376   31.1346 N.ar    1  UNL1       -0.2292
     25 C           9.2645   82.7817   33.2182 C.3     1  UNL1        0.4200
     26 F          10.1733   83.7795   32.9192 F       1  UNL1       -0.1658
     27 F           8.0323   83.3566   33.4773 F       1  UNL1       -0.1658
     28 F           9.6815   82.1186   34.3592 F       1  UNL1       -0.1658
     29 C           4.2140   74.3779   20.5513 C.3     1  UNL1        0.1535
     30 C           2.7247   74.5960   20.5062 C.2     1  UNL1        0.2443
     31 O           2.1203   74.9980   21.5381 O.2     1  UNL1       -0.2730
     32 N           2.0176   74.4421   19.2651 N.am    1  UNL1       -0.2825
     33 H           2.5781   74.4353   18.3828 H       1  UNL1        0.1549
     34 C           0.5844   74.4087   19.1536 C.ar    1  UNL1        0.0535
     35 C          -0.1964   75.5606   19.3515 C.ar    1  UNL1        0.0353
     36 C          -1.5878   75.4740   19.2574 C.ar    1  UNL1        0.1002
     37 N          -2.1812   74.2808   18.9902 N.ar    1  UNL1       -0.2422
     38 C          -1.4523   73.1475   18.8125 C.ar    1  UNL1        0.1002
     39 C          -0.0587   73.1896   18.8994 C.ar    1  UNL1        0.0353
     40 C           4.8662   74.9395   19.2767 C.3     1  UNL1        0.0569
     41 C           5.0192   76.4311   19.3541 C.ar    1  UNL1       -0.0017
     42 C           4.0601   77.3797   19.0092 C.ar    1  UNL1        0.0681
     43 N           4.4875   78.6220   19.3310 N.ar    1  UNL1       -0.3523
     44 C           5.7013   78.4647   19.8869 C.ar    1  UNL1        0.0563
     45 C           6.5246   79.4590   20.4131 C.ar    1  UNL1        0.0170
     46 C           7.7475   79.0648   20.9865 C.ar    1  UNL1        0.0015
     47 C           8.1126   77.7006   21.0265 C.ar    1  UNL1        0.0001
     48 C           7.2594   76.7183   20.4920 C.ar    1  UNL1        0.0012
     49 C           6.0583   77.1409   19.9223 C.ar    1  UNL1        0.0131
     50 H           3.9645   79.5161   19.1994 H       1  UNL1        0.1660
@<TRIPOS>BOND
     1     5     6    1
     2     6     7   ar
     3     7     8   ar
     4     8     1    1
     5     1     2    2
     6     1     3   am
     7     3    29    1
     8    29    40    1
     9    40    41    1
    10    41    42   ar
    11    42    43   ar
    12    43    44   ar
    13    44    45   ar
    14    45    46   ar
    15    46    47   ar
    16    47    48   ar
    17    48    49   ar
    18    29    30    1
    19    30    31    2
    20    30    32   am
    21    32    34    1
    22    34    35   ar
    23    35    36   ar
    24    36    37   ar
    25    37    38   ar
    26    38    39   ar
    27     8     9   ar
    28     9    10    1
    29     9    11   ar
    30    11    12   ar
    31    12    13    1
    32    13    14    1
    33    14    15    1
    34    15    16    1
    35    16    19    1
    36    19    20   ar
    37    20    21   ar
    38    21    22   ar
    39    22    25    1
    40    25    26    1
    41    25    27    1
    42    25    28    1
    43    22    23   ar
    44    23    24   ar
    45    16    17    1
    46    17    18    1
    47    12     6   ar
    48    18    13    1
    49    49    41   ar
    50    39    34   ar
    51    24    19   ar
    52    49    44   ar
    53     3     4    1
    54    43    50    1
    55    32    33    1
@<TRIPOS>MOLECULE
*****
 50 55 0 0 0
SMALL
GASTEIGER

@<TRIPOS>ATOM
      1 C           7.9479   75.4547   24.1589 C.2     1  UNL1        0.2483
      2 O           7.7766   74.5998   25.0706 O.2     1  UNL1       -0.2701
      3 N           7.3192   75.2735   22.8776 N.am    1  UNL1       -0.2945
      4 H           7.5598   75.9377   22.1074 H       1  UNL1        0.1501
      5 C           9.3894   80.1158   22.9985 C.3     1  UNL1        0.0323
      6 C           9.5397   78.8909   23.8589 C.ar    1  UNL1       -0.0082
      7 C           8.7159   77.7777   23.6237 C.ar    1  UNL1        0.0037
      8 C           8.8244   76.6203   24.4132 C.ar    1  UNL1        0.0805
      9 C           9.7727   76.5865   25.4512 C.ar    1  UNL1        0.1457
     10 F           9.9209   75.4792   26.2227 F       1  UNL1       -0.2040
     11 C          10.6070   77.6824   25.6778 C.ar    1  UNL1        0.0440
     12 C          10.5096   78.8315   24.8828 C.ar    1  UNL1        0.0461
     13 N          11.4020   79.9299   25.1275 N.pl3   1  UNL1       -0.3043
     14 C          12.7674   79.8769   24.5930 C.3     1  UNL1        0.1123
     15 C          13.6023   81.0734   25.0637 C.3     1  UNL1        0.1136
     16 N          12.8555   82.3305   24.8901 N.pl3   1  UNL1       -0.2897
     17 C          11.4188   82.3801   25.2186 C.3     1  UNL1        0.1136
     18 C          10.9458   81.0913   25.8957 C.3     1  UNL1        0.1123
     19 C          13.5683   83.5449   24.5602 C.ar    1  UNL1        0.1318
     20 C          13.7160   84.5850   25.4949 C.ar    1  UNL1        0.0343
     21 C          14.4129   85.7407   25.1391 C.ar    1  UNL1        0.0083
     22 C          14.9801   85.8601   23.8622 C.ar    1  UNL1        0.0906
     23 C          14.7865   84.8142   22.9476 C.ar    1  UNL1        0.1041
     24 N          14.1029   83.6989   23.3160 N.ar    1  UNL1       -0.2292
     25 C          15.6910   87.1237   23.4495 C.3     1  UNL1        0.4200
     26 F          16.7827   86.7972   22.6671 F       1  UNL1       -0.1658
     27 F          14.8450   87.9445   22.7237 F       1  UNL1       -0.1658
     28 F          16.1258   87.8245   24.5611 F       1  UNL1       -0.1658
     29 C           6.6202   74.0350   22.5128 C.3     1  UNL1        0.1535
     30 C           5.2086   74.3426   22.0880 C.2     1  UNL1        0.2443
     31 O           4.4841   73.4245   21.6146 O.2     1  UNL1       -0.2730
     32 N           4.6634   75.6521   22.3162 N.am    1  UNL1       -0.2825
     33 H           5.1597   76.2751   22.9931 H       1  UNL1        0.1549
     34 C           3.4217   76.1158   21.7587 C.ar    1  UNL1        0.0535
     35 C           2.5932   77.0142   22.4529 C.ar    1  UNL1        0.0353
     36 C           1.3833   77.4173   21.8816 C.ar    1  UNL1        0.1002
     37 N           1.0053   76.9322   20.6696 N.ar    1  UNL1       -0.2422
     38 C           1.7777   76.0484   19.9844 C.ar    1  UNL1        0.1002
     39 C           2.9941   75.6184   20.5201 C.ar    1  UNL1        0.0353
     40 C           7.3656   73.3144   21.3769 C.3     1  UNL1        0.0569
     41 C           8.5818   72.5992   21.8901 C.ar    1  UNL1       -0.0017
     42 C           8.7121   71.2273   22.0886 C.ar    1  UNL1        0.0681
     43 N           9.9836   70.9182   22.4310 N.ar    1  UNL1       -0.3523
     44 C          10.6592   72.0804   22.4380 C.ar    1  UNL1        0.0563
     45 C          12.0164   72.2669   22.6960 C.ar    1  UNL1        0.0170
     46 C          12.5281   73.5748   22.6110 C.ar    1  UNL1        0.0015
     47 C          11.6828   74.6534   22.2676 C.ar    1  UNL1        0.0001
     48 C          10.3178   74.4346   22.0077 C.ar    1  UNL1        0.0012
     49 C           9.8382   73.1286   22.1088 C.ar    1  UNL1        0.0131
     50 H          10.3652   69.9651   22.6215 H       1  UNL1        0.1660
@<TRIPOS>BOND
     1     5     6    1
     2     6     7   ar
     3     7     8   ar
     4     8     1    1
     5     1     2    2
     6     1     3   am
     7     3    29    1
     8    29    40    1
     9    40    41    1
    10    41    42   ar
    11    42    43   ar
    12    43    44   ar
    13    44    45   ar
    14    45    46   ar
    15    46    47   ar
    16    47    48   ar
    17    48    49   ar
    18    29    30    1
    19    30    31    2
    20    30    32   am
    21    32    34    1
    22    34    35   ar
    23    35    36   ar
    24    36    37   ar
    25    37    38   ar
    26    38    39   ar
    27     8     9   ar
    28     9    10    1
    29     9    11   ar
    30    11    12   ar
    31    12    13    1
    32    13    14    1
    33    14    15    1
    34    15    16    1
    35    16    19    1
    36    19    20   ar
    37    20    21   ar
    38    21    22   ar
    39    22    25    1
    40    25    26    1
    41    25    27    1
    42    25    28    1
    43    22    23   ar
    44    23    24   ar
    45    16    17    1
    46    17    18    1
    47    12     6   ar
    48    18    13    1
    49    49    41   ar
    50    39    34   ar
    51    24    19   ar
    52    49    44   ar
    53     3     4    1
    54    43    50    1
    55    32    33    1
@<TRIPOS>MOLECULE
*****
 50 55 0 0 0
SMALL
GASTEIGER

@<TRIPOS>ATOM
      1 C          13.8187   82.9756   24.8703 C.2     1  UNL1        0.2483
      2 O          14.2931   83.5528   25.8868 O.2     1  UNL1       -0.2701
      3 N          14.0060   83.5513   23.5652 N.am    1  UNL1       -0.2945
      4 H          13.5157   83.1124   22.7533 H       1  UNL1        0.1501
      5 C           9.4138   80.6748   25.5442 C.3     1  UNL1        0.0323
      6 C          10.9059   80.5891   25.3717 C.ar    1  UNL1       -0.0082
      7 C          11.6506   81.7695   25.2126 C.ar    1  UNL1        0.0037
      8 C          13.0446   81.7254   25.0415 C.ar    1  UNL1        0.0805
      9 C          13.6934   80.4777   25.0296 C.ar    1  UNL1        0.1457
     10 F          15.0411   80.3953   24.8866 F       1  UNL1       -0.2040
     11 C          12.9613   79.3024   25.2061 C.ar    1  UNL1        0.0440
     12 C          11.5735   79.3455   25.3906 C.ar    1  UNL1        0.0461
     13 N          10.8559   78.1184   25.5956 N.pl3   1  UNL1       -0.3043
     14 C          11.0554   77.3710   26.8423 C.3     1  UNL1        0.1123
     15 C          10.3069   76.0333   26.8218 C.3     1  UNL1        0.1136
     16 N           8.9220   76.2181   26.3573 N.pl3   1  UNL1       -0.2897
     17 C           8.6425   77.1283   25.2313 C.3     1  UNL1        0.1136
     18 C           9.9301   77.6278   24.5712 C.3     1  UNL1        0.1123
     19 C           7.8708   75.3830   26.8952 C.ar    1  UNL1        0.1318
     20 C           7.0759   74.5769   26.0612 C.ar    1  UNL1        0.0343
     21 C           6.0726   73.7830   26.6188 C.ar    1  UNL1        0.0083
     22 C           5.8672   73.7729   28.0060 C.ar    1  UNL1        0.0906
     23 C           6.6604   74.6123   28.8022 C.ar    1  UNL1        0.1041
     24 N           7.6304   75.3780   28.2368 N.ar    1  UNL1       -0.2292
     25 C           4.7540   72.9588   28.6145 C.3     1  UNL1        0.4200
     26 F           4.9238   71.6297   28.2749 F       1  UNL1       -0.1658
     27 F           4.7612   73.0766   29.9937 F       1  UNL1       -0.1658
     28 F           3.5236   73.3897   28.1496 F       1  UNL1       -0.1658
     29 C          14.5782   84.8894   23.3707 C.3     1  UNL1        0.1535
     30 C          15.0176   85.0620   21.9408 C.2     1  UNL1        0.2443
     31 O          16.0453   85.7463   21.6809 O.2     1  UNL1       -0.2730
     32 N          14.3250   84.3665   20.8918 N.am    1  UNL1       -0.2825
     33 H          13.7065   83.5684   21.1623 H       1  UNL1        0.1549
     34 C          14.5150   84.6272   19.4905 C.ar    1  UNL1        0.0535
     35 C          15.3788   83.8432   18.7064 C.ar    1  UNL1        0.0353
     36 C          15.5506   84.1503   17.3541 C.ar    1  UNL1        0.1002
     37 N          14.8972   85.2084   16.8058 N.ar    1  UNL1       -0.2422
     38 C          14.0703   85.9946   17.5443 C.ar    1  UNL1        0.1002
     39 C          13.8714   85.7234   18.9002 C.ar    1  UNL1        0.0353
     40 C          13.5480   85.9706   23.7381 C.3     1  UNL1        0.0569
     41 C          14.2139   87.1813   24.3254 C.ar    1  UNL1       -0.0017
     42 C          14.5014   88.3707   23.6613 C.ar    1  UNL1        0.0681
     43 N          14.9796   89.2921   24.5284 N.ar    1  UNL1       -0.3523
     44 C          14.9844   88.6993   25.7349 C.ar    1  UNL1        0.0563
     45 C          15.3586   89.2653   26.9526 C.ar    1  UNL1        0.0170
     46 C          15.2483   88.4707   28.1085 C.ar    1  UNL1        0.0015
     47 C          14.7657   87.1457   28.0231 C.ar    1  UNL1        0.0001
     48 C          14.3907   86.6024   26.7809 C.ar    1  UNL1        0.0012
     49 C          14.5200   87.4114   25.6520 C.ar    1  UNL1        0.0131
     50 H          15.2591   90.2734   24.3061 H       1  UNL1        0.1660
@<TRIPOS>BOND
     1     5     6    1
     2     6     7   ar
     3     7     8   ar
     4     8     1    1
     5     1     2    2
     6     1     3   am
     7     3    29    1
     8    29    40    1
     9    40    41    1
    10    41    42   ar
    11    42    43   ar
    12    43    44   ar
    13    44    45   ar
    14    45    46   ar
    15    46    47   ar
    16    47    48   ar
    17    48    49   ar
    18    29    30    1
    19    30    31    2
    20    30    32   am
    21    32    34    1
    22    34    35   ar
    23    35    36   ar
    24    36    37   ar
    25    37    38   ar
    26    38    39   ar
    27     8     9   ar
    28     9    10    1
    29     9    11   ar
    30    11    12   ar
    31    12    13    1
    32    13    14    1
    33    14    15    1
    34    15    16    1
    35    16    19    1
    36    19    20   ar
    37    20    21   ar
    38    21    22   ar
    39    22    25    1
    40    25    26    1
    41    25    27    1
    42    25    28    1
    43    22    23   ar
    44    23    24   ar
    45    16    17    1
    46    17    18    1
    47    12     6   ar
    48    18    13    1
    49    49    41   ar
    50    39    34   ar
    51    24    19   ar
    52    49    44   ar
    53     3     4    1
    54    43    50    1
    55    32    33    1
@<TRIPOS>MOLECULE
*****
 50 55 0 0 0
SMALL
GASTEIGER

@<TRIPOS>ATOM
      1 C           8.7142   75.8511   25.8466 C.2     1  UNL1        0.2483
      2 O           8.8104   75.1031   26.8578 O.2     1  UNL1       -0.2701
      3 N           7.8140   75.5034   24.7796 N.am    1  UNL1       -0.2945
      4 H           7.8291   76.0805   23.9084 H       1  UNL1        0.1501
      5 C           9.8353   80.1845   23.5849 C.3     1  UNL1        0.0323
      6 C          10.1181   79.1781   24.6667 C.ar    1  UNL1       -0.0082
      7 C           9.3262   78.0212   24.7565 C.ar    1  UNL1        0.0037
      8 C           9.5578   77.0644   25.7591 C.ar    1  UNL1        0.0805
      9 C          10.5980   77.2777   26.6813 C.ar    1  UNL1        0.1457
     10 F          10.8653   76.3668   27.6519 F       1  UNL1       -0.2040
     11 C          11.4003   78.4160   26.5858 C.ar    1  UNL1        0.0440
     12 C          11.1796   79.3638   25.5785 C.ar    1  UNL1        0.0461
     13 N          12.0412   80.5099   25.4943 N.pl3   1  UNL1       -0.3043
     14 C          13.3616   80.3696   24.8701 C.3     1  UNL1        0.1123
     15 C          14.1795   81.6608   24.9884 C.3     1  UNL1        0.1136
     16 N          13.3689   82.8282   24.6034 N.pl3   1  UNL1       -0.2897
     17 C          11.9616   82.9170   25.0346 C.3     1  UNL1        0.1136
     18 C          11.5978   81.8037   26.0202 C.3     1  UNL1        0.1123
     19 C          14.0017   83.9532   23.9509 C.ar    1  UNL1        0.1318
     20 C          13.9187   85.2516   24.4843 C.ar    1  UNL1        0.0343
     21 C          14.5450   86.3110   23.8260 C.ar    1  UNL1        0.0083
     22 C          15.2700   86.0824   22.6476 C.ar    1  UNL1        0.0906
     23 C          15.3055   84.7789   22.1305 C.ar    1  UNL1        0.1041
     24 N          14.6867   83.7632   22.7880 N.ar    1  UNL1       -0.2292
     25 C          15.9077   87.2260   21.9007 C.3     1  UNL1        0.4200
     26 F          17.1174   87.5379   22.4923 F       1  UNL1       -0.1658
     27 F          16.1276   86.8825   20.5779 F       1  UNL1       -0.1658
     28 F          15.0906   88.3429   21.9279 F       1  UNL1       -0.1658
     29 C           7.1208   74.2102   24.7256 C.3     1  UNL1        0.1535
     30 C           6.0530   74.1502   25.7856 C.2     1  UNL1        0.2443
     31 O           4.9509   74.7345   25.5965 O.2     1  UNL1       -0.2730
     32 N           6.2562   73.3471   26.9594 N.am    1  UNL1       -0.2825
     33 H           7.0166   72.6303   26.9335 H       1  UNL1        0.1549
     34 C           5.4107   73.3913   28.1218 C.ar    1  UNL1        0.0535
     35 C           4.4520   72.3948   28.3730 C.ar    1  UNL1        0.0353
     36 C           3.6357   72.4935   29.5027 C.ar    1  UNL1        0.1002
     37 N           3.7597   73.5536   30.3442 N.ar    1  UNL1       -0.2422
     38 C           4.6652   74.5411   30.1161 C.ar    1  UNL1        0.1002
     39 C           5.5000   74.4819   28.9976 C.ar    1  UNL1        0.0353
     40 C           6.4955   73.9956   23.3370 C.3     1  UNL1        0.0569
     41 C           6.3502   75.2943   22.5976 C.ar    1  UNL1       -0.0017
     42 C           5.1915   76.0583   22.4880 C.ar    1  UNL1        0.0681
     43 N           5.4553   77.2298   21.8657 N.ar    1  UNL1       -0.3523
     44 C           6.7716   77.2173   21.5932 C.ar    1  UNL1        0.0563
     45 C           7.5188   78.2276   20.9895 C.ar    1  UNL1        0.0170
     46 C           8.9016   78.0194   20.8345 C.ar    1  UNL1        0.0015
     47 C           9.5006   76.8226   21.2871 C.ar    1  UNL1        0.0001
     48 C           8.7222   75.8223   21.8972 C.ar    1  UNL1        0.0012
     49 C           7.3530   76.0539   22.0285 C.ar    1  UNL1        0.0131
     50 H           4.7765   77.9979   21.6662 H       1  UNL1        0.1660
@<TRIPOS>BOND
     1     5     6    1
     2     6     7   ar
     3     7     8   ar
     4     8     1    1
     5     1     2    2
     6     1     3   am
     7     3    29    1
     8    29    40    1
     9    40    41    1
    10    41    42   ar
    11    42    43   ar
    12    43    44   ar
    13    44    45   ar
    14    45    46   ar
    15    46    47   ar
    16    47    48   ar
    17    48    49   ar
    18    29    30    1
    19    30    31    2
    20    30    32   am
    21    32    34    1
    22    34    35   ar
    23    35    36   ar
    24    36    37   ar
    25    37    38   ar
    26    38    39   ar
    27     8     9   ar
    28     9    10    1
    29     9    11   ar
    30    11    12   ar
    31    12    13    1
    32    13    14    1
    33    14    15    1
    34    15    16    1
    35    16    19    1
    36    19    20   ar
    37    20    21   ar
    38    21    22   ar
    39    22    25    1
    40    25    26    1
    41    25    27    1
    42    25    28    1
    43    22    23   ar
    44    23    24   ar
    45    16    17    1
    46    17    18    1
    47    12     6   ar
    48    18    13    1
    49    49    41   ar
    50    39    34   ar
    51    24    19   ar
    52    49    44   ar
    53     3     4    1
    54    43    50    1
    55    32    33    1
@<TRIPOS>MOLECULE
*****
 50 55 0 0 0
SMALL
GASTEIGER

@<TRIPOS>ATOM
      1 C           5.6077   74.3982   21.9615 C.2     1  UNL1        0.2483
      2 O           6.3307   73.6028   21.3011 O.2     1  UNL1       -0.2701
      3 N           4.3304   74.8076   21.4412 N.am    1  UNL1       -0.2945
      4 H           3.7982   75.5461   21.9545 H       1  UNL1        0.1501
      5 C           6.3909   73.7685   26.8748 C.3     1  UNL1        0.0323
      6 C           6.4893   74.6351   25.6490 C.ar    1  UNL1       -0.0082
      7 C           6.0191   74.1460   24.4190 C.ar    1  UNL1        0.0037
      8 C           6.1026   74.9258   23.2531 C.ar    1  UNL1        0.0805
      9 C           6.6674   76.2115   23.3289 C.ar    1  UNL1        0.1457
     10 F           6.7474   77.0025   22.2282 F       1  UNL1       -0.2040
     11 C           7.1192   76.7105   24.5517 C.ar    1  UNL1        0.0440
     12 C           7.0240   75.9398   25.7173 C.ar    1  UNL1        0.0461
     13 N           7.4747   76.4953   26.9628 N.pl3   1  UNL1       -0.3043
     14 C           8.8406   77.0222   27.0601 C.3     1  UNL1        0.1123
     15 C           9.1767   77.4518   28.4928 C.3     1  UNL1        0.1136
     16 N           8.0926   78.2718   29.0589 N.pl3   1  UNL1       -0.2897
     17 C           6.6873   77.8990   28.8126 C.3     1  UNL1        0.1136
     18 C           6.5733   76.5401   28.1173 C.3     1  UNL1        0.1123
     19 C           8.4109   79.3346   29.9867 C.ar    1  UNL1        0.1318
     20 C           9.0227   79.0683   31.2244 C.ar    1  UNL1        0.0343
     21 C           9.3161   80.1217   32.0917 C.ar    1  UNL1        0.0083
     22 C           9.0201   81.4428   31.7260 C.ar    1  UNL1        0.0906
     23 C           8.3833   81.6660   30.4962 C.ar    1  UNL1        0.1041
     24 N           8.1058   80.6244   29.6687 N.ar    1  UNL1       -0.2292
     25 C           9.2857   82.5833   32.6752 C.3     1  UNL1        0.4200
     26 F           8.0899   83.2005   32.9912 F       1  UNL1       -0.1658
     27 F           9.8767   82.1221   33.8389 F       1  UNL1       -0.1658
     28 F          10.1341   83.5119   32.0974 F       1  UNL1       -0.1658
     29 C           3.8953   74.4807   20.0776 C.3     1  UNL1        0.1535
     30 C           2.4544   74.0434   20.0844 C.2     1  UNL1        0.2443
     31 O           2.0739   73.1574   20.8980 O.2     1  UNL1       -0.2730
     32 N           1.5029   74.7063   19.2364 N.am    1  UNL1       -0.2825
     33 H           1.7729   75.6313   18.8312 H       1  UNL1        0.1549
     34 C           0.1660   74.2318   19.0012 C.ar    1  UNL1        0.0535
     35 C          -0.0811   72.9316   18.5279 C.ar    1  UNL1        0.0353
     36 C          -1.3961   72.5235   18.2902 C.ar    1  UNL1        0.1002
     37 N          -2.4269   73.3835   18.5023 N.ar    1  UNL1       -0.2422
     38 C          -2.2163   74.6522   18.9419 C.ar    1  UNL1        0.1002
     39 C          -0.9170   75.1011   19.1907 C.ar    1  UNL1        0.0353
     40 C           4.0709   75.6975   19.1535 C.3     1  UNL1        0.0569
     41 C           4.1603   76.9724   19.9415 C.ar    1  UNL1       -0.0017
     42 C           5.1726   77.9249   19.8611 C.ar    1  UNL1        0.0681
     43 N           4.8639   79.0068   20.6117 N.ar    1  UNL1       -0.3523
     44 C           3.6609   78.7511   21.1545 C.ar    1  UNL1        0.0563
     45 C           2.9099   79.5895   21.9770 C.ar    1  UNL1        0.0170
     46 C           1.6493   79.1340   22.4046 C.ar    1  UNL1        0.0015
     47 C           1.1704   77.8680   21.9998 C.ar    1  UNL1        0.0001
     48 C           1.9483   77.0451   21.1652 C.ar    1  UNL1        0.0012
     49 C           3.1973   77.5204   20.7653 C.ar    1  UNL1        0.0131
     50 H           5.4340   79.8749   20.7207 H       1  UNL1        0.1660
@<TRIPOS>BOND
     1     5     6    1
     2     6     7   ar
     3     7     8   ar
     4     8     1    1
     5     1     2    2
     6     1     3   am
     7     3    29    1
     8    29    40    1
     9    40    41    1
    10    41    42   ar
    11    42    43   ar
    12    43    44   ar
    13    44    45   ar
    14    45    46   ar
    15    46    47   ar
    16    47    48   ar
    17    48    49   ar
    18    29    30    1
    19    30    31    2
    20    30    32   am
    21    32    34    1
    22    34    35   ar
    23    35    36   ar
    24    36    37   ar
    25    37    38   ar
    26    38    39   ar
    27     8     9   ar
    28     9    10    1
    29     9    11   ar
    30    11    12   ar
    31    12    13    1
    32    13    14    1
    33    14    15    1
    34    15    16    1
    35    16    19    1
    36    19    20   ar
    37    20    21   ar
    38    21    22   ar
    39    22    25    1
    40    25    26    1
    41    25    27    1
    42    25    28    1
    43    22    23   ar
    44    23    24   ar
    45    16    17    1
    46    17    18    1
    47    12     6   ar
    48    18    13    1
    49    49    41   ar
    50    39    34   ar
    51    24    19   ar
    52    49    44   ar
    53     3     4    1
    54    43    50    1
    55    32    33    1
