@<TRIPOS>MOLECULE
*****
 45 50 0 0 0
SMALL
GASTEIGER

@<TRIPOS>ATOM
      1 C          58.6369   90.1967    5.8434 C.ar    1  UNL1        0.0702
      2 C          59.9476   90.5097    5.4534 C.ar    1  UNL1        0.0191
      3 C          60.1754   91.4524    4.4495 C.ar    1  UNL1        0.0356
      4 C          59.0843   92.0802    3.8205 C.ar    1  UNL1        0.1318
      5 N          57.8220   91.7413    4.2073 N.ar    1  UNL1       -0.2279
      6 C          57.5766   90.8268    5.1819 C.ar    1  UNL1        0.1149
      7 N          59.2773   93.0566    2.7690 N.pl3   1  UNL1       -0.2932
      8 C          58.5219   92.9614    1.5095 C.3     1  UNL1        0.0923
      9 C          59.4684   92.9702    0.2969 C.3     1  UNL1        0.0252
     10 C          60.7282   93.8537    0.5002 C.3     1  UNL1        0.0472
     11 C          60.5167   94.8906    1.6192 C.3     1  UNL1        0.0252
     12 C          60.2184   94.1773    2.9461 C.3     1  UNL1        0.0923
     13 C          61.1375   94.5360   -0.8199 C.3     1  UNL1        0.2054
     14 O          62.5288   94.3525   -1.0886 O.3     1  UNL1       -0.4755
     15 C          63.4947   93.9405   -0.1555 C.ar    1  UNL1        0.1388
     16 C          64.8238   94.4031   -0.1810 C.ar    1  UNL1        0.0369
     17 C          65.7434   93.9480    0.7653 C.ar    1  UNL1        0.0033
     18 C          65.3495   93.0387    1.7488 C.ar    1  UNL1        0.0066
     19 C          64.0223   92.5790    1.8040 C.ar    1  UNL1        0.0785
     20 C          63.1047   93.0339    0.8387 C.ar    1  UNL1        0.0433
     21 C          63.6168   91.6124    2.8536 C.2     1  UNL1        0.3381
     22 O          62.4011   91.5025    3.1656 O.2     1  UNL1       -0.2451
     23 O          64.5458   90.8003    3.5034 O.3     1  UNL1       -0.4771
     24 H          65.5194   90.7601    3.2320 H       1  UNL1        0.2954
     25 C          59.3759   88.4280    7.5015 C.2     1  UNL1        0.2839
     26 O          60.5545   88.8668    7.5850 O.2     1  UNL1       -0.2665
     27 N          58.3623   89.2129    6.8556 N.am    1  UNL1       -0.2766
     28 H          57.3857   89.1406    7.2188 H       1  UNL1        0.1553
     29 C          60.8973   87.0345    9.9921 C.3     1  UNL1        0.0345
     30 C          59.7119   86.5358    9.2222 C.ar    1  UNL1        0.0202
     31 C          59.0499   87.1450    8.1487 C.ar    1  UNL1        0.1946
     32 O          58.0288   86.3987    7.7656 O.2     1  UNL1       -0.4492
     33 C          58.0078   85.3269    8.5197 C.ar    1  UNL1        0.1452
     34 C          57.1069   84.2693    8.4607 C.ar    1  UNL1        0.0375
     35 C          57.2712   83.2108    9.3714 C.ar    1  UNL1        0.0031
     36 C          58.3277   83.2250   10.3221 C.ar    1  UNL1        0.0002
     37 C          59.2224   84.3218   10.3485 C.ar    1  UNL1        0.0028
     38 C          59.0286   85.3542    9.4305 C.ar    1  UNL1        0.0337
     39 C          58.4925   82.1009   11.2784 C.ar    1  UNL1        0.0001
     40 C          58.3771   80.7676   10.8422 C.ar    1  UNL1        0.0009
     41 C          58.5315   79.7108   11.7445 C.ar    1  UNL1        0.0114
     42 C          58.8031   79.9710   13.0906 C.ar    1  UNL1        0.0577
     43 CL         58.9967   78.6433   14.2204 Cl      1  UNL1       -0.0822
     44 C          58.9200   81.2911   13.5351 C.ar    1  UNL1        0.0114
     45 C          58.7655   82.3508   12.6365 C.ar    1  UNL1        0.0009
@<TRIPOS>BOND
     1    29    30    1
     2    30    31   ar
     3    31    25    1
     4    25    26    2
     5    25    27   am
     6    27     1    1
     7     1     2   ar
     8     2     3   ar
     9     3     4   ar
    10     4     7    1
    11     7     8    1
    12     8     9    1
    13     9    10    1
    14    10    13    1
    15    13    14    1
    16    14    15    1
    17    15    16   ar
    18    16    17   ar
    19    17    18   ar
    20    18    19   ar
    21    19    21    1
    22    21    22    2
    23    21    23    1
    24    19    20   ar
    25    10    11    1
    26    11    12    1
    27     4     5   ar
    28     5     6   ar
    29    31    32   ar
    30    32    33   ar
    31    33    34   ar
    32    34    35   ar
    33    35    36   ar
    34    36    39    1
    35    39    40   ar
    36    40    41   ar
    37    41    42   ar
    38    42    43    1
    39    42    44   ar
    40    44    45   ar
    41    36    37   ar
    42    37    38   ar
    43    38    30   ar
    44     6     1   ar
    45    38    33   ar
    46    12     7    1
    47    45    39   ar
    48    20    15   ar
    49    27    28    1
    50    23    24    1
@<TRIPOS>MOLECULE
*****
 45 50 0 0 0
SMALL
GASTEIGER

@<TRIPOS>ATOM
      1 C          59.2072   90.1561    6.0070 C.ar    1  UNL1        0.0702
      2 C          60.4527   90.5405    5.4881 C.ar    1  UNL1        0.0191
      3 C          60.5233   91.4571    4.4378 C.ar    1  UNL1        0.0356
      4 C          59.3391   91.9862    3.8919 C.ar    1  UNL1        0.1318
      5 N          58.1433   91.5790    4.4039 N.ar    1  UNL1       -0.2279
      6 C          58.0505   90.6883    5.4259 C.ar    1  UNL1        0.1149
      7 N          59.3684   92.9322    2.7963 N.pl3   1  UNL1       -0.2932
      8 C          58.6403   92.6560    1.5474 C.3     1  UNL1        0.0923
      9 C          59.5734   92.7663    0.3293 C.3     1  UNL1        0.0252
     10 C          60.6691   93.8545    0.4842 C.3     1  UNL1        0.0472
     11 C          60.2876   94.8919    1.5568 C.3     1  UNL1        0.0252
     12 C          60.1105   94.2002    2.9165 C.3     1  UNL1        0.0923
     13 C          60.9608   94.5345   -0.8679 C.3     1  UNL1        0.2054
     14 O          62.3662   94.6695   -1.0877 O.3     1  UNL1       -0.4755
     15 C          63.3765   94.2164   -0.2232 C.ar    1  UNL1        0.1388
     16 C          64.6995   94.6934   -0.2823 C.ar    1  UNL1        0.0369
     17 C          65.6644   94.1961    0.5950 C.ar    1  UNL1        0.0033
     18 C          65.3226   93.2297    1.5428 C.ar    1  UNL1        0.0066
     19 C          64.0029   92.7539    1.6317 C.ar    1  UNL1        0.0785
     20 C          63.0390   93.2522    0.7353 C.ar    1  UNL1        0.0433
     21 C          63.6529   91.7266    2.6428 C.2     1  UNL1        0.3381
     22 O          62.4425   91.4623    2.8717 O.2     1  UNL1       -0.2451
     23 O          64.6310   91.0239    3.3457 O.3     1  UNL1       -0.4771
     24 H          65.6178   91.1088    3.1398 H       1  UNL1        0.2954
     25 C          59.8766   89.2407    8.2737 C.2     1  UNL1        0.2839
     26 O          60.3381   90.3394    8.6840 O.2     1  UNL1       -0.2665
     27 N          59.0938   89.1957    7.0713 N.am    1  UNL1       -0.2766
     28 H          58.3259   88.4898    7.0167 H       1  UNL1        0.1553
     29 C          62.3499   88.6130   10.2607 C.3     1  UNL1        0.0345
     30 C          61.1603   87.7563    9.9478 C.ar    1  UNL1        0.0202
     31 C          60.0864   88.0338    9.0926 C.ar    1  UNL1        0.1946
     32 O          59.2224   87.0341    9.1137 O.2     1  UNL1       -0.4492
     33 C          59.6910   86.1134    9.9202 C.ar    1  UNL1        0.1452
     34 C          59.1099   84.8899   10.2349 C.ar    1  UNL1        0.0375
     35 C          59.7914   84.0464   11.1298 C.ar    1  UNL1        0.0031
     36 C          61.0366   84.4361   11.6937 C.ar    1  UNL1        0.0002
     37 C          61.5926   85.6910   11.3469 C.ar    1  UNL1        0.0028
     38 C          60.8884   86.5019   10.4565 C.ar    1  UNL1        0.0337
     39 C          61.7480   83.5365   12.6369 C.ar    1  UNL1        0.0001
     40 C          63.0968   83.7676   12.9665 C.ar    1  UNL1        0.0009
     41 C          63.7651   82.9186   13.8539 C.ar    1  UNL1        0.0114
     42 C          63.0965   81.8311   14.4230 C.ar    1  UNL1        0.0577
     43 CL         63.9371   80.7679   15.5364 Cl      1  UNL1       -0.0822
     44 C          61.7570   81.5920   14.1032 C.ar    1  UNL1        0.0114
     45 C          61.0852   82.4378   13.2156 C.ar    1  UNL1        0.0009
@<TRIPOS>BOND
     1    29    30    1
     2    30    31   ar
     3    31    25    1
     4    25    26    2
     5    25    27   am
     6    27     1    1
     7     1     2   ar
     8     2     3   ar
     9     3     4   ar
    10     4     7    1
    11     7     8    1
    12     8     9    1
    13     9    10    1
    14    10    13    1
    15    13    14    1
    16    14    15    1
    17    15    16   ar
    18    16    17   ar
    19    17    18   ar
    20    18    19   ar
    21    19    21    1
    22    21    22    2
    23    21    23    1
    24    19    20   ar
    25    10    11    1
    26    11    12    1
    27     4     5   ar
    28     5     6   ar
    29    31    32   ar
    30    32    33   ar
    31    33    34   ar
    32    34    35   ar
    33    35    36   ar
    34    36    39    1
    35    39    40   ar
    36    40    41   ar
    37    41    42   ar
    38    42    43    1
    39    42    44   ar
    40    44    45   ar
    41    36    37   ar
    42    37    38   ar
    43    38    30   ar
    44     6     1   ar
    45    38    33   ar
    46    12     7    1
    47    45    39   ar
    48    20    15   ar
    49    27    28    1
    50    23    24    1
