@<TRIPOS>MOLECULE
*****
 37 41 0 0 0
SMALL
GASTEIGER

@<TRIPOS>ATOM
      1 C         -18.9294   52.2390  -11.4815 C.ar    1  UNL1       -0.0194
      2 C         -18.8197   53.3378  -10.5904 C.ar    1  UNL1        0.0119
      3 C         -19.8661   53.6518   -9.6950 C.ar    1  UNL1        0.0670
      4 C         -21.0072   52.8419   -9.7339 C.ar    1  UNL1        0.1116
      5 N         -22.1320   52.9581   -9.0057 N.ar    1  UNL1       -0.2258
      6 C         -22.9102   51.9399   -9.4625 C.ar    1  UNL1        0.1406
      7 N         -22.3113   51.2109  -10.4416 N.ar    1  UNL1       -0.3373
      8 C         -21.1175   51.7959  -10.5984 C.ar    1  UNL1        0.0765
      9 C         -20.1063   51.4592  -11.4931 C.ar    1  UNL1        0.0144
     10 H         -22.6727   50.3830  -10.9636 H       1  UNL1        0.1674
     11 N         -19.7509   54.7626   -8.7868 N.pl3   1  UNL1       -0.3035
     12 C         -20.3114   56.0666   -9.1512 C.3     1  UNL1        0.1082
     13 C         -19.4252   57.1853   -8.6003 C.3     1  UNL1        0.0941
     14 N         -19.2109   57.0040   -7.1496 N.3     1  UNL1       -0.2647
     15 C         -18.5159   55.7218   -6.8995 C.3     1  UNL1        0.0941
     16 C         -19.3680   54.5492   -7.3886 C.3     1  UNL1        0.1082
     17 C         -18.4277   58.1351   -6.6121 C.3     1  UNL1        0.1200
     18 C         -19.3369   59.2659   -6.2238 C.ar    1  UNL1        0.0885
     19 N         -20.3450   59.1287   -5.3380 N.ar    1  UNL1       -0.2273
     20 C         -20.8628   60.3698   -5.2250 C.ar    1  UNL1        0.1780
     21 N         -20.2151   61.2764   -5.9849 N.ar    1  UNL1       -0.3128
     22 C         -19.2594   60.5844   -6.6387 C.ar    1  UNL1        0.0537
     23 C         -18.2421   61.1674   -7.5769 C.3     1  UNL1        0.0514
     24 C         -20.5490   62.6971   -6.0932 C.3     1  UNL1        0.1073
     25 C         -20.0946   63.4458   -4.8458 C.3     1  UNL1        0.0265
     26 C         -24.2701   51.6732   -8.9285 C.ar    1  UNL1        0.0339
     27 C         -25.3946   52.3669   -9.4022 C.ar    1  UNL1        0.0027
     28 C         -26.6651   52.1005   -8.8859 C.ar    1  UNL1       -0.0042
     29 C         -26.8587   51.1322   -7.8774 C.ar    1  UNL1       -0.0228
     30 C         -25.7192   50.4413   -7.4060 C.ar    1  UNL1       -0.0042
     31 C         -24.4494   50.7099   -7.9237 C.ar    1  UNL1        0.0027
     32 C         -28.2790   50.8691   -7.3352 C.3     1  UNL1        0.0189
     33 C         -28.6208   51.9192   -6.2559 C.3     1  UNL1        0.0044
     34 C         -29.2984   50.9710   -8.4907 C.3     1  UNL1        0.0044
     35 C         -28.4346   49.4689   -6.6942 C.3     1  UNL1        0.0044
     36 C         -16.4974   51.7471  -11.7132 C.3     1  UNL1        0.0050
     37 C         -17.8181   51.9402  -12.4506 C.3     1  UNL1        0.0265
@<TRIPOS>BOND
     1    36    37    1
     2    37     1    1
     3     1     2   ar
     4     2     3   ar
     5     3    11    1
     6    11    12    1
     7    12    13    1
     8    13    14    1
     9    14    17    1
    10    17    18    1
    11    18    19   ar
    12    19    20   ar
    13    20    21   ar
    14    21    24    1
    15    24    25    1
    16    21    22   ar
    17    22    23    1
    18    14    15    1
    19    15    16    1
    20     3     4   ar
    21     4     5   ar
    22     5     6   ar
    23     6    26    1
    24    26    27   ar
    25    27    28   ar
    26    28    29   ar
    27    29    32    1
    28    32    33    1
    29    32    34    1
    30    32    35    1
    31    29    30   ar
    32    30    31   ar
    33     6     7   ar
    34     7     8   ar
    35     8     9   ar
    36     9     1   ar
    37    16    11    1
    38     8     4   ar
    39    22    18   ar
    40    31    26   ar
    41     7    10    1
@<TRIPOS>MOLECULE
*****
 37 41 0 0 0
SMALL
GASTEIGER

@<TRIPOS>ATOM
      1 C         -30.2131   51.0005   -6.9705 C.ar    1  UNL1       -0.0194
      2 C         -30.4581   50.5621   -8.2976 C.ar    1  UNL1        0.0119
      3 C         -29.4189   50.5308   -9.2538 C.ar    1  UNL1        0.0670
      4 C         -28.1520   50.9563   -8.8373 C.ar    1  UNL1        0.1116
      5 N         -27.0247   51.0417   -9.5658 N.ar    1  UNL1       -0.2258
      6 C         -26.1144   51.5331   -8.6821 C.ar    1  UNL1        0.1406
      7 N         -26.6387   51.7563   -7.4475 N.ar    1  UNL1       -0.3373
      8 C         -27.9206   51.3896   -7.5675 C.ar    1  UNL1        0.0765
      9 C         -28.9209   51.4331   -6.6012 C.ar    1  UNL1        0.0144
     10 H         -26.1736   52.1238   -6.5890 H       1  UNL1        0.1674
     11 N         -29.6671   50.0795  -10.5979 N.pl3   1  UNL1       -0.3035
     12 C         -29.6591   51.0394  -11.7051 C.3     1  UNL1        0.1082
     13 C         -30.7012   50.6359  -12.7500 C.3     1  UNL1        0.0941
     14 N         -30.4962   49.2328  -13.1654 N.3     1  UNL1       -0.2647
     15 C         -30.6615   48.3337  -12.0019 C.3     1  UNL1        0.0941
     16 C         -29.6187   48.6528  -10.9291 C.3     1  UNL1        0.1082
     17 C         -31.4510   48.8811  -14.2360 C.3     1  UNL1        0.1200
     18 C         -30.7939   48.9898  -15.5824 C.ar    1  UNL1        0.0885
     19 N         -30.4812   50.1703  -16.1554 N.ar    1  UNL1       -0.2273
     20 C         -29.8606   49.8307  -17.3047 C.ar    1  UNL1        0.1780
     21 N         -29.7570   48.4959  -17.4668 N.ar    1  UNL1       -0.3128
     22 C         -30.3638   47.9522  -16.3917 C.ar    1  UNL1        0.0537
     23 C         -30.4678   46.4842  -16.0931 C.3     1  UNL1        0.0514
     24 C         -29.1543   47.8176  -18.6151 C.3     1  UNL1        0.1073
     25 C         -27.7187   48.2881  -18.8162 C.3     1  UNL1        0.0265
     26 C         -24.6994   51.7891   -9.0531 C.ar    1  UNL1        0.0339
     27 C         -23.6363   51.2919   -8.2831 C.ar    1  UNL1        0.0027
     28 C         -22.3123   51.5446   -8.6502 C.ar    1  UNL1       -0.0042
     29 C         -22.0017   52.3035   -9.7990 C.ar    1  UNL1       -0.0228
     30 C         -23.0798   52.8013  -10.5657 C.ar    1  UNL1       -0.0042
     31 C         -24.4033   52.5475  -10.1962 C.ar    1  UNL1        0.0027
     32 C         -20.5256   52.5588  -10.1684 C.3     1  UNL1        0.0189
     33 C         -19.6495   52.4364   -8.9027 C.3     1  UNL1        0.0044
     34 C         -20.0679   51.5162  -11.2116 C.3     1  UNL1        0.0044
     35 C         -20.2849   53.9636  -10.7721 C.3     1  UNL1        0.0044
     36 C         -31.1108   52.1779   -4.9660 C.3     1  UNL1        0.0050
     37 C         -31.3399   51.0579   -5.9752 C.3     1  UNL1        0.0265
@<TRIPOS>BOND
     1    36    37    1
     2    37     1    1
     3     1     2   ar
     4     2     3   ar
     5     3    11    1
     6    11    12    1
     7    12    13    1
     8    13    14    1
     9    14    17    1
    10    17    18    1
    11    18    19   ar
    12    19    20   ar
    13    20    21   ar
    14    21    24    1
    15    24    25    1
    16    21    22   ar
    17    22    23    1
    18    14    15    1
    19    15    16    1
    20     3     4   ar
    21     4     5   ar
    22     5     6   ar
    23     6    26    1
    24    26    27   ar
    25    27    28   ar
    26    28    29   ar
    27    29    32    1
    28    32    33    1
    29    32    34    1
    30    32    35    1
    31    29    30   ar
    32    30    31   ar
    33     6     7   ar
    34     7     8   ar
    35     8     9   ar
    36     9     1   ar
    37    16    11    1
    38     8     4   ar
    39    22    18   ar
    40    31    26   ar
    41     7    10    1
@<TRIPOS>MOLECULE
*****
 37 41 0 0 0
SMALL
GASTEIGER

@<TRIPOS>ATOM
      1 C         -30.2521   50.8107  -10.5655 C.ar    1  UNL1       -0.0194
      2 C         -30.1230   50.3901   -9.2165 C.ar    1  UNL1        0.0119
      3 C         -28.8741   50.4396   -8.5584 C.ar    1  UNL1        0.0670
      4 C         -27.7803   50.9099   -9.2946 C.ar    1  UNL1        0.1116
      5 N         -26.5001   51.0222   -8.8978 N.ar    1  UNL1       -0.2258
      6 C         -25.8679   51.5008  -10.0035 C.ar    1  UNL1        0.1406
      7 N         -26.7058   51.6802  -11.0592 N.ar    1  UNL1       -0.3373
      8 C         -27.9020   51.3007  -10.5930 C.ar    1  UNL1        0.0765
      9 C         -29.1166   51.2649  -11.2710 C.ar    1  UNL1        0.0144
     10 H         -26.4941   52.0322  -12.0182 H       1  UNL1        0.1674
     11 N         -28.7457   50.0191   -7.1878 N.pl3   1  UNL1       -0.3035
     12 C         -28.3552   48.6408   -6.8790 C.3     1  UNL1        0.1082
     13 C         -29.0690   48.1704   -5.6103 C.3     1  UNL1        0.0941
     14 N         -28.8383   49.1254   -4.5066 N.3     1  UNL1       -0.2647
     15 C         -29.3917   50.4506   -4.8631 C.3     1  UNL1        0.0941
     16 C         -28.6905   51.0046   -6.1048 C.3     1  UNL1        0.1082
     17 C         -29.4581   48.6182   -3.2655 C.3     1  UNL1        0.1200
     18 C         -28.8665   47.2903   -2.8876 C.ar    1  UNL1        0.0885
     19 N         -29.5909   46.1542   -2.8210 N.ar    1  UNL1       -0.2273
     20 C         -28.6877   45.1986   -2.5170 C.ar    1  UNL1        0.1780
     21 N         -27.4335   45.6821   -2.4076 N.ar    1  UNL1       -0.3128
     22 C         -27.5375   47.0102   -2.6195 C.ar    1  UNL1        0.0537
     23 C         -26.3959   47.9854   -2.6467 C.3     1  UNL1        0.0514
     24 C         -26.2421   44.9021   -2.0701 C.3     1  UNL1        0.1073
     25 C         -25.7320   44.1545   -3.2965 C.3     1  UNL1        0.0265
     26 C         -24.4115   51.7902  -10.0277 C.ar    1  UNL1        0.0339
     27 C         -23.7799   52.2856  -11.1791 C.ar    1  UNL1        0.0027
     28 C         -22.4083   52.5511  -11.1803 C.ar    1  UNL1       -0.0042
     29 C         -21.6176   52.3308  -10.0321 C.ar    1  UNL1       -0.0228
     30 C         -22.2634   51.8295   -8.8790 C.ar    1  UNL1       -0.0042
     31 C         -23.6354   51.5644   -8.8805 C.ar    1  UNL1        0.0027
     32 C         -20.1061   52.6375  -10.0765 C.3     1  UNL1        0.0189
     33 C         -19.4589   51.8682  -11.2486 C.3     1  UNL1        0.0044
     34 C         -19.8940   54.1536  -10.2790 C.3     1  UNL1        0.0044
     35 C         -19.3652   52.2288   -8.7804 C.3     1  UNL1        0.0044
     36 C         -31.5432   51.4447  -12.6004 C.3     1  UNL1        0.0050
     37 C         -31.5837   50.7195  -11.2596 C.3     1  UNL1        0.0265
@<TRIPOS>BOND
     1    36    37    1
     2    37     1    1
     3     1     2   ar
     4     2     3   ar
     5     3    11    1
     6    11    12    1
     7    12    13    1
     8    13    14    1
     9    14    17    1
    10    17    18    1
    11    18    19   ar
    12    19    20   ar
    13    20    21   ar
    14    21    24    1
    15    24    25    1
    16    21    22   ar
    17    22    23    1
    18    14    15    1
    19    15    16    1
    20     3     4   ar
    21     4     5   ar
    22     5     6   ar
    23     6    26    1
    24    26    27   ar
    25    27    28   ar
    26    28    29   ar
    27    29    32    1
    28    32    33    1
    29    32    34    1
    30    32    35    1
    31    29    30   ar
    32    30    31   ar
    33     6     7   ar
    34     7     8   ar
    35     8     9   ar
    36     9     1   ar
    37    16    11    1
    38     8     4   ar
    39    22    18   ar
    40    31    26   ar
    41     7    10    1
@<TRIPOS>MOLECULE
*****
 37 41 0 0 0
SMALL
GASTEIGER

@<TRIPOS>ATOM
      1 C         -30.2507   50.7712  -10.5259 C.ar    1  UNL1       -0.0194
      2 C         -30.1266   50.3850   -9.1662 C.ar    1  UNL1        0.0119
      3 C         -28.8818   50.4597   -8.5025 C.ar    1  UNL1        0.0670
      4 C         -27.7871   50.9194   -9.2440 C.ar    1  UNL1        0.1116
      5 N         -26.5101   51.0505   -8.8429 N.ar    1  UNL1       -0.2258
      6 C         -25.8748   51.5060   -9.9566 C.ar    1  UNL1        0.1406
      7 N         -26.7078   51.6533  -11.0211 N.ar    1  UNL1       -0.3373
      8 C         -27.9040   51.2770  -10.5524 C.ar    1  UNL1        0.0765
      9 C         -29.1144   51.2158  -11.2361 C.ar    1  UNL1        0.0144
     10 H         -26.4930   51.9829  -11.9873 H       1  UNL1        0.1674
     11 N         -28.7585   50.0741   -7.1212 N.pl3   1  UNL1       -0.3035
     12 C         -28.5845   51.0990   -6.0884 C.3     1  UNL1        0.1082
     13 C         -27.6697   50.5711   -4.9816 C.3     1  UNL1        0.0941
     14 N         -28.1728   49.2787   -4.4716 N.3     1  UNL1       -0.2647
     15 C         -28.1792   48.2759   -5.5597 C.3     1  UNL1        0.0941
     16 C         -29.1119   48.7196   -6.6881 C.3     1  UNL1        0.1082
     17 C         -27.3329   48.8215   -3.3460 C.3     1  UNL1        0.1200
     18 C         -27.9353   47.6059   -2.7012 C.ar    1  UNL1        0.0885
     19 N         -27.3367   46.3970   -2.7068 N.ar    1  UNL1       -0.2273
     20 C         -28.1599   45.6124   -1.9801 C.ar    1  UNL1        0.1780
     21 N         -29.2335   46.2784   -1.5084 N.ar    1  UNL1       -0.3128
     22 C         -29.1130   47.5378   -1.9767 C.ar    1  UNL1        0.0537
     23 C         -30.0481   48.6754   -1.6827 C.3     1  UNL1        0.0514
     24 C         -30.3133   45.7023   -0.7059 C.3     1  UNL1        0.1073
     25 C         -31.2565   44.8928   -1.5881 C.3     1  UNL1        0.0265
     26 C         -24.4203   51.8051   -9.9798 C.ar    1  UNL1        0.0339
     27 C         -23.8021   52.3593  -11.1115 C.ar    1  UNL1        0.0027
     28 C         -22.4321   52.6328  -11.1121 C.ar    1  UNL1       -0.0042
     29 C         -21.6297   52.3621   -9.9830 C.ar    1  UNL1       -0.0228
     30 C         -22.2620   51.8018   -8.8498 C.ar    1  UNL1       -0.0042
     31 C         -23.6324   51.5288   -8.8518 C.ar    1  UNL1        0.0027
     32 C         -20.1204   52.6797  -10.0260 C.3     1  UNL1        0.0189
     33 C         -19.9172   54.1660  -10.3924 C.3     1  UNL1        0.0044
     34 C         -19.4961   52.4030   -8.6410 C.3     1  UNL1        0.0044
     35 C         -19.3506   51.8302  -11.0660 C.3     1  UNL1        0.0044
     36 C         -31.5837   51.4729  -12.5111 C.3     1  UNL1        0.0050
     37 C         -31.5777   50.6534  -11.2251 C.3     1  UNL1        0.0265
@<TRIPOS>BOND
     1    36    37    1
     2    37     1    1
     3     1     2   ar
     4     2     3   ar
     5     3    11    1
     6    11    12    1
     7    12    13    1
     8    13    14    1
     9    14    17    1
    10    17    18    1
    11    18    19   ar
    12    19    20   ar
    13    20    21   ar
    14    21    24    1
    15    24    25    1
    16    21    22   ar
    17    22    23    1
    18    14    15    1
    19    15    16    1
    20     3     4   ar
    21     4     5   ar
    22     5     6   ar
    23     6    26    1
    24    26    27   ar
    25    27    28   ar
    26    28    29   ar
    27    29    32    1
    28    32    33    1
    29    32    34    1
    30    32    35    1
    31    29    30   ar
    32    30    31   ar
    33     6     7   ar
    34     7     8   ar
    35     8     9   ar
    36     9     1   ar
    37    16    11    1
    38     8     4   ar
    39    22    18   ar
    40    31    26   ar
    41     7    10    1
@<TRIPOS>MOLECULE
*****
 37 41 0 0 0
SMALL
GASTEIGER

@<TRIPOS>ATOM
      1 C         -29.9831   50.3291  -10.4432 C.ar    1  UNL1       -0.0194
      2 C         -29.6417   49.3194   -9.5066 C.ar    1  UNL1        0.0119
      3 C         -28.3179   49.1899   -9.0311 C.ar    1  UNL1        0.0670
      4 C         -27.3676   50.0891   -9.5288 C.ar    1  UNL1        0.1116
      5 N         -26.0532   50.1458   -9.2494 N.ar    1  UNL1       -0.2258
      6 C         -25.6114   51.1779  -10.0180 C.ar    1  UNL1        0.1406
      7 N         -26.5982   51.7499  -10.7582 N.ar    1  UNL1       -0.3373
      8 C         -27.6928   51.0492  -10.4376 C.ar    1  UNL1        0.0765
      9 C         -28.9864   51.2045  -10.9265 C.ar    1  UNL1        0.0144
     10 H         -26.5440   52.5501  -11.4255 H       1  UNL1        0.1674
     11 N         -27.9742   48.1695   -8.0758 N.pl3   1  UNL1       -0.3035
     12 C         -28.9996   47.6347   -7.1758 C.3     1  UNL1        0.1082
     13 C         -28.3787   47.3085   -5.8163 C.3     1  UNL1        0.0941
     14 N         -27.2045   46.4276   -5.9855 N.3     1  UNL1       -0.2647
     15 C         -26.1720   47.1141   -6.7930 C.3     1  UNL1        0.0941
     16 C         -26.7117   47.4341   -8.1881 C.3     1  UNL1        0.1082
     17 C         -26.6659   46.0487   -4.6634 C.3     1  UNL1        0.1200
     18 C         -27.7739   45.9471   -3.6543 C.ar    1  UNL1        0.0885
     19 N         -28.6032   44.8860   -3.5764 N.ar    1  UNL1       -0.2273
     20 C         -29.3952   45.1570   -2.5178 C.ar    1  UNL1        0.1780
     21 N         -29.0881   46.3277   -1.9227 N.ar    1  UNL1       -0.3128
     22 C         -28.0759   46.8476   -2.6472 C.ar    1  UNL1        0.0537
     23 C         -27.3545   48.1308   -2.3501 C.3     1  UNL1        0.0514
     24 C         -29.7743   46.9058   -0.7666 C.3     1  UNL1        0.1073
     25 C         -30.5791   45.8364   -0.0375 C.3     1  UNL1        0.0265
     26 C         -24.1923   51.6154  -10.0278 C.ar    1  UNL1        0.0339
     27 C         -23.3994   51.5634   -8.8708 C.ar    1  UNL1        0.0027
     28 C         -22.0663   51.9801   -8.9020 C.ar    1  UNL1       -0.0042
     29 C         -21.4768   52.4644  -10.0896 C.ar    1  UNL1       -0.0228
     30 C         -22.2850   52.5147  -11.2481 C.ar    1  UNL1       -0.0042
     31 C         -23.6183   52.0977  -11.2142 C.ar    1  UNL1        0.0027
     32 C         -20.0010   52.9143  -10.0801 C.3     1  UNL1        0.0189
     33 C         -19.2348   52.1903  -11.2085 C.3     1  UNL1        0.0044
     34 C         -19.9262   54.4400  -10.3065 C.3     1  UNL1        0.0044
     35 C         -19.2795   52.6017   -8.7468 C.3     1  UNL1        0.0044
     36 C         -31.4672   51.4150  -12.1251 C.3     1  UNL1        0.0050
     37 C         -31.3913   50.4305  -10.9630 C.3     1  UNL1        0.0265
@<TRIPOS>BOND
     1    36    37    1
     2    37     1    1
     3     1     2   ar
     4     2     3   ar
     5     3    11    1
     6    11    12    1
     7    12    13    1
     8    13    14    1
     9    14    17    1
    10    17    18    1
    11    18    19   ar
    12    19    20   ar
    13    20    21   ar
    14    21    24    1
    15    24    25    1
    16    21    22   ar
    17    22    23    1
    18    14    15    1
    19    15    16    1
    20     3     4   ar
    21     4     5   ar
    22     5     6   ar
    23     6    26    1
    24    26    27   ar
    25    27    28   ar
    26    28    29   ar
    27    29    32    1
    28    32    33    1
    29    32    34    1
    30    32    35    1
    31    29    30   ar
    32    30    31   ar
    33     6     7   ar
    34     7     8   ar
    35     8     9   ar
    36     9     1   ar
    37    16    11    1
    38     8     4   ar
    39    22    18   ar
    40    31    26   ar
    41     7    10    1
@<TRIPOS>MOLECULE
*****
 37 41 0 0 0
SMALL
GASTEIGER

@<TRIPOS>ATOM
      1 C         -30.7536   50.2649   -7.2693 C.ar    1  UNL1       -0.0194
      2 C         -29.3790   50.5662   -7.4509 C.ar    1  UNL1        0.0119
      3 C         -28.7639   50.4120   -8.7132 C.ar    1  UNL1        0.0670
      4 C         -29.5638   49.9448   -9.7627 C.ar    1  UNL1        0.1116
      5 N         -29.2016   49.6946  -11.0335 N.ar    1  UNL1       -0.2258
      6 C         -30.3499   49.2414  -11.6055 C.ar    1  UNL1        0.1406
      7 N         -31.3956   49.1993  -10.7375 N.ar    1  UNL1       -0.3373
      8 C         -30.8794   49.6431   -9.5848 C.ar    1  UNL1        0.0765
      9 C         -31.5163   49.7835   -8.3556 C.ar    1  UNL1        0.0144
     10 H         -32.3807   48.8988  -10.9041 H       1  UNL1        0.1674
     11 N         -27.3710   50.7244   -8.8977 N.pl3   1  UNL1       -0.3035
     12 C         -26.8619   52.0464   -8.5230 C.3     1  UNL1        0.1082
     13 C         -25.7623   52.4748   -9.4966 C.3     1  UNL1        0.0941
     14 N         -24.7213   51.4303   -9.5881 N.3     1  UNL1       -0.2647
     15 C         -25.3105   50.1759  -10.1065 C.3     1  UNL1        0.0941
     16 C         -26.3941   49.6632   -9.1560 C.3     1  UNL1        0.1082
     17 C         -23.6231   51.8906  -10.4620 C.3     1  UNL1        0.1200
     18 C         -22.3697   52.1043   -9.6622 C.ar    1  UNL1        0.0885
     19 N         -22.2861   51.8427   -8.3415 N.ar    1  UNL1       -0.2273
     20 C         -20.9992   52.1034   -8.0293 C.ar    1  UNL1        0.1780
     21 N         -20.2737   52.4986   -9.0953 N.ar    1  UNL1       -0.3128
     22 C         -21.1367   52.5234  -10.1318 C.ar    1  UNL1        0.0537
     23 C         -20.7894   52.8598  -11.5535 C.3     1  UNL1        0.0514
     24 C         -18.8583   52.8703   -9.0767 C.3     1  UNL1        0.1073
     25 C         -18.1433   52.1801   -7.9212 C.3     1  UNL1        0.0265
     26 C         -30.4265   48.8417  -13.0338 C.ar    1  UNL1        0.0339
     27 C         -30.3060   47.5002  -13.4288 C.ar    1  UNL1        0.0027
     28 C         -30.3809   47.1459  -14.7781 C.ar    1  UNL1       -0.0042
     29 C         -30.5782   48.1184  -15.7819 C.ar    1  UNL1       -0.0228
     30 C         -30.6958   49.4664  -15.3731 C.ar    1  UNL1       -0.0042
     31 C         -30.6202   49.8182  -14.0229 C.ar    1  UNL1        0.0027
     32 C         -30.6551   47.6838  -17.2603 C.3     1  UNL1        0.0189
     33 C         -29.2452   47.7400  -17.8875 C.3     1  UNL1        0.0044
     34 C         -31.1969   46.2402  -17.3452 C.3     1  UNL1        0.0044
     35 C         -31.5836   48.5843  -18.1104 C.3     1  UNL1        0.0044
     36 C         -30.8810   51.6624   -5.2100 C.3     1  UNL1        0.0050
     37 C         -31.3829   50.4040   -5.9099 C.3     1  UNL1        0.0265
@<TRIPOS>BOND
     1    36    37    1
     2    37     1    1
     3     1     2   ar
     4     2     3   ar
     5     3    11    1
     6    11    12    1
     7    12    13    1
     8    13    14    1
     9    14    17    1
    10    17    18    1
    11    18    19   ar
    12    19    20   ar
    13    20    21   ar
    14    21    24    1
    15    24    25    1
    16    21    22   ar
    17    22    23    1
    18    14    15    1
    19    15    16    1
    20     3     4   ar
    21     4     5   ar
    22     5     6   ar
    23     6    26    1
    24    26    27   ar
    25    27    28   ar
    26    28    29   ar
    27    29    32    1
    28    32    33    1
    29    32    34    1
    30    32    35    1
    31    29    30   ar
    32    30    31   ar
    33     6     7   ar
    34     7     8   ar
    35     8     9   ar
    36     9     1   ar
    37    16    11    1
    38     8     4   ar
    39    22    18   ar
    40    31    26   ar
    41     7    10    1
@<TRIPOS>MOLECULE
*****
 37 41 0 0 0
SMALL
GASTEIGER

@<TRIPOS>ATOM
      1 C         -28.5321   51.1123  -11.4809 C.ar    1  UNL1       -0.0194
      2 C         -28.6623   50.8648  -10.0898 C.ar    1  UNL1        0.0119
      3 C         -27.5340   50.8915   -9.2403 C.ar    1  UNL1        0.0670
      4 C         -26.2940   51.1620   -9.8307 C.ar    1  UNL1        0.1116
      5 N         -25.0873   51.2132   -9.2390 N.ar    1  UNL1       -0.2258
      6 C         -24.2415   51.4833  -10.2700 C.ar    1  UNL1        0.1406
      7 N         -24.8792   51.5938  -11.4658 N.ar    1  UNL1       -0.3373
      8 C         -26.1676   51.3861  -11.1676 C.ar    1  UNL1        0.0765
      9 C         -27.2577   51.3673  -12.0324 C.ar    1  UNL1        0.0144
     10 H         -24.4829   51.7954  -12.4096 H       1  UNL1        0.1674
     11 N         -27.6684   50.6471   -7.8282 N.pl3   1  UNL1       -0.3035
     12 C         -27.4250   51.7303   -6.8718 C.3     1  UNL1        0.1082
     13 C         -26.7843   51.1678   -5.6016 C.3     1  UNL1        0.0941
     14 N         -27.5982   50.0582   -5.0633 N.3     1  UNL1       -0.2647
     15 C         -27.6673   48.9588   -6.0513 C.3     1  UNL1        0.0941
     16 C         -28.3397   49.4401   -7.3383 C.3     1  UNL1        0.1082
     17 C         -27.0184   49.5807   -3.7915 C.3     1  UNL1        0.1200
     18 C         -27.8935   48.5246   -3.1791 C.ar    1  UNL1        0.0885
     19 N         -29.1574   48.7616   -2.7716 N.ar    1  UNL1       -0.2273
     20 C         -29.6046   47.5597   -2.3510 C.ar    1  UNL1        0.1780
     21 N         -28.6858   46.5826   -2.4926 N.ar    1  UNL1       -0.3128
     22 C         -27.5899   47.1863   -2.9968 C.ar    1  UNL1        0.0537
     23 C         -26.3074   46.5018   -3.3733 C.3     1  UNL1        0.0514
     24 C         -28.8620   45.1807   -2.1116 C.3     1  UNL1        0.1073
     25 C         -29.8372   44.4916   -3.0588 C.3     1  UNL1        0.0265
     26 C         -22.7766   51.6380  -10.0812 C.ar    1  UNL1        0.0339
     27 C         -22.2319   52.0285   -8.8480 C.ar    1  UNL1        0.0027
     28 C         -20.8507   52.1682   -8.6920 C.ar    1  UNL1       -0.0042
     29 C         -19.9633   51.9236   -9.7621 C.ar    1  UNL1       -0.0228
     30 C         -20.5227   51.5332  -11.0001 C.ar    1  UNL1       -0.0042
     31 C         -21.9046   51.3946  -11.1536 C.ar    1  UNL1        0.0027
     32 C         -18.4445   52.0896   -9.5466 C.3     1  UNL1        0.0189
     33 C         -17.7961   52.6242  -10.8420 C.3     1  UNL1        0.0044
     34 C         -18.1938   53.0898   -8.3970 C.3     1  UNL1        0.0044
     35 C         -17.7350   50.7641   -9.1786 C.3     1  UNL1        0.0044
     36 C         -30.9390   50.4817  -11.6202 C.3     1  UNL1        0.0050
     37 C         -29.7405   51.0470  -12.3748 C.3     1  UNL1        0.0265
@<TRIPOS>BOND
     1    36    37    1
     2    37     1    1
     3     1     2   ar
     4     2     3   ar
     5     3    11    1
     6    11    12    1
     7    12    13    1
     8    13    14    1
     9    14    17    1
    10    17    18    1
    11    18    19   ar
    12    19    20   ar
    13    20    21   ar
    14    21    24    1
    15    24    25    1
    16    21    22   ar
    17    22    23    1
    18    14    15    1
    19    15    16    1
    20     3     4   ar
    21     4     5   ar
    22     5     6   ar
    23     6    26    1
    24    26    27   ar
    25    27    28   ar
    26    28    29   ar
    27    29    32    1
    28    32    33    1
    29    32    34    1
    30    32    35    1
    31    29    30   ar
    32    30    31   ar
    33     6     7   ar
    34     7     8   ar
    35     8     9   ar
    36     9     1   ar
    37    16    11    1
    38     8     4   ar
    39    22    18   ar
    40    31    26   ar
    41     7    10    1
@<TRIPOS>MOLECULE
*****
 37 41 0 0 0
SMALL
GASTEIGER

@<TRIPOS>ATOM
      1 C         -30.2181   50.3575  -10.9815 C.ar    1  UNL1       -0.0194
      2 C         -29.9691   49.3276  -10.0379 C.ar    1  UNL1        0.0119
      3 C         -28.6875   49.1620   -9.4672 C.ar    1  UNL1        0.0670
      4 C         -27.6839   50.0468   -9.8787 C.ar    1  UNL1        0.1116
      5 N         -26.3932   50.0704   -9.5013 N.ar    1  UNL1       -0.2258
      6 C         -25.8736   51.1031  -10.2187 C.ar    1  UNL1        0.1406
      7 N         -26.7899   51.7071  -11.0214 N.ar    1  UNL1       -0.3373
      8 C         -27.9200   51.0264  -10.7942 C.ar    1  UNL1        0.0765
      9 C         -29.1698   51.2173  -11.3755 C.ar    1  UNL1        0.0144
     10 H         -26.6691   52.5151  -11.6702 H       1  UNL1        0.1674
     11 N         -28.4378   48.1210   -8.5050 N.pl3   1  UNL1       -0.3035
     12 C         -29.5421   47.2818   -8.0319 C.3     1  UNL1        0.1082
     13 C         -29.3270   46.9207   -6.5610 C.3     1  UNL1        0.0941
     14 N         -27.9892   46.3235   -6.3687 N.3     1  UNL1       -0.2647
     15 C         -26.9429   47.3000   -6.7447 C.3     1  UNL1        0.0941
     16 C         -27.0707   47.6759   -8.2220 C.3     1  UNL1        0.1082
     17 C         -27.8256   45.8992   -4.9634 C.3     1  UNL1        0.1200
     18 C         -27.4820   47.0764   -4.0959 C.ar    1  UNL1        0.0885
     19 N         -28.3335   48.0982   -3.8712 N.ar    1  UNL1       -0.2273
     20 C         -27.6760   48.8979   -3.0055 C.ar    1  UNL1        0.1780
     21 N         -26.4630   48.4148   -2.6674 N.ar    1  UNL1       -0.3128
     22 C         -26.3202   47.2714   -3.3688 C.ar    1  UNL1        0.0537
     23 C         -25.1449   46.3395   -3.2959 C.3     1  UNL1        0.0514
     24 C         -25.5062   49.0587   -1.7666 C.3     1  UNL1        0.1073
     25 C         -25.0250   50.3783   -2.3585 C.3     1  UNL1        0.0265
     26 C         -24.4487   51.5091  -10.1160 C.ar    1  UNL1        0.0339
     27 C         -23.7721   51.5112   -8.8863 C.ar    1  UNL1        0.0027
     28 C         -22.4315   51.8970   -8.8120 C.ar    1  UNL1       -0.0042
     29 C         -21.7180   52.2951   -9.9630 C.ar    1  UNL1       -0.0228
     30 C         -22.4097   52.2915  -11.1956 C.ar    1  UNL1       -0.0042
     31 C         -23.7508   51.9057  -11.2672 C.ar    1  UNL1        0.0027
     32 C         -20.2383   52.7135   -9.8363 C.3     1  UNL1        0.0189
     33 C         -19.3877   51.9088  -10.8430 C.3     1  UNL1        0.0044
     34 C         -20.1016   54.2215  -10.1397 C.3     1  UNL1        0.0044
     35 C         -19.6556   52.4642   -8.4242 C.3     1  UNL1        0.0044
     36 C         -31.5756   51.5818  -12.6752 C.3     1  UNL1        0.0050
     37 C         -31.5811   50.4974  -11.6030 C.3     1  UNL1        0.0265
@<TRIPOS>BOND
     1    36    37    1
     2    37     1    1
     3     1     2   ar
     4     2     3   ar
     5     3    11    1
     6    11    12    1
     7    12    13    1
     8    13    14    1
     9    14    17    1
    10    17    18    1
    11    18    19   ar
    12    19    20   ar
    13    20    21   ar
    14    21    24    1
    15    24    25    1
    16    21    22   ar
    17    22    23    1
    18    14    15    1
    19    15    16    1
    20     3     4   ar
    21     4     5   ar
    22     5     6   ar
    23     6    26    1
    24    26    27   ar
    25    27    28   ar
    26    28    29   ar
    27    29    32    1
    28    32    33    1
    29    32    34    1
    30    32    35    1
    31    29    30   ar
    32    30    31   ar
    33     6     7   ar
    34     7     8   ar
    35     8     9   ar
    36     9     1   ar
    37    16    11    1
    38     8     4   ar
    39    22    18   ar
    40    31    26   ar
    41     7    10    1
@<TRIPOS>MOLECULE
*****
 37 41 0 0 0
SMALL
GASTEIGER

@<TRIPOS>ATOM
      1 C         -30.3804   51.5399  -11.1935 C.ar    1  UNL1       -0.0194
      2 C         -28.9671   51.6555  -11.1424 C.ar    1  UNL1        0.0119
      3 C         -28.2316   51.0884  -10.0781 C.ar    1  UNL1        0.0670
      4 C         -28.9558   50.4219   -9.0826 C.ar    1  UNL1        0.1116
      5 N         -28.4854   49.8316   -7.9695 N.ar    1  UNL1       -0.2258
      6 C         -29.6100   49.3718   -7.3570 C.ar    1  UNL1        0.1406
      7 N         -30.7464   49.6607   -8.0454 N.ar    1  UNL1       -0.3373
      8 C         -30.3129   50.3229   -9.1251 C.ar    1  UNL1        0.0765
      9 C         -31.0678   50.8694  -10.1584 C.ar    1  UNL1        0.0144
     10 H         -31.7367   49.4303   -7.8119 H       1  UNL1        0.1674
     11 N         -26.7974   51.2006  -10.0309 N.pl3   1  UNL1       -0.3035
     12 C         -26.1676   52.1463   -9.1055 C.3     1  UNL1        0.1082
     13 C         -24.9061   52.7335   -9.7414 C.3     1  UNL1        0.0941
     14 N         -24.0110   51.6516  -10.2015 N.3     1  UNL1       -0.2647
     15 C         -24.6924   50.8387  -11.2333 C.3     1  UNL1        0.0941
     16 C         -25.9464   50.1825  -10.6528 C.3     1  UNL1        0.1082
     17 C         -22.7593   52.2272  -10.7339 C.3     1  UNL1        0.1200
     18 C         -21.7886   52.4948   -9.6193 C.ar    1  UNL1        0.0885
     19 N         -21.8853   51.9162   -8.4045 N.ar    1  UNL1       -0.2273
     20 C         -20.8044   52.3654   -7.7327 C.ar    1  UNL1        0.1780
     21 N         -20.0306   53.1825   -8.4760 N.ar    1  UNL1       -0.3128
     22 C         -20.6556   53.2889   -9.6668 C.ar    1  UNL1        0.0537
     23 C         -20.1548   54.0609  -10.8534 C.3     1  UNL1        0.0514
     24 C         -18.8044   53.8427   -8.0264 C.3     1  UNL1        0.1073
     25 C         -19.1296   55.1866   -7.3851 C.3     1  UNL1        0.0265
     26 C         -29.5722   48.6320   -6.0698 C.ar    1  UNL1        0.0339
     27 C         -29.5227   49.3030   -4.8379 C.ar    1  UNL1        0.0027
     28 C         -29.4876   48.5876   -3.6385 C.ar    1  UNL1       -0.0042
     29 C         -29.4999   47.1762   -3.6257 C.ar    1  UNL1       -0.0228
     30 C         -29.5473   46.5108   -4.8718 C.ar    1  UNL1       -0.0042
     31 C         -29.5820   47.2287   -6.0702 C.ar    1  UNL1        0.0027
     32 C         -29.4600   46.4253   -2.2784 C.3     1  UNL1        0.0189
     33 C         -28.0954   45.7198   -2.1223 C.3     1  UNL1        0.0044
     34 C         -29.6526   47.4310   -1.1224 C.3     1  UNL1        0.0044
     35 C         -30.5634   45.3473   -2.1512 C.3     1  UNL1        0.0044
     36 C         -30.8986   53.6825  -12.3556 C.3     1  UNL1        0.0050
     37 C         -31.1491   52.1788  -12.3178 C.3     1  UNL1        0.0265
@<TRIPOS>BOND
     1    36    37    1
     2    37     1    1
     3     1     2   ar
     4     2     3   ar
     5     3    11    1
     6    11    12    1
     7    12    13    1
     8    13    14    1
     9    14    17    1
    10    17    18    1
    11    18    19   ar
    12    19    20   ar
    13    20    21   ar
    14    21    24    1
    15    24    25    1
    16    21    22   ar
    17    22    23    1
    18    14    15    1
    19    15    16    1
    20     3     4   ar
    21     4     5   ar
    22     5     6   ar
    23     6    26    1
    24    26    27   ar
    25    27    28   ar
    26    28    29   ar
    27    29    32    1
    28    32    33    1
    29    32    34    1
    30    32    35    1
    31    29    30   ar
    32    30    31   ar
    33     6     7   ar
    34     7     8   ar
    35     8     9   ar
    36     9     1   ar
    37    16    11    1
    38     8     4   ar
    39    22    18   ar
    40    31    26   ar
    41     7    10    1
