@<TRIPOS>MOLECULE
*****
 47 52 0 0 0
SMALL
GASTEIGER

@<TRIPOS>ATOM
      1 C          59.2274   85.6953    9.4789 C.ar    1  UNL1        0.1318
      2 C          58.8667   85.5606    8.1274 C.ar    1  UNL1        0.0356
      3 C          59.1327   86.6002    7.2350 C.ar    1  UNL1        0.0191
      4 C          59.7515   87.7764    7.6864 C.ar    1  UNL1        0.0702
      5 C          60.1239   87.8593    9.0339 C.ar    1  UNL1        0.1149
      6 N          59.8542   86.8349    9.8853 N.ar    1  UNL1       -0.2279
      7 C          58.1202   82.5397   12.3199 C.3     1  UNL1        0.0471
      8 C          58.7925   83.8552   12.7699 C.3     1  UNL1        0.0252
      9 C          58.5209   84.9948   11.7842 C.3     1  UNL1        0.0923
     10 N          58.9783   84.6409   10.4318 N.pl3   1  UNL1       -0.2932
     11 C          59.1863   83.2276   10.0765 C.3     1  UNL1        0.0923
     12 C          58.1525   82.3402   10.7788 C.3     1  UNL1        0.0252
     13 C          58.7573   81.3440   13.0560 C.3     1  UNL1        0.2054
     14 O          60.1507   81.5635   13.2842 O.3     1  UNL1       -0.4757
     15 C          62.3873   82.0469   12.4813 C.ar    1  UNL1        0.0413
     16 C          63.4320   81.8154   11.5756 C.ar    1  UNL1        0.0014
     17 C          63.2978   80.8648   10.5642 C.ar    1  UNL1        0.0064
     18 C          62.1095   80.1315   10.4285 C.ar    1  UNL1        0.0785
     19 C          61.0636   80.3532   11.3410 C.ar    1  UNL1        0.0431
     20 C          61.1874   81.3151   12.3654 C.ar    1  UNL1        0.1371
     21 C          61.9808   79.1264    9.3454 C.2     1  UNL1        0.3381
     22 O          60.9746   79.1494    8.5876 O.2     1  UNL1       -0.2451
     23 O          62.9405   78.1342    9.1473 O.3     1  UNL1       -0.4771
     24 H          63.7148   77.9902    9.7827 H       1  UNL1        0.2954
     25 C          62.5602   83.1128   13.5378 C.3     1  UNL1        0.1717
     26 C          62.2103   85.3414   13.0033 C.3     1  UNL1        0.1746
     27 O          63.1389   84.2789   12.9842 O.3     1  UNL1       -0.3462
     28 N          60.0647   88.8580    6.7921 N.am    1  UNL1       -0.2766
     29 C          59.1579   89.3601    5.7991 C.2     1  UNL1        0.2839
     30 O          57.9144   89.2291    5.9579 O.2     1  UNL1       -0.2665
     31 H          60.9570   89.3790    6.9442 H       1  UNL1        0.1553
     32 C          59.6478   90.1052    4.6261 C.ar    1  UNL1        0.1946
     33 O          58.8416   90.7970    3.8400 O.2     1  UNL1       -0.4492
     34 C          59.5704   91.3492    2.9010 C.ar    1  UNL1        0.1452
     35 C          59.1357   92.1697    1.8659 C.ar    1  UNL1        0.0375
     36 C          60.0969   92.6609    0.9650 C.ar    1  UNL1        0.0031
     37 C          61.4707   92.3267    1.1112 C.ar    1  UNL1        0.0002
     38 C          61.8702   91.4865    2.1782 C.ar    1  UNL1        0.0028
     39 C          60.8892   91.0174    3.0523 C.ar    1  UNL1        0.0337
     40 C          60.9652   90.1955    4.1590 C.ar    1  UNL1        0.0202
     41 C          62.1989   89.5496    4.7138 C.3     1  UNL1        0.0345
     42 C          62.4774   92.8524    0.1546 C.ar    1  UNL1        0.0000
     43 C          62.0797   93.3524   -1.1002 C.ar    1  UNL1        0.0000
     44 C          63.0299   93.8468   -1.9991 C.ar    1  UNL1        0.0000
     45 C          64.3841   93.8470   -1.6580 C.ar    1  UNL1        0.0000
     46 C          64.7915   93.3532   -0.4168 C.ar    1  UNL1        0.0000
     47 C          63.8456   92.8584    0.4866 C.ar    1  UNL1        0.0000
@<TRIPOS>BOND
     1    26    27    1
     2    27    25    1
     3    25    15    1
     4    15    16   ar
     5    16    17   ar
     6    17    18   ar
     7    18    21    1
     8    21    22    2
     9    21    23    1
    10    18    19   ar
    11    19    20   ar
    12    20    14    1
    13    14    13    1
    14    13     7    1
    15     7     8    1
    16     8     9    1
    17     9    10    1
    18    10     1    1
    19     1     2   ar
    20     2     3   ar
    21     3     4   ar
    22     4    28    1
    23    28    29   am
    24    29    30    2
    25    29    32    1
    26    32    33   ar
    27    33    34   ar
    28    34    35   ar
    29    35    36   ar
    30    36    37   ar
    31    37    42    1
    32    42    43   ar
    33    43    44   ar
    34    44    45   ar
    35    45    46   ar
    36    46    47   ar
    37    37    38   ar
    38    38    39   ar
    39    39    40   ar
    40    40    41    1
    41     4     5   ar
    42     5     6   ar
    43    10    11    1
    44    11    12    1
    45    20    15   ar
    46    12     7    1
    47     6     1   ar
    48    40    32   ar
    49    39    34   ar
    50    47    42   ar
    51    23    24    1
    52    28    31    1
@<TRIPOS>MOLECULE
*****
 47 52 0 0 0
SMALL
GASTEIGER

@<TRIPOS>ATOM
      1 C          59.4740   85.4499    9.3298 C.ar    1  UNL1        0.1318
      2 C          59.1052   85.3939    7.9750 C.ar    1  UNL1        0.0356
      3 C          59.3241   86.5010    7.1538 C.ar    1  UNL1        0.0191
      4 C          59.9038   87.6660    7.6799 C.ar    1  UNL1        0.0702
      5 C          60.2861   87.6710    9.0271 C.ar    1  UNL1        0.1149
      6 N          60.0626   86.5817    9.8085 N.ar    1  UNL1       -0.2279
      7 C          58.6012   81.9214   11.7882 C.3     1  UNL1        0.0471
      8 C          58.3391   83.3592   12.2874 C.3     1  UNL1        0.0252
      9 C          58.1206   84.3304   11.1242 C.3     1  UNL1        0.0923
     10 N          59.2732   84.3246   10.2103 N.pl3   1  UNL1       -0.2932
     11 C          60.2055   83.1854   10.2162 C.3     1  UNL1        0.0923
     12 C          59.4531   81.8780   10.4890 C.3     1  UNL1        0.0252
     13 C          59.2436   81.0828   12.9113 C.3     1  UNL1        0.2054
     14 O          60.6690   81.1769   12.8725 O.3     1  UNL1       -0.4757
     15 C          62.8214   82.2744   13.0803 C.ar    1  UNL1        0.0413
     16 C          63.6072   83.3324   13.5581 C.ar    1  UNL1        0.0014
     17 C          63.0345   84.3621   14.3041 C.ar    1  UNL1        0.0064
     18 C          61.6631   84.3506   14.5993 C.ar    1  UNL1        0.0785
     19 C          60.8699   83.2969   14.1131 C.ar    1  UNL1        0.0431
     20 C          61.4396   82.2484   13.3609 C.ar    1  UNL1        0.1371
     21 C          61.0695   85.4512   15.3969 C.2     1  UNL1        0.3381
     22 O          60.7741   86.5403   14.8367 O.2     1  UNL1       -0.2451
     23 O          60.8410   85.3240   16.7667 O.3     1  UNL1       -0.4771
     24 H          61.1527   84.5220   17.2991 H       1  UNL1        0.2954
     25 C          63.4890   81.1600   12.3090 C.3     1  UNL1        0.1717
     26 C          63.8432   81.8864   10.1360 C.3     1  UNL1        0.1746
     27 O          63.0128   81.1159   10.9777 O.3     1  UNL1       -0.3462
     28 N          60.1682   88.8168    6.8592 N.am    1  UNL1       -0.2766
     29 C          59.2876   89.2773    5.8234 C.2     1  UNL1        0.2839
     30 O          58.0556   89.0176    5.8824 O.2     1  UNL1       -0.2665
     31 H          60.9903   89.4142    7.1004 H       1  UNL1        0.1553
     32 C          59.7812   90.1250    4.7238 C.ar    1  UNL1        0.1946
     33 O          59.1206   91.1875    4.2983 O.2     1  UNL1       -0.4492
     34 C          59.8141   91.7313    3.3281 C.ar    1  UNL1        0.1452
     35 C          59.4972   92.8720    2.5986 C.ar    1  UNL1        0.0375
     36 C          60.3933   93.2850    1.5971 C.ar    1  UNL1        0.0031
     37 C          61.5863   92.5559    1.3408 C.ar    1  UNL1        0.0002
     38 C          61.8696   91.3988    2.1057 C.ar    1  UNL1        0.0028
     39 C          60.9577   91.0186    3.0906 C.ar    1  UNL1        0.0337
     40 C          60.9533   89.9586    3.9752 C.ar    1  UNL1        0.0202
     41 C          61.9856   88.8774    4.0850 C.3     1  UNL1        0.0345
     42 C          62.5263   93.0021    0.2814 C.ar    1  UNL1        0.0000
     43 C          62.0538   93.3242   -1.0053 C.ar    1  UNL1        0.0000
     44 C          62.9413   93.7440   -2.0011 C.ar    1  UNL1        0.0000
     45 C          64.3065   93.8461   -1.7257 C.ar    1  UNL1        0.0000
     46 C          64.7878   93.5288   -0.4537 C.ar    1  UNL1        0.0000
     47 C          63.9048   93.1093    0.5463 C.ar    1  UNL1        0.0000
@<TRIPOS>BOND
     1    26    27    1
     2    27    25    1
     3    25    15    1
     4    15    16   ar
     5    16    17   ar
     6    17    18   ar
     7    18    21    1
     8    21    22    2
     9    21    23    1
    10    18    19   ar
    11    19    20   ar
    12    20    14    1
    13    14    13    1
    14    13     7    1
    15     7     8    1
    16     8     9    1
    17     9    10    1
    18    10     1    1
    19     1     2   ar
    20     2     3   ar
    21     3     4   ar
    22     4    28    1
    23    28    29   am
    24    29    30    2
    25    29    32    1
    26    32    33   ar
    27    33    34   ar
    28    34    35   ar
    29    35    36   ar
    30    36    37   ar
    31    37    42    1
    32    42    43   ar
    33    43    44   ar
    34    44    45   ar
    35    45    46   ar
    36    46    47   ar
    37    37    38   ar
    38    38    39   ar
    39    39    40   ar
    40    40    41    1
    41     4     5   ar
    42     5     6   ar
    43    10    11    1
    44    11    12    1
    45    20    15   ar
    46    12     7    1
    47     6     1   ar
    48    40    32   ar
    49    39    34   ar
    50    47    42   ar
    51    23    24    1
    52    28    31    1
@<TRIPOS>MOLECULE
*****
 47 52 0 0 0
SMALL
GASTEIGER

@<TRIPOS>ATOM
      1 C          59.2090   85.5242    9.3189 C.ar    1  UNL1        0.1318
      2 C          58.6758   85.5414    8.0189 C.ar    1  UNL1        0.0356
      3 C          58.9687   86.6072    7.1668 C.ar    1  UNL1        0.0191
      4 C          59.7865   87.6591    7.6081 C.ar    1  UNL1        0.0702
      5 C          60.3240   87.5894    8.8995 C.ar    1  UNL1        0.1149
      6 N          60.0246   86.5423    9.7124 N.ar    1  UNL1       -0.2279
      7 C          58.0363   82.2823   12.0337 C.3     1  UNL1        0.0471
      8 C          58.7570   83.5543   12.5316 C.3     1  UNL1        0.0252
      9 C          58.5100   84.7448   11.6011 C.3     1  UNL1        0.0923
     10 N          58.9380   84.4369   10.2280 N.pl3   1  UNL1       -0.2932
     11 C          59.0951   83.0349    9.8078 C.3     1  UNL1        0.0923
     12 C          58.0420   82.1507   10.4851 C.3     1  UNL1        0.0252
     13 C          58.6434   81.0352   12.7073 C.3     1  UNL1        0.2054
     14 O          60.0564   81.1741   12.8685 O.3     1  UNL1       -0.4757
     15 C          61.0944   79.6058   11.3376 C.ar    1  UNL1        0.0413
     16 C          62.0576   79.3137   10.3619 C.ar    1  UNL1        0.0014
     17 C          62.9496   80.2938    9.9282 C.ar    1  UNL1        0.0064
     18 C          62.9059   81.5872   10.4701 C.ar    1  UNL1        0.0785
     19 C          61.9349   81.8870   11.4411 C.ar    1  UNL1        0.0431
     20 C          61.0302   80.9019   11.8896 C.ar    1  UNL1        0.1371
     21 C          63.8638   82.6178   10.0011 C.2     1  UNL1        0.3381
     22 O          65.0405   82.6286   10.4513 O.2     1  UNL1       -0.2451
     23 O          63.4948   83.5975    9.0798 O.3     1  UNL1       -0.4771
     24 H          62.5416   83.7143    8.7607 H       1  UNL1        0.2954
     25 C          60.1729   78.5042   11.8063 C.3     1  UNL1        0.1717
     26 C          57.9773   78.1956   11.1290 C.3     1  UNL1        0.1746
     27 O          59.3321   78.0716   10.7541 O.3     1  UNL1       -0.3462
     28 N          60.1311   88.7608    6.7506 N.am    1  UNL1       -0.2766
     29 C          59.2243   89.3521    5.8081 C.2     1  UNL1        0.2839
     30 O          57.9806   89.2795    5.9999 O.2     1  UNL1       -0.2665
     31 H          61.0541   89.2274    6.8966 H       1  UNL1        0.1553
     32 C          59.7194   90.1210    4.6527 C.ar    1  UNL1        0.1946
     33 O          58.9345   90.9077    3.9376 O.2     1  UNL1       -0.4492
     34 C          59.6630   91.4554    2.9957 C.ar    1  UNL1        0.1452
     35 C          59.2477   92.3572    2.0221 C.ar    1  UNL1        0.0375
     36 C          60.2049   92.8258    1.1052 C.ar    1  UNL1        0.0031
     37 C          61.5556   92.3887    1.1746 C.ar    1  UNL1        0.0002
     38 C          61.9358   91.4682    2.1806 C.ar    1  UNL1        0.0028
     39 C          60.9593   91.0244    3.0727 C.ar    1  UNL1        0.0337
     40 C          61.0200   90.1426    4.1334 C.ar    1  UNL1        0.0202
     41 C          62.2249   89.3837    4.6013 C.3     1  UNL1        0.0345
     42 C          62.5586   92.8914    0.2017 C.ar    1  UNL1        0.0000
     43 C          62.1636   93.3014   -1.0861 C.ar    1  UNL1        0.0000
     44 C          63.1102   93.7743   -2.0003 C.ar    1  UNL1        0.0000
     45 C          64.4581   93.8424   -1.6416 C.ar    1  UNL1        0.0000
     46 C          64.8628   93.4380   -0.3676 C.ar    1  UNL1        0.0000
     47 C          63.9204   92.9652    0.5511 C.ar    1  UNL1        0.0000
@<TRIPOS>BOND
     1    26    27    1
     2    27    25    1
     3    25    15    1
     4    15    16   ar
     5    16    17   ar
     6    17    18   ar
     7    18    21    1
     8    21    22    2
     9    21    23    1
    10    18    19   ar
    11    19    20   ar
    12    20    14    1
    13    14    13    1
    14    13     7    1
    15     7     8    1
    16     8     9    1
    17     9    10    1
    18    10     1    1
    19     1     2   ar
    20     2     3   ar
    21     3     4   ar
    22     4    28    1
    23    28    29   am
    24    29    30    2
    25    29    32    1
    26    32    33   ar
    27    33    34   ar
    28    34    35   ar
    29    35    36   ar
    30    36    37   ar
    31    37    42    1
    32    42    43   ar
    33    43    44   ar
    34    44    45   ar
    35    45    46   ar
    36    46    47   ar
    37    37    38   ar
    38    38    39   ar
    39    39    40   ar
    40    40    41    1
    41     4     5   ar
    42     5     6   ar
    43    10    11    1
    44    11    12    1
    45    20    15   ar
    46    12     7    1
    47     6     1   ar
    48    40    32   ar
    49    39    34   ar
    50    47    42   ar
    51    23    24    1
    52    28    31    1
