@<TRIPOS>MOLECULE
*****
 42 46 0 0 0
SMALL
GASTEIGER

@<TRIPOS>ATOM
      1 C         -28.3341   48.7750   -6.3734 C.ar    1  UNL1        0.2018
      2 N         -27.0089   49.0183   -6.5438 N.ar    1  UNL1       -0.2135
      3 C         -26.9715   49.6749   -7.7164 C.ar    1  UNL1        0.0999
      4 C         -25.8350   50.1393   -8.3914 C.ar    1  UNL1        0.0282
      5 C         -26.0074   50.7694   -9.6513 C.ar    1  UNL1        0.0888
      6 C         -27.3274   50.9125  -10.1465 C.ar    1  UNL1        0.1401
      7 C         -28.4263   50.4586   -9.4539 C.ar    1  UNL1        0.0327
      8 C         -28.2348   49.8272   -8.2223 C.ar    1  UNL1        0.0789
      9 N         -29.1191   49.2782   -7.3686 N.ar    1  UNL1       -0.2977
     10 C         -30.5778   49.2554   -7.4772 C.3     1  UNL1        0.1332
     11 C         -29.6697   50.7553  -10.2171 C.3     1  UNL1        0.0709
     12 C         -29.1203   51.4318  -11.5160 C.3     1  UNL1        0.1375
     13 C         -29.6789   52.8502  -11.6917 C.3     1  UNL1        0.0439
     14 C         -29.4221   50.5802  -12.7566 C.3     1  UNL1        0.0439
     15 O         -27.7050   51.5042  -11.3340 O.3     1  UNL1       -0.4824
     16 C         -24.8356   51.2665  -10.4067 C.2     1  UNL1        0.2525
     17 O         -24.5333   50.7274  -11.5064 O.2     1  UNL1       -0.2697
     18 N         -24.0768   52.3897   -9.9308 N.am    1  UNL1       -0.2803
     19 H         -24.5775   53.1121   -9.3653 H       1  UNL1        0.1552
     20 C         -22.7143   52.6520  -10.3087 C.ar    1  UNL1        0.0505
     21 C         -22.4524   53.3477  -11.4973 C.ar    1  UNL1        0.0147
     22 C         -21.1382   53.6195  -11.8822 C.ar    1  UNL1        0.0012
     23 C         -20.0725   53.2200  -11.0732 C.ar    1  UNL1        0.0039
     24 C         -20.3132   52.5658   -9.8529 C.ar    1  UNL1        0.0726
     25 C         -21.6386   52.2702   -9.4853 C.ar    1  UNL1        0.0185
     26 C         -19.1640   52.1053   -8.9910 C.3     1  UNL1        0.4186
     27 F         -18.2138   53.1047   -8.8724 F       1  UNL1       -0.1659
     28 F         -19.6392   51.7839   -7.7334 F       1  UNL1       -0.1659
     29 F         -18.5526   50.9913   -9.5400 F       1  UNL1       -0.1659
     30 N         -28.8257   48.0390   -5.2446 N.pl3   1  UNL1       -0.2814
     31 H         -29.4732   48.5364   -4.5932 H       1  UNL1        0.1551
     32 C         -26.7359   45.2941   -3.7157 C.ar    1  UNL1        0.0634
     33 C         -27.4640   44.1699   -4.1476 C.ar    1  UNL1        0.0060
     34 C         -28.6198   44.3205   -4.9129 C.ar    1  UNL1        0.0129
     35 C         -29.0700   45.5914   -5.2721 C.ar    1  UNL1        0.0733
     36 CL        -30.5141   45.7248   -6.2679 Cl      1  UNL1       -0.0809
     37 C         -28.3540   46.7323   -4.8699 C.ar    1  UNL1        0.0890
     38 C         -27.1975   46.5797   -4.0758 C.ar    1  UNL1        0.1570
     39 F         -26.5532   47.6851   -3.6195 F       1  UNL1       -0.2027
     40 C         -25.4200   44.1184   -1.7886 C.3     1  UNL1        0.0773
     41 C         -25.5022   45.1266   -2.8958 C.2     1  UNL1        0.1757
     42 O         -24.4814   45.8249   -3.1409 O.2     1  UNL1       -0.2913
@<TRIPOS>BOND
     1    40    41    1
     2    41    42    2
     3    41    32    1
     4    32    33   ar
     5    33    34   ar
     6    34    35   ar
     7    35    36    1
     8    35    37   ar
     9    37    30    1
    10    30     1    1
    11     1     2   ar
    12     2     3   ar
    13     3     4   ar
    14     4     5   ar
    15     5    16    1
    16    16    17    2
    17    16    18   am
    18    18    20    1
    19    20    21   ar
    20    21    22   ar
    21    22    23   ar
    22    23    24   ar
    23    24    26    1
    24    26    27    1
    25    26    28    1
    26    26    29    1
    27    24    25   ar
    28     5     6   ar
    29     6     7   ar
    30     7     8   ar
    31     8     9   ar
    32     9    10    1
    33     7    11    1
    34    11    12    1
    35    12    13    1
    36    12    14    1
    37    12    15    1
    38    37    38   ar
    39    38    39    1
    40    38    32   ar
    41     9     1   ar
    42     8     3   ar
    43    25    20   ar
    44    15     6    1
    45    30    31    1
    46    18    19    1
@<TRIPOS>MOLECULE
*****
 42 46 0 0 0
SMALL
GASTEIGER

@<TRIPOS>ATOM
      1 C         -23.8090   51.6392  -10.5629 C.ar    1  UNL1        0.2018
      2 N         -23.5663   51.4025   -9.2479 N.ar    1  UNL1       -0.2135
      3 C         -24.7338   50.8980   -8.8121 C.ar    1  UNL1        0.0999
      4 C         -25.0528   50.5076   -7.5049 C.ar    1  UNL1        0.0282
      5 C         -26.3673   50.0430   -7.2397 C.ar    1  UNL1        0.0888
      6 C         -27.2795   49.9799   -8.3223 C.ar    1  UNL1        0.1401
      7 C         -26.9331   50.3571   -9.5993 C.ar    1  UNL1        0.0327
      8 C         -25.6388   50.8264   -9.8373 C.ar    1  UNL1        0.0789
      9 N         -25.0597   51.2749  -10.9666 N.ar    1  UNL1       -0.2977
     10 C         -25.6345   51.3296  -12.3108 C.3     1  UNL1        0.1332
     11 C         -28.0906   50.1743  -10.5178 C.3     1  UNL1        0.0709
     12 C         -29.2118   49.6594   -9.5565 C.3     1  UNL1        0.1375
     13 C         -29.7329   48.2815   -9.9860 C.3     1  UNL1        0.0439
     14 C         -30.3685   50.6637   -9.4631 C.3     1  UNL1        0.0439
     15 O         -28.5884   49.5468   -8.2758 O.3     1  UNL1       -0.4824
     16 C         -26.7540   49.6299   -5.8721 C.2     1  UNL1        0.2525
     17 O         -26.3706   50.3168   -4.8859 O.2     1  UNL1       -0.2697
     18 N         -27.6062   48.4929   -5.6609 N.am    1  UNL1       -0.2803
     19 H         -28.2998   48.2580   -6.4066 H       1  UNL1        0.1552
     20 C         -27.6624   47.7537   -4.4286 C.ar    1  UNL1        0.0505
     21 C         -28.7544   47.9340   -3.5681 C.ar    1  UNL1        0.0147
     22 C         -28.8342   47.2232   -2.3692 C.ar    1  UNL1        0.0012
     23 C         -27.8366   46.3079   -2.0275 C.ar    1  UNL1        0.0039
     24 C         -26.7585   46.0739   -2.8983 C.ar    1  UNL1        0.0726
     25 C         -26.6700   46.8144   -4.0911 C.ar    1  UNL1        0.0185
     26 C         -25.6630   45.1090   -2.5188 C.3     1  UNL1        0.4186
     27 F         -25.5319   44.1199   -3.4782 F       1  UNL1       -0.1659
     28 F         -24.4682   45.7960   -2.4139 F       1  UNL1       -0.1659
     29 F         -25.9409   44.5006   -1.3068 F       1  UNL1       -0.1659
     30 N         -22.8210   52.2338  -11.4161 N.pl3   1  UNL1       -0.2814
     31 H         -22.9287   52.0920  -12.4454 H       1  UNL1        0.1551
     32 C         -19.2096   52.7863  -10.4719 C.ar    1  UNL1        0.0634
     33 C         -19.2843   54.1115  -10.0044 C.ar    1  UNL1        0.0060
     34 C         -20.4948   54.8033  -10.0141 C.ar    1  UNL1        0.0129
     35 C         -21.6575   54.1885  -10.4800 C.ar    1  UNL1        0.0733
     36 CL        -23.1654   55.0936  -10.4382 Cl      1  UNL1       -0.0809
     37 C         -21.6173   52.8597  -10.9371 C.ar    1  UNL1        0.0890
     38 C         -20.3871   52.1684  -10.9486 C.ar    1  UNL1        0.1570
     39 F         -20.3339   50.9137  -11.4664 F       1  UNL1       -0.2027
     40 C         -17.4089   51.3545   -9.2327 C.3     1  UNL1        0.0773
     41 C         -17.9119   52.0526  -10.4611 C.2     1  UNL1        0.1757
     42 O         -17.2160   51.9847  -11.5103 O.2     1  UNL1       -0.2913
@<TRIPOS>BOND
     1    40    41    1
     2    41    42    2
     3    41    32    1
     4    32    33   ar
     5    33    34   ar
     6    34    35   ar
     7    35    36    1
     8    35    37   ar
     9    37    30    1
    10    30     1    1
    11     1     2   ar
    12     2     3   ar
    13     3     4   ar
    14     4     5   ar
    15     5    16    1
    16    16    17    2
    17    16    18   am
    18    18    20    1
    19    20    21   ar
    20    21    22   ar
    21    22    23   ar
    22    23    24   ar
    23    24    26    1
    24    26    27    1
    25    26    28    1
    26    26    29    1
    27    24    25   ar
    28     5     6   ar
    29     6     7   ar
    30     7     8   ar
    31     8     9   ar
    32     9    10    1
    33     7    11    1
    34    11    12    1
    35    12    13    1
    36    12    14    1
    37    12    15    1
    38    37    38   ar
    39    38    39    1
    40    38    32   ar
    41     9     1   ar
    42     8     3   ar
    43    25    20   ar
    44    15     6    1
    45    30    31    1
    46    18    19    1
@<TRIPOS>MOLECULE
*****
 42 46 0 0 0
SMALL
GASTEIGER

@<TRIPOS>ATOM
      1 C         -23.9146   51.5599  -10.3409 C.ar    1  UNL1        0.2018
      2 N         -23.6934   51.3856   -9.0124 N.ar    1  UNL1       -0.2135
      3 C         -24.8645   50.8916   -8.5742 C.ar    1  UNL1        0.0999
      4 C         -25.2035   50.5587   -7.2562 C.ar    1  UNL1        0.0282
      5 C         -26.5188   50.0955   -6.9928 C.ar    1  UNL1        0.0888
      6 C         -27.4113   49.9752   -8.0870 C.ar    1  UNL1        0.1401
      7 C         -27.0453   50.2966   -9.3738 C.ar    1  UNL1        0.0327
      8 C         -25.7507   50.7655   -9.6105 C.ar    1  UNL1        0.0789
      9 N         -25.1551   51.1669  -10.7491 N.ar    1  UNL1       -0.2977
     10 C         -25.7065   51.1552  -12.1041 C.3     1  UNL1        0.1332
     11 C         -28.1849   50.0621  -10.3028 C.3     1  UNL1        0.0709
     12 C         -29.3189   49.5822   -9.3384 C.3     1  UNL1        0.1375
     13 C         -29.8217   48.1817   -9.7133 C.3     1  UNL1        0.0439
     14 C         -30.4848   50.5798   -9.3113 C.3     1  UNL1        0.0439
     15 O         -28.7174   49.5335   -8.0434 O.3     1  UNL1       -0.4824
     16 C         -26.9265   49.7421   -5.6146 C.2     1  UNL1        0.2525
     17 O         -26.3413   50.2841   -4.6373 O.2     1  UNL1       -0.2697
     18 N         -28.0163   48.8360   -5.3798 N.am    1  UNL1       -0.2803
     19 H         -28.7816   48.7990   -6.0906 H       1  UNL1        0.1552
     20 C         -28.1888   48.0914   -4.1616 C.ar    1  UNL1        0.0505
     21 C         -27.4801   46.8954   -3.9808 C.ar    1  UNL1        0.0147
     22 C         -27.6265   46.1582   -2.8043 C.ar    1  UNL1        0.0012
     23 C         -28.4639   46.6189   -1.7863 C.ar    1  UNL1        0.0039
     24 C         -29.1452   47.8403   -1.9249 C.ar    1  UNL1        0.0726
     25 C         -29.0151   48.5635   -3.1246 C.ar    1  UNL1        0.0185
     26 C         -30.0746   48.3262   -0.8408 C.3     1  UNL1        0.4186
     27 F         -30.9984   47.3477   -0.5171 F       1  UNL1       -0.1659
     28 F         -29.3359   48.6385    0.2851 F       1  UNL1       -0.1659
     29 F         -30.7655   49.4527   -1.2531 F       1  UNL1       -0.1659
     30 N         -22.9163   52.1233  -11.2032 N.pl3   1  UNL1       -0.2814
     31 H         -23.0369   51.9836  -12.2313 H       1  UNL1        0.1551
     32 C         -19.3054   52.5348  -10.1877 C.ar    1  UNL1        0.0634
     33 C         -19.3116   53.8950   -9.8269 C.ar    1  UNL1        0.0060
     34 C         -20.4766   54.6541   -9.9296 C.ar    1  UNL1        0.0129
     35 C         -21.6614   54.0740  -10.3840 C.ar    1  UNL1        0.0733
     36 CL        -23.1116   55.0670  -10.4616 Cl      1  UNL1       -0.0809
     37 C         -21.6902   52.7131  -10.7353 C.ar    1  UNL1        0.0890
     38 C         -20.5049   51.9517  -10.6532 C.ar    1  UNL1        0.1570
     39 F         -20.5145   50.6589  -11.0702 F       1  UNL1       -0.2027
     40 C         -16.8941   51.9427  -11.0017 C.3     1  UNL1        0.0773
     41 C         -18.0560   51.7290  -10.0779 C.2     1  UNL1        0.1757
     42 O         -17.9444   50.8566   -9.1744 O.2     1  UNL1       -0.2913
@<TRIPOS>BOND
     1    40    41    1
     2    41    42    2
     3    41    32    1
     4    32    33   ar
     5    33    34   ar
     6    34    35   ar
     7    35    36    1
     8    35    37   ar
     9    37    30    1
    10    30     1    1
    11     1     2   ar
    12     2     3   ar
    13     3     4   ar
    14     4     5   ar
    15     5    16    1
    16    16    17    2
    17    16    18   am
    18    18    20    1
    19    20    21   ar
    20    21    22   ar
    21    22    23   ar
    22    23    24   ar
    23    24    26    1
    24    26    27    1
    25    26    28    1
    26    26    29    1
    27    24    25   ar
    28     5     6   ar
    29     6     7   ar
    30     7     8   ar
    31     8     9   ar
    32     9    10    1
    33     7    11    1
    34    11    12    1
    35    12    13    1
    36    12    14    1
    37    12    15    1
    38    37    38   ar
    39    38    39    1
    40    38    32   ar
    41     9     1   ar
    42     8     3   ar
    43    25    20   ar
    44    15     6    1
    45    30    31    1
    46    18    19    1
@<TRIPOS>MOLECULE
*****
 42 46 0 0 0
SMALL
GASTEIGER

@<TRIPOS>ATOM
      1 C         -28.3442   48.1676   -6.9103 C.ar    1  UNL1        0.2018
      2 N         -27.0219   48.4468   -7.0438 N.ar    1  UNL1       -0.2135
      3 C         -26.9901   49.2444   -8.1257 C.ar    1  UNL1        0.0999
      4 C         -25.8581   49.8033   -8.7332 C.ar    1  UNL1        0.0282
      5 C         -26.0354   50.5827   -9.9058 C.ar    1  UNL1        0.0888
      6 C         -27.3560   50.7696  -10.3847 C.ar    1  UNL1        0.1401
      7 C         -28.4506   50.2194   -9.7583 C.ar    1  UNL1        0.0327
      8 C         -28.2540   49.4424   -8.6139 C.ar    1  UNL1        0.0789
      9 N         -29.1332   48.7806   -7.8386 N.ar    1  UNL1       -0.2977
     10 C         -30.5913   48.7531   -7.9551 C.3     1  UNL1        0.1332
     11 C         -29.6958   50.5930  -10.4839 C.3     1  UNL1        0.0709
     12 C         -29.1520   51.4324  -11.6864 C.3     1  UNL1        0.1375
     13 C         -29.7285   52.8545  -11.6869 C.3     1  UNL1        0.0439
     14 C         -29.4397   50.7378  -13.0244 C.3     1  UNL1        0.0439
     15 O         -27.7382   51.4995  -11.4910 O.3     1  UNL1       -0.4824
     16 C         -24.8683   51.1845  -10.5887 C.2     1  UNL1        0.2525
     17 O         -24.5277   50.7571  -11.7257 O.2     1  UNL1       -0.2697
     18 N         -24.1579   52.2848   -9.9984 N.am    1  UNL1       -0.2803
     19 H         -24.6936   52.9363   -9.3813 H       1  UNL1        0.1552
     20 C         -22.7988   52.6251  -10.3226 C.ar    1  UNL1        0.0505
     21 C         -22.5249   53.2890  -11.5266 C.ar    1  UNL1        0.0147
     22 C         -21.2143   53.6351  -11.8604 C.ar    1  UNL1        0.0012
     23 C         -20.1660   53.3430  -10.9854 C.ar    1  UNL1        0.0039
     24 C         -20.4232   52.7233   -9.7504 C.ar    1  UNL1        0.0726
     25 C         -21.7425   52.3519   -9.4334 C.ar    1  UNL1        0.0185
     26 C         -19.2904   52.3782   -8.8161 C.3     1  UNL1        0.4186
     27 F         -19.7777   51.8321   -7.6413 F       1  UNL1       -0.1659
     28 F         -18.4591   51.4597   -9.4291 F       1  UNL1       -0.1659
     29 F         -18.5559   53.5069   -8.4952 F       1  UNL1       -0.1659
     30 N         -28.8291   47.2909   -5.8837 N.pl3   1  UNL1       -0.2814
     31 H         -29.3896   46.4629   -6.1859 H       1  UNL1        0.1551
     32 C         -29.7266   48.4040   -2.3916 C.ar    1  UNL1        0.0634
     33 C         -28.5233   48.1021   -1.7273 C.ar    1  UNL1        0.0060
     34 C         -27.4517   47.5354   -2.4164 C.ar    1  UNL1        0.0129
     35 C         -27.5515   47.2659   -3.7817 C.ar    1  UNL1        0.0733
     36 CL        -26.1585   46.5829   -4.6110 Cl      1  UNL1       -0.0809
     37 C         -28.7349   47.5725   -4.4758 C.ar    1  UNL1        0.0890
     38 C         -29.8268   48.1245   -3.7726 C.ar    1  UNL1        0.1570
     39 F         -30.9968   48.3441   -4.4269 F       1  UNL1       -0.2027
     40 C         -31.5824   48.2666   -0.5572 C.3     1  UNL1        0.0773
     41 C         -30.8695   49.0078   -1.6488 C.2     1  UNL1        0.1757
     42 O         -31.2454   50.1817   -1.9140 O.2     1  UNL1       -0.2913
@<TRIPOS>BOND
     1    40    41    1
     2    41    42    2
     3    41    32    1
     4    32    33   ar
     5    33    34   ar
     6    34    35   ar
     7    35    36    1
     8    35    37   ar
     9    37    30    1
    10    30     1    1
    11     1     2   ar
    12     2     3   ar
    13     3     4   ar
    14     4     5   ar
    15     5    16    1
    16    16    17    2
    17    16    18   am
    18    18    20    1
    19    20    21   ar
    20    21    22   ar
    21    22    23   ar
    22    23    24   ar
    23    24    26    1
    24    26    27    1
    25    26    28    1
    26    26    29    1
    27    24    25   ar
    28     5     6   ar
    29     6     7   ar
    30     7     8   ar
    31     8     9   ar
    32     9    10    1
    33     7    11    1
    34    11    12    1
    35    12    13    1
    36    12    14    1
    37    12    15    1
    38    37    38   ar
    39    38    39    1
    40    38    32   ar
    41     9     1   ar
    42     8     3   ar
    43    25    20   ar
    44    15     6    1
    45    30    31    1
    46    18    19    1
@<TRIPOS>MOLECULE
*****
 42 46 0 0 0
SMALL
GASTEIGER

@<TRIPOS>ATOM
      1 C         -23.6106   51.8236  -10.3157 C.ar    1  UNL1        0.2018
      2 N         -23.4387   51.5626   -8.9941 N.ar    1  UNL1       -0.2135
      3 C         -24.6203   51.0306   -8.6359 C.ar    1  UNL1        0.0999
      4 C         -25.0060   50.6073   -7.3572 C.ar    1  UNL1        0.0282
      5 C         -26.3254   50.1166   -7.1769 C.ar    1  UNL1        0.0888
      6 C         -27.1738   50.0625   -8.3106 C.ar    1  UNL1        0.1401
      7 C         -26.7622   50.4724   -9.5579 C.ar    1  UNL1        0.0327
      8 C         -25.4645   50.9669   -9.7121 C.ar    1  UNL1        0.0789
      9 N         -24.8301   51.4486  -10.7973 N.ar    1  UNL1       -0.2977
     10 C         -25.3289   51.5231  -12.1706 C.3     1  UNL1        0.1332
     11 C         -27.8626   50.2912  -10.5442 C.3     1  UNL1        0.0709
     12 C         -29.0275   49.7383   -9.6590 C.3     1  UNL1        0.1375
     13 C         -29.5002   48.3619  -10.1458 C.3     1  UNL1        0.0439
     14 C         -30.2044   50.7222   -9.6110 C.3     1  UNL1        0.0439
     15 O         -28.4757   49.6080   -8.3475 O.3     1  UNL1       -0.4824
     16 C         -26.7818   49.6683   -5.8422 C.2     1  UNL1        0.2525
     17 O         -26.4393   50.3214   -4.8188 O.2     1  UNL1       -0.2697
     18 N         -27.6549   48.5356   -5.7060 N.am    1  UNL1       -0.2803
     19 H         -28.3141   48.3309   -6.4907 H       1  UNL1        0.1552
     20 C         -27.7781   47.7614   -4.5004 C.ar    1  UNL1        0.0505
     21 C         -28.9478   47.8635   -3.7344 C.ar    1  UNL1        0.0147
     22 C         -29.0930   47.1174   -2.5634 C.ar    1  UNL1        0.0012
     23 C         -28.0820   46.2441   -2.1570 C.ar    1  UNL1        0.0039
     24 C         -26.9225   46.0880   -2.9357 C.ar    1  UNL1        0.0726
     25 C         -26.7706   46.8641   -4.0992 C.ar    1  UNL1        0.0185
     26 C         -25.8148   45.1690   -2.4843 C.3     1  UNL1        0.4186
     27 F         -25.6186   44.1545   -3.4051 F       1  UNL1       -0.1659
     28 F         -24.6452   45.8948   -2.3575 F       1  UNL1       -0.1659
     29 F         -26.1211   44.5912   -1.2641 F       1  UNL1       -0.1659
     30 N         -22.5861   52.4519  -11.0989 N.pl3   1  UNL1       -0.2814
     31 H         -22.6765   52.3979  -12.1381 H       1  UNL1        0.1551
     32 C         -20.1304   54.8527   -9.5354 C.ar    1  UNL1        0.0634
     33 C         -18.9942   54.0249   -9.4706 C.ar    1  UNL1        0.0060
     34 C         -19.0466   52.7065   -9.9215 C.ar    1  UNL1        0.0129
     35 C         -20.2269   52.1873  -10.4546 C.ar    1  UNL1        0.0733
     36 CL        -20.2299   50.5289  -11.0413 Cl      1  UNL1       -0.0809
     37 C         -21.3732   52.9957  -10.5481 C.ar    1  UNL1        0.0890
     38 C         -21.3256   54.3226  -10.0700 C.ar    1  UNL1        0.1570
     39 F         -22.4557   55.0762  -10.0856 F       1  UNL1       -0.2027
     40 C         -19.4869   56.6107   -7.7124 C.3     1  UNL1        0.0773
     41 C         -20.0687   56.2608   -9.0496 C.2     1  UNL1        0.1757
     42 O         -20.4891   57.1995   -9.7789 O.2     1  UNL1       -0.2913
@<TRIPOS>BOND
     1    40    41    1
     2    41    42    2
     3    41    32    1
     4    32    33   ar
     5    33    34   ar
     6    34    35   ar
     7    35    36    1
     8    35    37   ar
     9    37    30    1
    10    30     1    1
    11     1     2   ar
    12     2     3   ar
    13     3     4   ar
    14     4     5   ar
    15     5    16    1
    16    16    17    2
    17    16    18   am
    18    18    20    1
    19    20    21   ar
    20    21    22   ar
    21    22    23   ar
    22    23    24   ar
    23    24    26    1
    24    26    27    1
    25    26    28    1
    26    26    29    1
    27    24    25   ar
    28     5     6   ar
    29     6     7   ar
    30     7     8   ar
    31     8     9   ar
    32     9    10    1
    33     7    11    1
    34    11    12    1
    35    12    13    1
    36    12    14    1
    37    12    15    1
    38    37    38   ar
    39    38    39    1
    40    38    32   ar
    41     9     1   ar
    42     8     3   ar
    43    25    20   ar
    44    15     6    1
    45    30    31    1
    46    18    19    1
@<TRIPOS>MOLECULE
*****
 42 46 0 0 0
SMALL
GASTEIGER

@<TRIPOS>ATOM
      1 C         -23.8124   51.6095  -10.5947 C.ar    1  UNL1        0.2018
      2 N         -23.8811   51.6975   -9.2413 N.ar    1  UNL1       -0.2135
      3 C         -25.1975   51.5739   -8.9978 C.ar    1  UNL1        0.0999
      4 C         -25.8373   51.6268   -7.7525 C.ar    1  UNL1        0.0282
      5 C         -27.2522   51.5234   -7.7145 C.ar    1  UNL1        0.0888
      6 C         -27.9379   51.3500   -8.9424 C.ar    1  UNL1        0.1401
      7 C         -27.2809   51.2874  -10.1496 C.ar    1  UNL1        0.0327
      8 C         -25.8889   51.4066  -10.1679 C.ar    1  UNL1        0.0789
      9 N         -25.0195   51.4052  -11.1956 N.ar    1  UNL1       -0.2977
     10 C         -25.3072   51.2040  -12.6158 C.3     1  UNL1        0.1332
     11 C         -28.2597   51.0948  -11.2548 C.3     1  UNL1        0.0709
     12 C         -29.6304   51.0957  -10.5014 C.3     1  UNL1        0.1375
     13 C         -30.3968   49.7852  -10.7249 C.3     1  UNL1        0.0439
     14 C         -30.4916   52.2966  -10.9155 C.3     1  UNL1        0.0439
     15 O         -29.2997   51.2154   -9.1165 O.3     1  UNL1       -0.4824
     16 C         -27.9732   51.5850   -6.4233 C.2     1  UNL1        0.2525
     17 O         -27.4180   52.1277   -5.4291 O.2     1  UNL1       -0.2697
     18 N         -29.3157   51.0873   -6.3066 N.am    1  UNL1       -0.2803
     19 H         -29.9246   51.1228   -7.1553 H       1  UNL1        0.1552
     20 C         -29.9134   50.6836   -5.0624 C.ar    1  UNL1        0.0505
     21 C         -30.9743   51.4327   -4.5344 C.ar    1  UNL1        0.0147
     22 C         -31.5746   51.0571   -3.3313 C.ar    1  UNL1        0.0012
     23 C         -31.1377   49.9167   -2.6543 C.ar    1  UNL1        0.0039
     24 C         -30.1096   49.1224   -3.1903 C.ar    1  UNL1        0.0726
     25 C         -29.4903   49.5227   -4.3884 C.ar    1  UNL1        0.0185
     26 C         -29.6139   47.9072   -2.4469 C.3     1  UNL1        0.4186
     27 F         -29.5946   48.1451   -1.0835 F       1  UNL1       -0.1659
     28 F         -30.4546   46.8411   -2.7063 F       1  UNL1       -0.1659
     29 F         -28.3302   47.5760   -2.8454 F       1  UNL1       -0.1659
     30 N         -22.5677   51.7396  -11.2958 N.pl3   1  UNL1       -0.2814
     31 H         -22.4552   51.1923  -12.1784 H       1  UNL1        0.1551
     32 C         -19.0688   52.4565  -10.0781 C.ar    1  UNL1        0.0634
     33 C         -19.1990   53.8224   -9.7656 C.ar    1  UNL1        0.0060
     34 C         -20.4086   54.4867   -9.9649 C.ar    1  UNL1        0.0129
     35 C         -21.5159   53.8043  -10.4700 C.ar    1  UNL1        0.0733
     36 CL        -23.0282   54.6805  -10.6696 Cl      1  UNL1       -0.0809
     37 C         -21.4209   52.4353  -10.7751 C.ar    1  UNL1        0.0890
     38 C         -20.1897   51.7696  -10.5950 C.ar    1  UNL1        0.1570
     39 F         -20.0766   50.4680  -10.9669 F       1  UNL1       -0.2027
     40 C         -16.6463   51.8540  -10.8504 C.3     1  UNL1        0.0773
     41 C         -17.7722   51.7523   -9.8649 C.2     1  UNL1        0.1757
     42 O         -17.5890   51.0682   -8.8217 O.2     1  UNL1       -0.2913
@<TRIPOS>BOND
     1    40    41    1
     2    41    42    2
     3    41    32    1
     4    32    33   ar
     5    33    34   ar
     6    34    35   ar
     7    35    36    1
     8    35    37   ar
     9    37    30    1
    10    30     1    1
    11     1     2   ar
    12     2     3   ar
    13     3     4   ar
    14     4     5   ar
    15     5    16    1
    16    16    17    2
    17    16    18   am
    18    18    20    1
    19    20    21   ar
    20    21    22   ar
    21    22    23   ar
    22    23    24   ar
    23    24    26    1
    24    26    27    1
    25    26    28    1
    26    26    29    1
    27    24    25   ar
    28     5     6   ar
    29     6     7   ar
    30     7     8   ar
    31     8     9   ar
    32     9    10    1
    33     7    11    1
    34    11    12    1
    35    12    13    1
    36    12    14    1
    37    12    15    1
    38    37    38   ar
    39    38    39    1
    40    38    32   ar
    41     9     1   ar
    42     8     3   ar
    43    25    20   ar
    44    15     6    1
    45    30    31    1
    46    18    19    1
@<TRIPOS>MOLECULE
*****
 42 46 0 0 0
SMALL
GASTEIGER

@<TRIPOS>ATOM
      1 C         -23.7804   51.3645   -9.8927 C.ar    1  UNL1        0.2018
      2 N         -23.9454   51.4023   -8.5453 N.ar    1  UNL1       -0.2135
      3 C         -25.2742   51.2585   -8.4003 C.ar    1  UNL1        0.0999
      4 C         -26.0008   51.2603   -7.2024 C.ar    1  UNL1        0.0282
      5 C         -27.4136   51.1433   -7.2685 C.ar    1  UNL1        0.0888
      6 C         -28.0090   51.0089   -8.5473 C.ar    1  UNL1        0.1401
      7 C         -27.2678   50.9962   -9.7064 C.ar    1  UNL1        0.0327
      8 C         -25.8794   51.1281   -9.6217 C.ar    1  UNL1        0.0789
      9 N         -24.9397   51.1718  -10.5845 N.ar    1  UNL1       -0.2977
     10 C         -25.1242   51.0203  -12.0279 C.3     1  UNL1        0.1332
     11 C         -28.1640   50.8357  -10.8844 C.3     1  UNL1        0.0709
     12 C         -29.5844   50.7972  -10.2305 C.3     1  UNL1        0.1375
     13 C         -30.3182   49.4891  -10.5546 C.3     1  UNL1        0.0439
     14 C         -30.4277   52.0049  -10.6613 C.3     1  UNL1        0.0439
     15 O         -29.3535   50.8690   -8.8223 O.3     1  UNL1       -0.4824
     16 C         -28.2245   51.1514   -6.0303 C.2     1  UNL1        0.2525
     17 O         -27.9500   51.9754   -5.1154 O.2     1  UNL1       -0.2697
     18 N         -29.3524   50.2737   -5.8845 N.am    1  UNL1       -0.2803
     19 H         -29.8687   49.9952   -6.7495 H       1  UNL1        0.1552
     20 C         -29.8989   49.8782   -4.6145 C.ar    1  UNL1        0.0505
     21 C         -31.0312   50.5387   -4.1175 C.ar    1  UNL1        0.0147
     22 C         -31.5833   50.1685   -2.8899 C.ar    1  UNL1        0.0012
     23 C         -31.0250   49.1198   -2.1563 C.ar    1  UNL1        0.0039
     24 C         -29.9205   48.4105   -2.6585 C.ar    1  UNL1        0.0726
     25 C         -29.3521   48.8074   -3.8826 C.ar    1  UNL1        0.0185
     26 C         -29.2955   47.2973   -1.8551 C.3     1  UNL1        0.4186
     27 F         -27.9147   47.3613   -1.9268 F       1  UNL1       -0.1659
     28 F         -29.6840   47.4166   -0.5339 F       1  UNL1       -0.1659
     29 F         -29.6956   46.0610   -2.3325 F       1  UNL1       -0.1659
     30 N         -22.4909   51.5310  -10.4987 N.pl3   1  UNL1       -0.2814
     31 H         -22.0899   50.7103  -11.0054 H       1  UNL1        0.1551
     32 C         -20.0282   53.9530   -8.9793 C.ar    1  UNL1        0.0634
     33 C         -20.0333   54.9527   -9.9698 C.ar    1  UNL1        0.0060
     34 C         -20.8216   54.8198  -11.1122 C.ar    1  UNL1        0.0129
     35 C         -21.6279   53.6949  -11.2886 C.ar    1  UNL1        0.0733
     36 CL        -22.6297   53.5926  -12.7311 Cl      1  UNL1       -0.0809
     37 C         -21.6567   52.6878  -10.3082 C.ar    1  UNL1        0.0890
     38 C         -20.8409   52.8123   -9.1636 C.ar    1  UNL1        0.1570
     39 F         -20.8077   51.8012   -8.2571 F       1  UNL1       -0.2027
     40 C         -18.8731   55.4432   -7.1703 C.3     1  UNL1        0.0773
     41 C         -19.1814   54.0998   -7.7612 C.2     1  UNL1        0.1757
     42 O         -18.7237   53.0770   -7.1832 O.2     1  UNL1       -0.2913
@<TRIPOS>BOND
     1    40    41    1
     2    41    42    2
     3    41    32    1
     4    32    33   ar
     5    33    34   ar
     6    34    35   ar
     7    35    36    1
     8    35    37   ar
     9    37    30    1
    10    30     1    1
    11     1     2   ar
    12     2     3   ar
    13     3     4   ar
    14     4     5   ar
    15     5    16    1
    16    16    17    2
    17    16    18   am
    18    18    20    1
    19    20    21   ar
    20    21    22   ar
    21    22    23   ar
    22    23    24   ar
    23    24    26    1
    24    26    27    1
    25    26    28    1
    26    26    29    1
    27    24    25   ar
    28     5     6   ar
    29     6     7   ar
    30     7     8   ar
    31     8     9   ar
    32     9    10    1
    33     7    11    1
    34    11    12    1
    35    12    13    1
    36    12    14    1
    37    12    15    1
    38    37    38   ar
    39    38    39    1
    40    38    32   ar
    41     9     1   ar
    42     8     3   ar
    43    25    20   ar
    44    15     6    1
    45    30    31    1
    46    18    19    1
@<TRIPOS>MOLECULE
*****
 42 46 0 0 0
SMALL
GASTEIGER

@<TRIPOS>ATOM
      1 C         -28.1448   46.9598   -7.5418 C.ar    1  UNL1        0.2018
      2 N         -26.9587   47.5344   -7.2143 N.ar    1  UNL1       -0.2135
      3 C         -26.9128   48.6104   -8.0190 C.ar    1  UNL1        0.0999
      4 C         -25.8777   49.5492   -8.1201 C.ar    1  UNL1        0.0282
      5 C         -26.0019   50.5924   -9.0742 C.ar    1  UNL1        0.0888
      6 C         -27.1813   50.6371   -9.8585 C.ar    1  UNL1        0.1401
      7 C         -28.1881   49.7085   -9.7270 C.ar    1  UNL1        0.0327
      8 C         -28.0404   48.6801   -8.7928 C.ar    1  UNL1        0.0789
      9 N         -28.8477   47.6473   -8.4869 N.ar    1  UNL1       -0.2977
     10 C         -30.1757   47.3543   -9.0261 C.3     1  UNL1        0.1332
     11 C         -29.2948   50.0172  -10.6738 C.3     1  UNL1        0.0709
     12 C         -28.7557   51.2749  -11.4314 C.3     1  UNL1        0.1375
     13 C         -29.6930   52.4783  -11.2632 C.3     1  UNL1        0.0439
     14 C         -28.5327   50.9742  -12.9197 C.3     1  UNL1        0.0439
     15 O         -27.4976   51.5717  -10.8226 O.3     1  UNL1       -0.4824
     16 C         -24.9293   51.6011   -9.2248 C.2     1  UNL1        0.2525
     17 O         -25.2216   52.7609   -9.6259 O.2     1  UNL1       -0.2697
     18 N         -23.5734   51.2917   -8.8650 N.am    1  UNL1       -0.2803
     19 H         -23.4182   50.5912   -8.1051 H       1  UNL1        0.1552
     20 C         -22.4291   51.9928   -9.3819 C.ar    1  UNL1        0.0505
     21 C         -22.4133   52.3847  -10.7279 C.ar    1  UNL1        0.0147
     22 C         -21.3164   53.0716  -11.2511 C.ar    1  UNL1        0.0012
     23 C         -20.2337   53.3950  -10.4308 C.ar    1  UNL1        0.0039
     24 C         -20.2497   53.0565   -9.0668 C.ar    1  UNL1        0.0726
     25 C         -21.3457   52.3395   -8.5531 C.ar    1  UNL1        0.0185
     26 C         -19.0690   53.3766   -8.1843 C.3     1  UNL1        0.4186
     27 F         -19.2583   52.8630   -6.9130 F       1  UNL1       -0.1659
     28 F         -17.9286   52.8184   -8.7305 F       1  UNL1       -0.1659
     29 F         -18.8929   54.7454   -8.0751 F       1  UNL1       -0.1659
     30 N         -28.5794   45.7329   -6.9389 N.pl3   1  UNL1       -0.2814
     31 H         -28.3468   44.8451   -7.4377 H       1  UNL1        0.1551
     32 C         -29.9139   46.1314   -3.4318 C.ar    1  UNL1        0.0634
     33 C         -31.1726   45.5205   -3.5837 C.ar    1  UNL1        0.0060
     34 C         -31.5695   45.0033   -4.8162 C.ar    1  UNL1        0.0129
     35 C         -30.7195   45.0745   -5.9203 C.ar    1  UNL1        0.0733
     36 CL        -31.2545   44.3756   -7.4436 Cl      1  UNL1       -0.0809
     37 C         -29.4492   45.6635   -5.7949 C.ar    1  UNL1        0.0890
     38 C         -29.0579   46.2075   -4.5529 C.ar    1  UNL1        0.1570
     39 F         -27.8645   46.8486   -4.4540 F       1  UNL1       -0.2027
     40 C         -29.9356   46.0630   -0.8198 C.3     1  UNL1        0.0773
     41 C         -29.4961   46.6845   -2.1120 C.2     1  UNL1        0.1757
     42 O         -28.7325   47.6864   -2.0603 O.2     1  UNL1       -0.2913
@<TRIPOS>BOND
     1    40    41    1
     2    41    42    2
     3    41    32    1
     4    32    33   ar
     5    33    34   ar
     6    34    35   ar
     7    35    36    1
     8    35    37   ar
     9    37    30    1
    10    30     1    1
    11     1     2   ar
    12     2     3   ar
    13     3     4   ar
    14     4     5   ar
    15     5    16    1
    16    16    17    2
    17    16    18   am
    18    18    20    1
    19    20    21   ar
    20    21    22   ar
    21    22    23   ar
    22    23    24   ar
    23    24    26    1
    24    26    27    1
    25    26    28    1
    26    26    29    1
    27    24    25   ar
    28     5     6   ar
    29     6     7   ar
    30     7     8   ar
    31     8     9   ar
    32     9    10    1
    33     7    11    1
    34    11    12    1
    35    12    13    1
    36    12    14    1
    37    12    15    1
    38    37    38   ar
    39    38    39    1
    40    38    32   ar
    41     9     1   ar
    42     8     3   ar
    43    25    20   ar
    44    15     6    1
    45    30    31    1
    46    18    19    1
@<TRIPOS>MOLECULE
*****
 42 46 0 0 0
SMALL
GASTEIGER

@<TRIPOS>ATOM
      1 C         -24.2799   51.6286   -9.3235 C.ar    1  UNL1        0.2018
      2 N         -24.1336   51.2328   -8.0327 N.ar    1  UNL1       -0.2135
      3 C         -24.9967   50.2069   -7.9325 C.ar    1  UNL1        0.0999
      4 C         -25.2767   49.4437   -6.7914 C.ar    1  UNL1        0.0282
      5 C         -26.2649   48.4292   -6.8822 C.ar    1  UNL1        0.0888
      6 C         -26.8992   48.2313   -8.1338 C.ar    1  UNL1        0.1401
      7 C         -26.5931   48.9876   -9.2417 C.ar    1  UNL1        0.0327
      8 C         -25.6283   49.9919   -9.1282 C.ar    1  UNL1        0.0789
      9 N         -25.1681   50.8756  -10.0333 N.ar    1  UNL1       -0.2977
     10 C         -25.5224   50.9791  -11.4490 C.3     1  UNL1        0.1332
     11 C         -27.4121   48.5461  -10.4040 C.3     1  UNL1        0.0709
     12 C         -28.2993   47.4153   -9.7872 C.3     1  UNL1        0.1375
     13 C         -28.0843   46.0762  -10.5051 C.3     1  UNL1        0.0439
     14 C         -29.7846   47.8008   -9.8071 C.3     1  UNL1        0.0439
     15 O         -27.8676   47.2947   -8.4305 O.3     1  UNL1       -0.4824
     16 C         -26.6026   47.6046   -5.7004 C.2     1  UNL1        0.2525
     17 O         -25.8144   46.6885   -5.3386 O.2     1  UNL1       -0.2697
     18 N         -27.7849   47.8736   -4.9299 N.am    1  UNL1       -0.2803
     19 H         -28.1303   48.8594   -4.8947 H       1  UNL1        0.1552
     20 C         -28.4306   46.9009   -4.0903 C.ar    1  UNL1        0.0505
     21 C         -28.5657   45.5817   -4.5452 C.ar    1  UNL1        0.0147
     22 C         -29.1834   44.6183   -3.7457 C.ar    1  UNL1        0.0012
     23 C         -29.6521   44.9559   -2.4744 C.ar    1  UNL1        0.0039
     24 C         -29.4824   46.2597   -1.9777 C.ar    1  UNL1        0.0726
     25 C         -28.8846   47.2322   -2.7999 C.ar    1  UNL1        0.0185
     26 C         -30.0147   46.6364   -0.6175 C.3     1  UNL1        0.4186
     27 F         -29.5776   47.8991   -0.2565 F       1  UNL1       -0.1659
     28 F         -31.3965   46.6309   -0.6525 F       1  UNL1       -0.1659
     29 F         -29.5847   45.7392    0.3450 F       1  UNL1       -0.1659
     30 N         -23.5606   52.7509   -9.8534 N.pl3   1  UNL1       -0.2814
     31 H         -24.1216   53.5714  -10.1745 H       1  UNL1        0.1551
     32 C         -19.8333   52.3926   -9.3860 C.ar    1  UNL1        0.0634
     33 C         -19.3958   52.7354  -10.6788 C.ar    1  UNL1        0.0060
     34 C         -20.3119   53.0635  -11.6774 C.ar    1  UNL1        0.0129
     35 C         -21.6810   53.0667  -11.4085 C.ar    1  UNL1        0.0733
     36 CL        -22.7924   53.5221  -12.6938 Cl      1  UNL1       -0.0809
     37 C         -22.1470   52.7454  -10.1217 C.ar    1  UNL1        0.0890
     38 C         -21.2203   52.3908   -9.1182 C.ar    1  UNL1        0.1570
     39 F         -21.6762   52.0015   -7.8993 F       1  UNL1       -0.2027
     40 C         -17.4590   51.5844   -8.6531 C.3     1  UNL1        0.0773
     41 C         -18.8491   52.0405   -8.3231 C.2     1  UNL1        0.1757
     42 O         -19.1671   52.1465   -7.1077 O.2     1  UNL1       -0.2913
@<TRIPOS>BOND
     1    40    41    1
     2    41    42    2
     3    41    32    1
     4    32    33   ar
     5    33    34   ar
     6    34    35   ar
     7    35    36    1
     8    35    37   ar
     9    37    30    1
    10    30     1    1
    11     1     2   ar
    12     2     3   ar
    13     3     4   ar
    14     4     5   ar
    15     5    16    1
    16    16    17    2
    17    16    18   am
    18    18    20    1
    19    20    21   ar
    20    21    22   ar
    21    22    23   ar
    22    23    24   ar
    23    24    26    1
    24    26    27    1
    25    26    28    1
    26    26    29    1
    27    24    25   ar
    28     5     6   ar
    29     6     7   ar
    30     7     8   ar
    31     8     9   ar
    32     9    10    1
    33     7    11    1
    34    11    12    1
    35    12    13    1
    36    12    14    1
    37    12    15    1
    38    37    38   ar
    39    38    39    1
    40    38    32   ar
    41     9     1   ar
    42     8     3   ar
    43    25    20   ar
    44    15     6    1
    45    30    31    1
    46    18    19    1
