@<TRIPOS>MOLECULE
*****
 36 41 0 0 0
SMALL
GASTEIGER

@<TRIPOS>ATOM
      1 C          48.5231   11.7445  -25.5228 C.ar    1  UNL1        0.1125
      2 N          48.2606   11.8290  -26.8514 N.ar    1  UNL1       -0.1676
      3 N          46.9669   12.0916  -26.9974 N.ar    1  UNL1       -0.2319
      4 C          46.2925   12.2218  -28.2818 C.3     1  UNL1        0.1554
      5 C          46.4063   12.1600  -25.7800 C.ar    1  UNL1        0.1654
      6 N          45.1086   12.4193  -25.4906 N.ar    1  UNL1       -0.2050
      7 C          44.7357   12.4438  -24.1770 C.ar    1  UNL1        0.2014
      8 N          45.6493   12.1816  -23.1898 N.ar    1  UNL1       -0.2089
      9 C          46.9581   11.9090  -23.4753 C.ar    1  UNL1        0.1379
     10 C          47.3414   11.9321  -24.8184 C.ar    1  UNL1        0.0866
     11 C          50.8025   12.5321  -24.6659 C.ar    1  UNL1        0.0840
     12 C          49.8754   11.5544  -24.9831 C.ar    1  UNL1        0.0911
     13 C          50.4733   10.3723  -24.5854 C.ar    1  UNL1        0.2415
     14 O          49.9048    9.1030  -24.6284 O.3     1  UNL1       -0.4910
     15 N          51.7018   10.6154  -24.0938 N.ar    1  UNL1       -0.1316
     16 N          51.9000   11.9242  -24.1549 N.ar    1  UNL1       -0.2459
     17 C          53.1406   12.5583  -23.7209 C.3     1  UNL1        0.1538
     18 H          48.9559    8.9615  -24.9514 H       1  UNL1        0.2938
     19 C          50.1952   18.2140  -25.6214 C.3     1  UNL1        0.0310
     20 C          50.3234   16.7405  -25.3722 C.ar    1  UNL1       -0.0218
     21 C          50.4174   15.8471  -26.4494 C.ar    1  UNL1       -0.0042
     22 C          50.5730   14.4777  -26.2177 C.ar    1  UNL1        0.0012
     23 C          50.6531   13.9843  -24.9055 C.ar    1  UNL1        0.0175
     24 C          50.5705   14.8806  -23.8291 C.ar    1  UNL1        0.0012
     25 C          50.4155   16.2505  -24.0611 C.ar    1  UNL1       -0.0042
     26 N          47.8540   11.5228  -22.4259 N.pl3   1  UNL1       -0.2917
     27 C          47.9198   10.1526  -21.9318 C.3     1  UNL1        0.0937
     28 C          48.4452   10.2496  -20.5033 C.3     1  UNL1        0.0391
     29 C          49.1041   11.6372  -20.4279 C.3     1  UNL1        0.0790
     30 C          48.3784   12.4842  -21.4704 C.3     1  UNL1        0.1081
     31 N          49.1462   12.2783  -19.0853 N.3     1  UNL1       -0.2723
     32 C          49.8727   11.4437  -18.1063 C.3     1  UNL1        0.0721
     33 C          50.1577   12.2529  -16.8339 C.3     1  UNL1        0.0174
     34 C          48.8631   12.8207  -16.2414 C.3     1  UNL1        0.0029
     35 C          48.0639   13.5836  -17.3038 C.3     1  UNL1        0.0174
     36 C          47.8381   12.6956  -18.5298 C.3     1  UNL1        0.0721
@<TRIPOS>BOND
     1    19    20    1
     2    20    21   ar
     3    21    22   ar
     4    22    23   ar
     5    23    11    1
     6    11    12   ar
     7    12     1    1
     8     1     2   ar
     9     2     3   ar
    10     3     4    1
    11     3     5   ar
    12     5     6   ar
    13     6     7   ar
    14     7     8   ar
    15     8     9   ar
    16     9    26    1
    17    26    27    1
    18    27    28    1
    19    28    29    1
    20    29    31    1
    21    31    32    1
    22    32    33    1
    23    33    34    1
    24    34    35    1
    25    35    36    1
    26    29    30    1
    27     9    10   ar
    28    12    13   ar
    29    13    14    1
    30    13    15   ar
    31    15    16   ar
    32    16    17    1
    33    23    24   ar
    34    24    25   ar
    35    25    20   ar
    36    16    11   ar
    37    10     1   ar
    38    10     5   ar
    39    30    26    1
    40    36    31    1
    41    14    18    1
@<TRIPOS>MOLECULE
*****
 36 41 0 0 0
SMALL
GASTEIGER

@<TRIPOS>ATOM
      1 C          48.5720   14.3553  -22.0501 C.ar    1  UNL1        0.1125
      2 N          49.0455   14.5120  -20.7882 N.ar    1  UNL1       -0.1676
      3 N          48.7621   13.4092  -20.1045 N.ar    1  UNL1       -0.2319
      4 C          49.0793   13.2080  -18.6972 C.3     1  UNL1        0.1554
      5 C          48.1039   12.5643  -20.9130 C.ar    1  UNL1        0.1654
      6 N          47.6466   11.3269  -20.6051 N.ar    1  UNL1       -0.2050
      7 C          46.9955   10.6221  -21.5770 C.ar    1  UNL1        0.2014
      8 N          46.7889   11.1726  -22.8149 N.ar    1  UNL1       -0.2089
      9 C          47.2386   12.4248  -23.1291 C.ar    1  UNL1        0.1379
     10 C          47.9444   13.1202  -22.1445 C.ar    1  UNL1        0.0866
     11 C          49.6861   15.2701  -24.1648 C.ar    1  UNL1        0.0840
     12 C          48.7863   15.3427  -23.1155 C.ar    1  UNL1        0.0911
     13 C          48.0726   16.5030  -23.3549 C.ar    1  UNL1        0.2415
     14 O          46.9958   16.9792  -22.6134 O.3     1  UNL1       -0.4910
     15 N          48.5374   17.1150  -24.4592 N.ar    1  UNL1       -0.1316
     16 N          49.5219   16.3692  -24.9395 N.ar    1  UNL1       -0.2459
     17 C          50.2810   16.7321  -26.1318 C.3     1  UNL1        0.1538
     18 H          46.6337   16.4646  -21.8203 H       1  UNL1        0.2938
     19 C          53.6501   11.1176  -24.9460 C.3     1  UNL1        0.0310
     20 C          52.6052   12.1726  -24.7339 C.ar    1  UNL1       -0.0218
     21 C          52.5755   12.9080  -23.5399 C.ar    1  UNL1       -0.0042
     22 C          51.6245   13.9155  -23.3562 C.ar    1  UNL1        0.0012
     23 C          50.7003   14.2128  -24.3706 C.ar    1  UNL1        0.0175
     24 C          50.7386   13.4840  -25.5691 C.ar    1  UNL1        0.0012
     25 C          51.6903   12.4766  -25.7529 C.ar    1  UNL1       -0.0042
     26 N          46.8991   13.0111  -24.3917 N.pl3   1  UNL1       -0.2917
     27 C          45.7708   13.9224  -24.5416 C.3     1  UNL1        0.0937
     28 C          45.3479   13.8249  -26.0036 C.3     1  UNL1        0.0391
     29 C          46.5676   13.2195  -26.7185 C.3     1  UNL1        0.0790
     30 C          47.2959   12.4056  -25.6518 C.3     1  UNL1        0.1081
     31 N          46.2904   12.4399  -27.9558 N.3     1  UNL1       -0.2723
     32 C          47.1935   11.2773  -28.0804 C.3     1  UNL1        0.0721
     33 C          46.6934   10.3386  -29.1865 C.3     1  UNL1        0.0174
     34 C          46.5469   11.0852  -30.5172 C.3     1  UNL1        0.0029
     35 C          45.7043   12.3536  -30.3429 C.3     1  UNL1        0.0174
     36 C          46.2799   13.2163  -29.2171 C.3     1  UNL1        0.0721
@<TRIPOS>BOND
     1    19    20    1
     2    20    21   ar
     3    21    22   ar
     4    22    23   ar
     5    23    11    1
     6    11    12   ar
     7    12     1    1
     8     1     2   ar
     9     2     3   ar
    10     3     4    1
    11     3     5   ar
    12     5     6   ar
    13     6     7   ar
    14     7     8   ar
    15     8     9   ar
    16     9    26    1
    17    26    27    1
    18    27    28    1
    19    28    29    1
    20    29    31    1
    21    31    32    1
    22    32    33    1
    23    33    34    1
    24    34    35    1
    25    35    36    1
    26    29    30    1
    27     9    10   ar
    28    12    13   ar
    29    13    14    1
    30    13    15   ar
    31    15    16   ar
    32    16    17    1
    33    23    24   ar
    34    24    25   ar
    35    25    20   ar
    36    16    11   ar
    37    10     1   ar
    38    10     5   ar
    39    30    26    1
    40    36    31    1
    41    14    18    1
@<TRIPOS>MOLECULE
*****
 36 41 0 0 0
SMALL
GASTEIGER

@<TRIPOS>ATOM
      1 C          49.6814   10.7714  -26.3004 C.ar    1  UNL1        0.1125
      2 N          49.4041    9.7142  -27.1046 N.ar    1  UNL1       -0.1676
      3 N          50.5099    9.4067  -27.7727 N.ar    1  UNL1       -0.2319
      4 C          50.6045    8.3447  -28.7650 C.3     1  UNL1        0.1554
      5 C          51.4775   10.2638  -27.4122 C.ar    1  UNL1        0.1654
      6 N          52.7578   10.2850  -27.8542 N.ar    1  UNL1       -0.2050
      7 C          53.5923   11.2468  -27.3606 C.ar    1  UNL1        0.2014
      8 N          53.1292   12.1778  -26.4679 N.ar    1  UNL1       -0.2089
      9 C          51.8357   12.1686  -26.0255 C.ar    1  UNL1        0.1379
     10 C          51.0014   11.1533  -26.4994 C.ar    1  UNL1        0.0866
     11 C          47.5220   11.9695  -25.6285 C.ar    1  UNL1        0.0840
     12 C          48.7150   11.3274  -25.3449 C.ar    1  UNL1        0.0911
     13 C          48.7396   11.2425  -23.9647 C.ar    1  UNL1        0.2415
     14 O          49.7092   10.6103  -23.1924 O.3     1  UNL1       -0.4910
     15 N          47.6480   11.8313  -23.4433 N.ar    1  UNL1       -0.1316
     16 N          46.9193   12.2793  -24.4554 N.ar    1  UNL1       -0.2459
     17 C          45.6612   12.9950  -24.2696 C.3     1  UNL1        0.1538
     18 H          50.4895   10.1266  -23.6190 H       1  UNL1        0.2938
     19 C          45.5381   13.3258  -30.9002 C.3     1  UNL1        0.0310
     20 C          46.0243   12.9735  -29.5257 C.ar    1  UNL1       -0.0218
     21 C          46.2874   11.6373  -29.1900 C.ar    1  UNL1       -0.0042
     22 C          46.7745   11.3123  -27.9210 C.ar    1  UNL1        0.0012
     23 C          47.0208   12.3207  -26.9754 C.ar    1  UNL1        0.0175
     24 C          46.7680   13.6581  -27.3167 C.ar    1  UNL1        0.0012
     25 C          46.2813   13.9831  -28.5863 C.ar    1  UNL1       -0.0042
     26 N          51.3587   13.2279  -25.1867 N.pl3   1  UNL1       -0.2917
     27 C          51.3421   13.1141  -23.7332 C.3     1  UNL1        0.0937
     28 C          50.2531   14.0677  -23.2531 C.3     1  UNL1        0.0391
     29 C          50.0352   15.0300  -24.4328 C.3     1  UNL1        0.0790
     30 C          50.4375   14.2399  -25.6758 C.3     1  UNL1        0.1081
     31 N          48.6838   15.6433  -24.5462 N.3     1  UNL1       -0.2723
     32 C          48.6139   16.6025  -25.6678 C.3     1  UNL1        0.0721
     33 C          47.1532   16.9838  -25.9438 C.3     1  UNL1        0.0174
     34 C          46.4819   17.5393  -24.6827 C.3     1  UNL1        0.0029
     35 C          46.6676   16.5844  -23.4983 C.3     1  UNL1        0.0174
     36 C          48.1522   16.2627  -23.3103 C.3     1  UNL1        0.0721
@<TRIPOS>BOND
     1    19    20    1
     2    20    21   ar
     3    21    22   ar
     4    22    23   ar
     5    23    11    1
     6    11    12   ar
     7    12     1    1
     8     1     2   ar
     9     2     3   ar
    10     3     4    1
    11     3     5   ar
    12     5     6   ar
    13     6     7   ar
    14     7     8   ar
    15     8     9   ar
    16     9    26    1
    17    26    27    1
    18    27    28    1
    19    28    29    1
    20    29    31    1
    21    31    32    1
    22    32    33    1
    23    33    34    1
    24    34    35    1
    25    35    36    1
    26    29    30    1
    27     9    10   ar
    28    12    13   ar
    29    13    14    1
    30    13    15   ar
    31    15    16   ar
    32    16    17    1
    33    23    24   ar
    34    24    25   ar
    35    25    20   ar
    36    16    11   ar
    37    10     1   ar
    38    10     5   ar
    39    30    26    1
    40    36    31    1
    41    14    18    1
@<TRIPOS>MOLECULE
*****
 36 41 0 0 0
SMALL
GASTEIGER

@<TRIPOS>ATOM
      1 C          47.9891   12.7147  -25.5736 C.ar    1  UNL1        0.1125
      2 N          47.0562   12.5187  -26.5392 N.ar    1  UNL1       -0.1676
      3 N          47.0287   13.6014  -27.3079 N.ar    1  UNL1       -0.2319
      4 C          46.1274   13.7874  -28.4369 C.3     1  UNL1        0.1554
      5 C          47.9211   14.4838  -26.8328 C.ar    1  UNL1        0.1654
      6 N          48.2089   15.7078  -27.3366 N.ar    1  UNL1       -0.2050
      7 C          49.1562   16.4582  -26.7004 C.ar    1  UNL1        0.2014
      8 N          49.7693   15.9896  -25.5678 N.ar    1  UNL1       -0.2089
      9 C          49.4760   14.7596  -25.0480 C.ar    1  UNL1        0.1379
     10 C          48.5403   13.9793  -25.7313 C.ar    1  UNL1        0.0866
     11 C          49.4071   10.7853  -24.6698 C.ar    1  UNL1        0.0840
     12 C          48.3579   11.6850  -24.5940 C.ar    1  UNL1        0.0911
     13 C          47.8013   11.4590  -23.3482 C.ar    1  UNL1        0.2415
     14 O          46.7543   12.1696  -22.7692 O.3     1  UNL1       -0.4910
     15 N          48.4488   10.4582  -22.7244 N.ar    1  UNL1       -0.1316
     16 N          49.4138   10.0468  -23.5342 N.ar    1  UNL1       -0.2459
     17 C          50.3186    8.9529  -23.1961 C.3     1  UNL1        0.1538
     18 H          46.3257   12.9552  -23.2425 H       1  UNL1        0.2938
     19 C          53.0129   10.0940  -29.1517 C.3     1  UNL1        0.0310
     20 C          52.0932   10.2515  -27.9773 C.ar    1  UNL1       -0.0218
     21 C          52.3758   11.1964  -26.9799 C.ar    1  UNL1       -0.0042
     22 C          51.5007   11.3685  -25.9040 C.ar    1  UNL1        0.0012
     23 C          50.3223   10.6097  -25.8189 C.ar    1  UNL1        0.0175
     24 C          50.0352    9.6730  -26.8235 C.ar    1  UNL1        0.0012
     25 C          50.9104    9.5013  -27.9000 C.ar    1  UNL1       -0.0042
     26 N          50.0489   14.3559  -23.7983 N.pl3   1  UNL1       -0.2917
     27 C          51.3028   13.6153  -23.7268 C.3     1  UNL1        0.0937
     28 C          51.2601   12.8499  -22.4083 C.3     1  UNL1        0.0391
     29 C          50.1885   13.5743  -21.5763 C.3     1  UNL1        0.0790
     30 C          49.2446   14.2046  -22.5973 C.3     1  UNL1        0.1081
     31 N          49.4783   12.7567  -20.5553 N.3     1  UNL1       -0.2723
     32 C          48.9644   13.5921  -19.4504 C.3     1  UNL1        0.0721
     33 C          47.9929   12.7794  -18.5841 C.3     1  UNL1        0.0174
     34 C          48.6581   11.5005  -18.0631 C.3     1  UNL1        0.0029
     35 C          49.2896   10.7055  -19.2114 C.3     1  UNL1        0.0174
     36 C          50.2338   11.6030  -20.0150 C.3     1  UNL1        0.0721
@<TRIPOS>BOND
     1    19    20    1
     2    20    21   ar
     3    21    22   ar
     4    22    23   ar
     5    23    11    1
     6    11    12   ar
     7    12     1    1
     8     1     2   ar
     9     2     3   ar
    10     3     4    1
    11     3     5   ar
    12     5     6   ar
    13     6     7   ar
    14     7     8   ar
    15     8     9   ar
    16     9    26    1
    17    26    27    1
    18    27    28    1
    19    28    29    1
    20    29    31    1
    21    31    32    1
    22    32    33    1
    23    33    34    1
    24    34    35    1
    25    35    36    1
    26    29    30    1
    27     9    10   ar
    28    12    13   ar
    29    13    14    1
    30    13    15   ar
    31    15    16   ar
    32    16    17    1
    33    23    24   ar
    34    24    25   ar
    35    25    20   ar
    36    16    11   ar
    37    10     1   ar
    38    10     5   ar
    39    30    26    1
    40    36    31    1
    41    14    18    1
@<TRIPOS>MOLECULE
*****
 36 41 0 0 0
SMALL
GASTEIGER

@<TRIPOS>ATOM
      1 C          48.0695   16.7312  -24.5633 C.ar    1  UNL1        0.1125
      2 N          47.2704   17.8253  -24.6388 N.ar    1  UNL1       -0.1676
      3 N          47.8776   18.7238  -25.4056 N.ar    1  UNL1       -0.2319
      4 C          47.3487   20.0489  -25.6985 C.3     1  UNL1        0.1554
      5 C          49.0551   18.2179  -25.8035 C.ar    1  UNL1        0.1654
      6 N          49.9714   18.8118  -26.6052 N.ar    1  UNL1       -0.2050
      7 C          51.1156   18.1238  -26.8929 C.ar    1  UNL1        0.2014
      8 N          51.3341   16.8821  -26.3558 N.ar    1  UNL1       -0.2089
      9 C          50.4183   16.2813  -25.5377 C.ar    1  UNL1        0.1379
     10 C          49.2303   16.9718  -25.2863 C.ar    1  UNL1        0.0866
     11 C          47.1546   14.3447  -24.4310 C.ar    1  UNL1        0.0840
     12 C          47.6768   15.4976  -23.8705 C.ar    1  UNL1        0.0911
     13 C          47.8349   15.1875  -22.5319 C.ar    1  UNL1        0.2415
     14 O          48.3988   16.0027  -21.5554 O.3     1  UNL1       -0.4910
     15 N          47.3993   13.9379  -22.2898 N.ar    1  UNL1       -0.1316
     16 N          46.9784   13.4360  -23.4418 N.ar    1  UNL1       -0.2459
     17 C          46.4164   12.0947  -23.5631 C.3     1  UNL1        0.1538
     18 H          48.7696   16.9170  -21.7823 H       1  UNL1        0.2938
     19 C          45.6985   13.5837  -29.9867 C.3     1  UNL1        0.0310
     20 C          46.0488   13.7719  -28.5405 C.ar    1  UNL1       -0.0218
     21 C          46.6883   12.7462  -27.8289 C.ar    1  UNL1       -0.0042
     22 C          47.0472   12.9342  -26.4913 C.ar    1  UNL1        0.0012
     23 C          46.7863   14.1565  -25.8514 C.ar    1  UNL1        0.0175
     24 C          46.1569   15.1857  -26.5680 C.ar    1  UNL1        0.0012
     25 C          45.7985   14.9977  -27.9061 C.ar    1  UNL1       -0.0042
     26 N          50.7350   15.0374  -24.9010 N.pl3   1  UNL1       -0.2917
     27 C          50.4919   13.7541  -25.5492 C.3     1  UNL1        0.0937
     28 C          50.3396   12.7396  -24.4207 C.3     1  UNL1        0.0391
     29 C          50.9821   13.4204  -23.2005 C.3     1  UNL1        0.0790
     30 C          50.8433   14.9190  -23.4566 C.3     1  UNL1        0.1081
     31 N          50.4682   13.0088  -21.8656 N.3     1  UNL1       -0.2723
     32 C          51.4234   13.3411  -20.7886 C.3     1  UNL1        0.0721
     33 C          50.7481   13.1845  -19.4195 C.3     1  UNL1        0.0174
     34 C          50.1719   11.7744  -19.2483 C.3     1  UNL1        0.0029
     35 C          49.2768   11.4014  -20.4352 C.3     1  UNL1        0.0174
     36 C          50.0377   11.5964  -21.7490 C.3     1  UNL1        0.0721
@<TRIPOS>BOND
     1    19    20    1
     2    20    21   ar
     3    21    22   ar
     4    22    23   ar
     5    23    11    1
     6    11    12   ar
     7    12     1    1
     8     1     2   ar
     9     2     3   ar
    10     3     4    1
    11     3     5   ar
    12     5     6   ar
    13     6     7   ar
    14     7     8   ar
    15     8     9   ar
    16     9    26    1
    17    26    27    1
    18    27    28    1
    19    28    29    1
    20    29    31    1
    21    31    32    1
    22    32    33    1
    23    33    34    1
    24    34    35    1
    25    35    36    1
    26    29    30    1
    27     9    10   ar
    28    12    13   ar
    29    13    14    1
    30    13    15   ar
    31    15    16   ar
    32    16    17    1
    33    23    24   ar
    34    24    25   ar
    35    25    20   ar
    36    16    11   ar
    37    10     1   ar
    38    10     5   ar
    39    30    26    1
    40    36    31    1
    41    14    18    1
@<TRIPOS>MOLECULE
*****
 36 41 0 0 0
SMALL
GASTEIGER

@<TRIPOS>ATOM
      1 C          47.2476   12.5229  -26.1050 C.ar    1  UNL1        0.1125
      2 N          46.6933   11.9914  -27.2237 N.ar    1  UNL1       -0.1676
      3 N          46.5370   12.9699  -28.1080 N.ar    1  UNL1       -0.2319
      4 C          45.9382   12.8021  -29.4251 C.3     1  UNL1        0.1554
      5 C          46.9717   14.1142  -27.5581 C.ar    1  UNL1        0.1654
      6 N          46.9958   15.3406  -28.1330 N.ar    1  UNL1       -0.2050
      7 C          47.4800   16.3852  -27.3986 C.ar    1  UNL1        0.2014
      8 N          47.8978   16.1931  -26.1076 N.ar    1  UNL1       -0.2089
      9 C          47.8665   14.9603  -25.5177 C.ar    1  UNL1        0.1379
     10 C          47.4139   13.8888  -26.2913 C.ar    1  UNL1        0.0866
     11 C          48.8279   11.0103  -24.7766 C.ar    1  UNL1        0.0840
     12 C          47.6483   11.7144  -24.9467 C.ar    1  UNL1        0.0911
     13 C          46.9820   11.5634  -23.7442 C.ar    1  UNL1        0.2415
     14 O          45.7712   12.1508  -23.3906 O.3     1  UNL1       -0.4910
     15 N          47.6960   10.7842  -22.9118 N.ar    1  UNL1       -0.1316
     16 N          48.8083   10.4433  -23.5464 N.ar    1  UNL1       -0.2459
     17 C          49.8250    9.5800  -22.9544 C.3     1  UNL1        0.1538
     18 H          45.2866   12.7787  -24.0198 H       1  UNL1        0.2938
     19 C          53.0334   10.3627  -28.7087 C.3     1  UNL1        0.0310
     20 C          51.9578   10.5106  -27.6738 C.ar    1  UNL1       -0.0218
     21 C          52.0437   11.5208  -26.7045 C.ar    1  UNL1       -0.0042
     22 C          51.0243   11.6817  -25.7621 C.ar    1  UNL1        0.0012
     23 C          49.8969   10.8452  -25.7861 C.ar    1  UNL1        0.0175
     24 C          49.8069    9.8425  -26.7635 C.ar    1  UNL1        0.0012
     25 C          50.8264    9.6820  -27.7065 C.ar    1  UNL1       -0.0042
     26 N          48.1982   14.8221  -24.1307 N.pl3   1  UNL1       -0.2917
     27 C          47.6817   15.7355  -23.1183 C.3     1  UNL1        0.0937
     28 C          48.6833   15.6931  -21.9690 C.3     1  UNL1        0.0391
     29 C          49.4700   14.3904  -22.1907 C.3     1  UNL1        0.0790
     30 C          49.3971   14.1271  -23.6927 C.3     1  UNL1        0.1081
     31 N          50.8610   14.3588  -21.6620 N.3     1  UNL1       -0.2723
     32 C          51.7489   13.5417  -22.5145 C.3     1  UNL1        0.0721
     33 C          53.2142   13.7717  -22.1210 C.3     1  UNL1        0.0174
     34 C          53.4362   13.4810  -20.6324 C.3     1  UNL1        0.0029
     35 C          52.4275   14.2468  -19.7691 C.3     1  UNL1        0.0174
     36 C          51.0017   13.9556  -20.2437 C.3     1  UNL1        0.0721
@<TRIPOS>BOND
     1    19    20    1
     2    20    21   ar
     3    21    22   ar
     4    22    23   ar
     5    23    11    1
     6    11    12   ar
     7    12     1    1
     8     1     2   ar
     9     2     3   ar
    10     3     4    1
    11     3     5   ar
    12     5     6   ar
    13     6     7   ar
    14     7     8   ar
    15     8     9   ar
    16     9    26    1
    17    26    27    1
    18    27    28    1
    19    28    29    1
    20    29    31    1
    21    31    32    1
    22    32    33    1
    23    33    34    1
    24    34    35    1
    25    35    36    1
    26    29    30    1
    27     9    10   ar
    28    12    13   ar
    29    13    14    1
    30    13    15   ar
    31    15    16   ar
    32    16    17    1
    33    23    24   ar
    34    24    25   ar
    35    25    20   ar
    36    16    11   ar
    37    10     1   ar
    38    10     5   ar
    39    30    26    1
    40    36    31    1
    41    14    18    1
@<TRIPOS>MOLECULE
*****
 36 41 0 0 0
SMALL
GASTEIGER

@<TRIPOS>ATOM
      1 C          50.5591   10.3441  -27.0620 C.ar    1  UNL1        0.1125
      2 N          50.8376    9.1717  -27.6858 N.ar    1  UNL1       -0.1676
      3 N          49.7462    8.7845  -28.3361 N.ar    1  UNL1       -0.2319
      4 C          49.6375    7.5496  -29.1008 C.3     1  UNL1        0.1554
      5 C          48.7784    9.6886  -28.1200 C.ar    1  UNL1        0.1654
      6 N          47.5168    9.6700  -28.6130 N.ar    1  UNL1       -0.2050
      7 C          46.6779   10.6918  -28.2706 C.ar    1  UNL1        0.2014
      8 N          47.1007   11.6857  -27.4271 N.ar    1  UNL1       -0.2089
      9 C          48.3692   11.7052  -26.9178 C.ar    1  UNL1        0.1379
     10 C          49.2354   10.6819  -27.3102 C.ar    1  UNL1        0.0866
     11 C          51.6988   11.2228  -24.9456 C.ar    1  UNL1        0.0840
     12 C          51.5635   11.1155  -26.3190 C.ar    1  UNL1        0.0911
     13 C          52.6429   11.8161  -26.8261 C.ar    1  UNL1        0.2415
     14 O          52.9918   11.9398  -28.1674 O.3     1  UNL1       -0.4910
     15 N          53.3650   12.3471  -25.8229 N.ar    1  UNL1       -0.1316
     16 N          52.7824   11.9934  -24.6864 N.ar    1  UNL1       -0.2459
     17 C          53.2817   12.4058  -23.3787 C.3     1  UNL1        0.1538
     18 H          52.4590   11.4797  -28.8949 H       1  UNL1        0.2938
     19 C          48.1282    8.9758  -20.9747 C.3     1  UNL1        0.0310
     20 C          49.0750    9.5534  -21.9846 C.ar    1  UNL1       -0.0218
     21 C          49.6280    8.7375  -22.9825 C.ar    1  UNL1       -0.0042
     22 C          50.4821    9.2825  -23.9452 C.ar    1  UNL1        0.0012
     23 C          50.7821   10.6541  -23.9332 C.ar    1  UNL1        0.0175
     24 C          50.2189   11.4712  -22.9412 C.ar    1  UNL1        0.0012
     25 C          49.3641   10.9260  -21.9786 C.ar    1  UNL1       -0.0042
     26 N          48.7353   12.6931  -25.9467 N.pl3   1  UNL1       -0.2917
     27 C          47.9838   12.8769  -24.7108 C.3     1  UNL1        0.0937
     28 C          48.2330   14.3192  -24.2822 C.3     1  UNL1        0.0391
     29 C          49.5015   14.7349  -25.0459 C.3     1  UNL1        0.0790
     30 C          49.5193   13.8647  -26.3001 C.3     1  UNL1        0.1081
     31 N          49.6499   16.1858  -25.3430 N.3     1  UNL1       -0.2723
     32 C          48.3392   16.8366  -25.5462 C.3     1  UNL1        0.0721
     33 C          48.5041   18.3623  -25.5495 C.3     1  UNL1        0.0174
     34 C          49.5235   18.8033  -26.6059 C.3     1  UNL1        0.0029
     35 C          50.8385   18.0309  -26.4531 C.3     1  UNL1        0.0174
     36 C          50.5666   16.5246  -26.4560 C.3     1  UNL1        0.0721
@<TRIPOS>BOND
     1    19    20    1
     2    20    21   ar
     3    21    22   ar
     4    22    23   ar
     5    23    11    1
     6    11    12   ar
     7    12     1    1
     8     1     2   ar
     9     2     3   ar
    10     3     4    1
    11     3     5   ar
    12     5     6   ar
    13     6     7   ar
    14     7     8   ar
    15     8     9   ar
    16     9    26    1
    17    26    27    1
    18    27    28    1
    19    28    29    1
    20    29    31    1
    21    31    32    1
    22    32    33    1
    23    33    34    1
    24    34    35    1
    25    35    36    1
    26    29    30    1
    27     9    10   ar
    28    12    13   ar
    29    13    14    1
    30    13    15   ar
    31    15    16   ar
    32    16    17    1
    33    23    24   ar
    34    24    25   ar
    35    25    20   ar
    36    16    11   ar
    37    10     1   ar
    38    10     5   ar
    39    30    26    1
    40    36    31    1
    41    14    18    1
@<TRIPOS>MOLECULE
*****
 36 41 0 0 0
SMALL
GASTEIGER

@<TRIPOS>ATOM
      1 C          48.8904   13.3646  -25.2467 C.ar    1  UNL1        0.1125
      2 N          48.6071   14.0049  -26.4090 N.ar    1  UNL1       -0.1676
      3 N          47.2882   14.0064  -26.5649 N.ar    1  UNL1       -0.2319
      4 C          46.5952   14.5721  -27.7143 C.3     1  UNL1        0.1554
      5 C          46.7357   13.3636  -25.5245 C.ar    1  UNL1        0.1654
      6 N          45.4163   13.1557  -25.2986 N.ar    1  UNL1       -0.2050
      7 C          45.0570   12.4724  -24.1721 C.ar    1  UNL1        0.2014
      8 N          46.0131   11.9884  -23.3178 N.ar    1  UNL1       -0.2089
      9 C          47.3466   12.1855  -23.5451 C.ar    1  UNL1        0.1379
     10 C          47.7037   12.9258  -24.6746 C.ar    1  UNL1        0.0866
     11 C          51.2572   12.3991  -25.1209 C.ar    1  UNL1        0.0840
     12 C          50.2500   13.2521  -24.7038 C.ar    1  UNL1        0.0911
     13 C          50.8446   14.0362  -23.7320 C.ar    1  UNL1        0.2415
     14 O          50.2577   15.1011  -23.0555 O.3     1  UNL1       -0.4910
     15 N          52.1215   13.6557  -23.5449 N.ar    1  UNL1       -0.1316
     16 N          52.3627   12.6566  -24.3814 N.ar    1  UNL1       -0.2459
     17 C          53.6504   11.9736  -24.4486 C.3     1  UNL1        0.1538
     18 H          49.3121   15.3986  -23.2608 H       1  UNL1        0.2938
     19 C          50.7972    8.2477  -29.1360 C.3     1  UNL1        0.0310
     20 C          50.9303    9.3037  -28.0791 C.ar    1  UNL1       -0.0218
     21 C          52.0044   10.2051  -28.1120 C.ar    1  UNL1       -0.0042
     22 C          52.1095   11.2117  -27.1482 C.ar    1  UNL1        0.0012
     23 C          51.1329   11.3412  -26.1476 C.ar    1  UNL1        0.0175
     24 C          50.0528   10.4458  -26.1228 C.ar    1  UNL1        0.0012
     25 C          49.9476    9.4393  -27.0873 C.ar    1  UNL1       -0.0042
     26 N          48.3172   11.5625  -22.6948 N.pl3   1  UNL1       -0.2917
     27 C          48.4821   10.1147  -22.6424 C.3     1  UNL1        0.0937
     28 C          49.0781    9.8127  -21.2714 C.3     1  UNL1        0.0391
     29 C          49.6657   11.1542  -20.8021 C.3     1  UNL1        0.0790
     30 C          48.8408   12.2250  -21.5120 C.3     1  UNL1        0.1081
     31 N          49.7463   11.3633  -19.3306 N.3     1  UNL1       -0.2723
     32 C          48.4160   11.6275  -18.7448 C.3     1  UNL1        0.0721
     33 C          48.4879   11.5387  -17.2144 C.3     1  UNL1        0.0174
     34 C          49.5501   12.4930  -16.6572 C.3     1  UNL1        0.0029
     35 C          50.8956   12.2851  -17.3612 C.3     1  UNL1        0.0174
     36 C          50.7164   12.3869  -18.8779 C.3     1  UNL1        0.0721
@<TRIPOS>BOND
     1    19    20    1
     2    20    21   ar
     3    21    22   ar
     4    22    23   ar
     5    23    11    1
     6    11    12   ar
     7    12     1    1
     8     1     2   ar
     9     2     3   ar
    10     3     4    1
    11     3     5   ar
    12     5     6   ar
    13     6     7   ar
    14     7     8   ar
    15     8     9   ar
    16     9    26    1
    17    26    27    1
    18    27    28    1
    19    28    29    1
    20    29    31    1
    21    31    32    1
    22    32    33    1
    23    33    34    1
    24    34    35    1
    25    35    36    1
    26    29    30    1
    27     9    10   ar
    28    12    13   ar
    29    13    14    1
    30    13    15   ar
    31    15    16   ar
    32    16    17    1
    33    23    24   ar
    34    24    25   ar
    35    25    20   ar
    36    16    11   ar
    37    10     1   ar
    38    10     5   ar
    39    30    26    1
    40    36    31    1
    41    14    18    1
@<TRIPOS>MOLECULE
*****
 36 41 0 0 0
SMALL
GASTEIGER

@<TRIPOS>ATOM
      1 C          47.4160   11.1056  -27.7680 C.ar    1  UNL1        0.1125
      2 N          47.4259    9.8787  -28.3476 N.ar    1  UNL1       -0.1676
      3 N          46.9148    9.9979  -29.5676 N.ar    1  UNL1       -0.2319
      4 C          46.7249    8.8893  -30.4931 C.3     1  UNL1        0.1554
      5 C          46.5693   11.2800  -29.7611 C.ar    1  UNL1        0.1654
      6 N          46.0237   11.8206  -30.8770 N.ar    1  UNL1       -0.2050
      7 C          45.7425   13.1570  -30.8722 C.ar    1  UNL1        0.2014
      8 N          45.9806   13.9138  -29.7548 N.ar    1  UNL1       -0.2089
      9 C          46.5213   13.3726  -28.6218 C.ar    1  UNL1        0.1379
     10 C          46.8495   12.0151  -28.6511 C.ar    1  UNL1        0.0866
     11 C          49.3222   11.2787  -26.0691 C.ar    1  UNL1        0.0840
     12 C          47.9931   11.3719  -26.4444 C.ar    1  UNL1        0.0911
     13 C          47.3531   11.8651  -25.3218 C.ar    1  UNL1        0.2415
     14 O          46.0073   12.2033  -25.2191 O.3     1  UNL1       -0.4910
     15 N          48.2336   12.0237  -24.3170 N.ar    1  UNL1       -0.1316
     16 N          49.4229   11.6568  -24.7721 N.ar    1  UNL1       -0.2459
     17 C          50.6271   11.6783  -23.9483 C.3     1  UNL1        0.1538
     18 H          45.3826   12.1255  -26.0119 H       1  UNL1        0.2938
     19 C          53.6901    9.3537  -29.3527 C.3     1  UNL1        0.0310
     20 C          52.5703    9.8375  -28.4800 C.ar    1  UNL1       -0.0218
     21 C          52.6638   11.0787  -27.8334 C.ar    1  UNL1       -0.0042
     22 C          51.6058   11.5460  -27.0488 C.ar    1  UNL1        0.0012
     23 C          50.4329   10.7861  -26.9131 C.ar    1  UNL1        0.0175
     24 C          50.3363    9.5499  -27.5699 C.ar    1  UNL1        0.0012
     25 C          51.3944    9.0827  -28.3551 C.ar    1  UNL1       -0.0042
     26 N          46.6436   14.1685  -27.4366 N.pl3   1  UNL1       -0.2917
     27 C          45.5402   14.9772  -26.9322 C.3     1  UNL1        0.0937
     28 C          46.1819   16.0975  -26.1202 C.3     1  UNL1        0.0391
     29 C          47.5990   15.5865  -25.8106 C.3     1  UNL1        0.0790
     30 C          47.9341   14.6191  -26.9431 C.3     1  UNL1        0.1081
     31 N          48.6463   16.6237  -25.6033 N.3     1  UNL1       -0.2723
     32 C          48.7768   17.5081  -26.7796 C.3     1  UNL1        0.0721
     33 C          49.6336   18.7311  -26.4259 C.3     1  UNL1        0.0174
     34 C          51.0030   18.3056  -25.8845 C.3     1  UNL1        0.0029
     35 C          50.8496   17.2959  -24.7416 C.3     1  UNL1        0.0174
     36 C          49.9774   16.1213  -25.1915 C.3     1  UNL1        0.0721
@<TRIPOS>BOND
     1    19    20    1
     2    20    21   ar
     3    21    22   ar
     4    22    23   ar
     5    23    11    1
     6    11    12   ar
     7    12     1    1
     8     1     2   ar
     9     2     3   ar
    10     3     4    1
    11     3     5   ar
    12     5     6   ar
    13     6     7   ar
    14     7     8   ar
    15     8     9   ar
    16     9    26    1
    17    26    27    1
    18    27    28    1
    19    28    29    1
    20    29    31    1
    21    31    32    1
    22    32    33    1
    23    33    34    1
    24    34    35    1
    25    35    36    1
    26    29    30    1
    27     9    10   ar
    28    12    13   ar
    29    13    14    1
    30    13    15   ar
    31    15    16   ar
    32    16    17    1
    33    23    24   ar
    34    24    25   ar
    35    25    20   ar
    36    16    11   ar
    37    10     1   ar
    38    10     5   ar
    39    30    26    1
    40    36    31    1
    41    14    18    1
