@<TRIPOS>MOLECULE
*****
 51 56 0 0 0
SMALL
GASTEIGER

@<TRIPOS>ATOM
      1 N          13.1054   83.3719   23.7879 N.am    1  UNL1       -0.2945
      2 C          13.4569   82.1534   24.4588 C.2     1  UNL1        0.2483
      3 O          14.6702   81.8691   24.6540 O.2     1  UNL1       -0.2701
      4 H          12.1552   83.4498   23.3614 H       1  UNL1        0.1501
      5 C          12.4079   81.2162   24.9069 C.ar    1  UNL1        0.0808
      6 C          11.1709   81.7101   25.3500 C.ar    1  UNL1        0.0080
      7 C          10.1744   80.8335   25.7873 C.ar    1  UNL1        0.0148
      8 C          10.3928   79.4466   25.7756 C.ar    1  UNL1        0.0502
      9 C          11.6220   78.9513   25.3145 C.ar    1  UNL1        0.0443
     10 C          12.6213   79.8257   24.8772 C.ar    1  UNL1        0.1457
     11 F          13.7738   79.3097   24.3798 F       1  UNL1       -0.2040
     12 N           9.3714   78.5383   26.2284 N.pl3   1  UNL1       -0.3040
     13 C           8.5834   78.8424   27.4284 C.3     1  UNL1        0.1123
     14 C           8.3233   77.5607   28.2207 C.3     1  UNL1        0.1136
     15 N           7.8261   76.5049   27.3279 N.pl3   1  UNL1       -0.2897
     16 C           8.6182   76.2018   26.1300 C.3     1  UNL1        0.1136
     17 C           8.8794   77.4822   25.3358 C.3     1  UNL1        0.1123
     18 C           6.8613   75.5471   27.8020 C.ar    1  UNL1        0.1318
     19 C           6.6970   74.3121   27.1581 C.ar    1  UNL1        0.0343
     20 C           5.7616   73.3992   27.6476 C.ar    1  UNL1        0.0083
     21 C           5.0094   73.7032   28.7924 C.ar    1  UNL1        0.0906
     22 C           5.1955   74.9552   29.3994 C.ar    1  UNL1        0.1041
     23 N           6.1103   75.8292   28.9027 N.ar    1  UNL1       -0.2292
     24 C           3.9611   72.7473   29.3022 C.3     1  UNL1        0.4200
     25 F           2.6997   73.1411   28.8901 F       1  UNL1       -0.1658
     26 F           3.9977   72.7262   30.6838 F       1  UNL1       -0.1658
     27 F           4.1929   71.4687   28.8252 F       1  UNL1       -0.1658
     28 C          14.0371   84.4990   23.6916 C.3     1  UNL1        0.1535
     29 C          14.6445   84.5473   22.3151 C.2     1  UNL1        0.2443
     30 O          15.7109   83.9134   22.0859 O.2     1  UNL1       -0.2730
     31 N          14.0173   85.3184   21.2776 N.am    1  UNL1       -0.2825
     32 H          13.3179   86.0419   21.5599 H       1  UNL1        0.1549
     33 C          14.3735   85.2358   19.8872 C.ar    1  UNL1        0.0535
     34 C          13.9794   86.2580   19.0130 C.ar    1  UNL1        0.0353
     35 C          14.3028   86.1712   17.6568 C.ar    1  UNL1        0.1002
     36 N          14.9814   85.0921   17.1853 N.ar    1  UNL1       -0.2422
     37 C          15.3594   84.0754   18.0046 C.ar    1  UNL1        0.1002
     38 C          15.0572   84.1232   19.3678 C.ar    1  UNL1        0.0353
     39 C          13.3329   85.8352   23.9965 C.3     1  UNL1        0.0565
     40 C          15.0168   87.8524   23.9955 C.ar    1  UNL1        0.0296
     41 N          15.7281   88.5470   24.9166 N.ar    1  UNL1       -0.3567
     42 C          15.4355   88.0004   26.1075 C.ar    1  UNL1        0.0561
     43 C          15.9299   88.3835   27.3537 C.ar    1  UNL1        0.0169
     44 C          15.4988   87.6635   28.4823 C.ar    1  UNL1        0.0015
     45 C          14.5979   86.5855   28.3410 C.ar    1  UNL1        0.0001
     46 C          14.1186   86.2193   27.0704 C.ar    1  UNL1        0.0012
     47 C          14.5575   86.9569   25.9689 C.ar    1  UNL1        0.0127
     48 C          14.2750   86.8358   24.6196 C.ar    1  UNL1       -0.0072
     49 H          16.3858   89.3387   24.7395 H       1  UNL1        0.1656
     50 C          16.5372   87.8923   21.9992 C.3     1  UNL1        0.0066
     51 C          15.1206   88.1269   22.5169 C.3     1  UNL1        0.0432
@<TRIPOS>BOND
     1    50    51    1
     2    51    40    1
     3    40    41   ar
     4    41    42   ar
     5    42    43   ar
     6    43    44   ar
     7    44    45   ar
     8    45    46   ar
     9    46    47   ar
    10    47    48   ar
    11    48    39    1
    12    39    28    1
    13    28     1    1
    14     1     2   am
    15     2     3    2
    16     2     5    1
    17     5     6   ar
    18     6     7   ar
    19     7     8   ar
    20     8    12    1
    21    12    13    1
    22    13    14    1
    23    14    15    1
    24    15    18    1
    25    18    19   ar
    26    19    20   ar
    27    20    21   ar
    28    21    24    1
    29    24    25    1
    30    24    26    1
    31    24    27    1
    32    21    22   ar
    33    22    23   ar
    34    15    16    1
    35    16    17    1
    36     8     9   ar
    37     9    10   ar
    38    10    11    1
    39    28    29    1
    40    29    30    2
    41    29    31   am
    42    31    33    1
    43    33    34   ar
    44    34    35   ar
    45    35    36   ar
    46    36    37   ar
    47    37    38   ar
    48    48    40   ar
    49    10     5   ar
    50    38    33   ar
    51    47    42   ar
    52    17    12    1
    53    23    18   ar
    54    41    49    1
    55     1     4    1
    56    31    32    1
@<TRIPOS>MOLECULE
*****
 51 56 0 0 0
SMALL
GASTEIGER

@<TRIPOS>ATOM
      1 N          10.4620   76.6747   25.7786 N.am    1  UNL1       -0.2945
      2 C          10.2251   75.5014   24.9877 C.2     1  UNL1        0.2483
      3 O          11.0841   74.5783   24.9571 O.2     1  UNL1       -0.2701
      4 H           9.9197   77.5404   25.5608 H       1  UNL1        0.1501
      5 C           8.9891   75.3730   24.1905 C.ar    1  UNL1        0.0808
      6 C           9.0405   75.5032   22.7938 C.ar    1  UNL1        0.0080
      7 C           7.8757   75.3951   22.0295 C.ar    1  UNL1        0.0148
      8 C           6.6411   75.1406   22.6480 C.ar    1  UNL1        0.0502
      9 C           6.5922   74.9909   24.0423 C.ar    1  UNL1        0.0443
     10 C           7.7557   75.0994   24.8097 C.ar    1  UNL1        0.1457
     11 F           7.6815   74.8876   26.1482 F       1  UNL1       -0.2040
     12 N           5.4366   75.0317   21.8664 N.pl3   1  UNL1       -0.3040
     13 C           4.4853   76.1473   21.8054 C.3     1  UNL1        0.1123
     14 C           3.0530   75.6120   21.7989 C.3     1  UNL1        0.1136
     15 N           2.9157   74.5434   20.7998 N.pl3   1  UNL1       -0.2897
     16 C           3.8675   73.4280   20.8654 C.3     1  UNL1        0.1136
     17 C           5.3007   73.9609   20.8719 C.3     1  UNL1        0.1123
     18 C           1.6842   74.3837   20.0711 C.ar    1  UNL1        0.1318
     19 C           1.1532   75.4391   19.3154 C.ar    1  UNL1        0.0343
     20 C          -0.0364   75.2508   18.6102 C.ar    1  UNL1        0.0083
     21 C          -0.6833   74.0058   18.6349 C.ar    1  UNL1        0.0906
     22 C          -0.1252   72.9799   19.4137 C.ar    1  UNL1        0.1041
     23 N           1.0328   73.1878   20.0944 N.ar    1  UNL1       -0.2292
     24 C          -1.9941   73.8040   17.9184 C.3     1  UNL1        0.4200
     25 F          -2.9802   74.6032   18.4705 F       1  UNL1       -0.1658
     26 F          -2.3736   72.4794   18.0283 F       1  UNL1       -0.1658
     27 F          -1.8733   74.1289   16.5783 F       1  UNL1       -0.1658
     28 C          11.4337   76.6855   26.8756 C.3     1  UNL1        0.1535
     29 C          12.7086   77.3478   26.4262 C.2     1  UNL1        0.2443
     30 O          13.7351   77.2753   27.1561 O.2     1  UNL1       -0.2730
     31 N          12.7482   78.0638   25.1812 N.am    1  UNL1       -0.2825
     32 H          11.8393   78.3446   24.7485 H       1  UNL1        0.1549
     33 C          13.9591   78.5164   24.5519 C.ar    1  UNL1        0.0535
     34 C          14.6150   77.6801   23.6382 C.ar    1  UNL1        0.0353
     35 C          15.8043   78.1055   23.0417 C.ar    1  UNL1        0.1002
     36 N          16.3312   79.3174   23.3594 N.ar    1  UNL1       -0.2422
     37 C          15.7292   80.1420   24.2568 C.ar    1  UNL1        0.1002
     38 C          14.5375   79.7557   24.8755 C.ar    1  UNL1        0.0353
     39 C          10.8751   77.4173   28.1112 C.3     1  UNL1        0.0565
     40 C           9.0325   79.0342   27.1650 C.ar    1  UNL1        0.0296
     41 N           7.6794   79.1099   27.1837 N.ar    1  UNL1       -0.3567
     42 C           7.2532   78.0458   27.8826 C.ar    1  UNL1        0.0561
     43 C           5.9328   77.6999   28.1675 C.ar    1  UNL1        0.0169
     44 C           5.7063   76.5409   28.9313 C.ar    1  UNL1        0.0015
     45 C           6.7924   75.7654   29.3924 C.ar    1  UNL1        0.0001
     46 C           8.1143   76.1410   29.0924 C.ar    1  UNL1        0.0012
     47 C           8.3087   77.2918   28.3259 C.ar    1  UNL1        0.0127
     48 C           9.4662   77.9074   27.8830 C.ar    1  UNL1       -0.0072
     49 H           7.0836   79.8535   26.7560 H       1  UNL1        0.1656
     50 C           9.8813   79.9762   24.9992 C.3     1  UNL1        0.0066
     51 C           9.8940   80.0906   26.5213 C.3     1  UNL1        0.0432
@<TRIPOS>BOND
     1    50    51    1
     2    51    40    1
     3    40    41   ar
     4    41    42   ar
     5    42    43   ar
     6    43    44   ar
     7    44    45   ar
     8    45    46   ar
     9    46    47   ar
    10    47    48   ar
    11    48    39    1
    12    39    28    1
    13    28     1    1
    14     1     2   am
    15     2     3    2
    16     2     5    1
    17     5     6   ar
    18     6     7   ar
    19     7     8   ar
    20     8    12    1
    21    12    13    1
    22    13    14    1
    23    14    15    1
    24    15    18    1
    25    18    19   ar
    26    19    20   ar
    27    20    21   ar
    28    21    24    1
    29    24    25    1
    30    24    26    1
    31    24    27    1
    32    21    22   ar
    33    22    23   ar
    34    15    16    1
    35    16    17    1
    36     8     9   ar
    37     9    10   ar
    38    10    11    1
    39    28    29    1
    40    29    30    2
    41    29    31   am
    42    31    33    1
    43    33    34   ar
    44    34    35   ar
    45    35    36   ar
    46    36    37   ar
    47    37    38   ar
    48    48    40   ar
    49    10     5   ar
    50    38    33   ar
    51    47    42   ar
    52    17    12    1
    53    23    18   ar
    54    41    49    1
    55     1     4    1
    56    31    32    1
@<TRIPOS>MOLECULE
*****
 51 56 0 0 0
SMALL
GASTEIGER

@<TRIPOS>ATOM
      1 N          10.2082   77.0530   26.0043 N.am    1  UNL1       -0.2945
      2 C          10.0440   75.8894   25.1813 C.2     1  UNL1        0.2483
      3 O          10.9501   75.0128   25.1417 O.2     1  UNL1       -0.2701
      4 H           9.6250   77.8948   25.7992 H       1  UNL1        0.1501
      5 C           8.8280   75.7176   24.3618 C.ar    1  UNL1        0.0808
      6 C           8.8842   75.9236   22.9744 C.ar    1  UNL1        0.0080
      7 C           7.7375   75.7752   22.1898 C.ar    1  UNL1        0.0148
      8 C           6.5175   75.4042   22.7776 C.ar    1  UNL1        0.0502
      9 C           6.4652   75.1792   24.1616 C.ar    1  UNL1        0.0443
     10 C           7.6105   75.3277   24.9493 C.ar    1  UNL1        0.1457
     11 F           7.5378   75.0419   26.2741 F       1  UNL1       -0.2040
     12 N           5.3314   75.2533   21.9751 N.pl3   1  UNL1       -0.3040
     13 C           4.3258   76.3209   21.9247 C.3     1  UNL1        0.1123
     14 C           2.9226   75.7145   21.8838 C.3     1  UNL1        0.1136
     15 N           2.8539   74.6641   20.8588 N.pl3   1  UNL1       -0.2897
     16 C           3.8599   73.5967   20.9138 C.3     1  UNL1        0.1136
     17 C           5.2641   74.2006   20.9546 C.3     1  UNL1        0.1123
     18 C           1.6427   74.4599   20.1076 C.ar    1  UNL1        0.1318
     19 C           1.0775   75.5007   19.3566 C.ar    1  UNL1        0.0343
     20 C          -0.0910   75.2694   18.6293 C.ar    1  UNL1        0.0083
     21 C          -0.6821   73.9968   18.6274 C.ar    1  UNL1        0.0906
     22 C          -0.0916   72.9862   19.4022 C.ar    1  UNL1        0.1041
     23 N           1.0449   73.2360   20.1047 N.ar    1  UNL1       -0.2292
     24 C          -1.9709   73.7468   17.8865 C.3     1  UNL1        0.4200
     25 F          -1.8295   74.0533   16.5441 F       1  UNL1       -0.1658
     26 F          -2.9674   74.5379   18.4268 F       1  UNL1       -0.1658
     27 F          -2.3440   72.4178   17.9902 F       1  UNL1       -0.1658
     28 C          11.1621   77.0862   27.1164 C.3     1  UNL1        0.1535
     29 C          12.5209   77.4972   26.6157 C.2     1  UNL1        0.2443
     30 O          13.5485   77.1601   27.2653 O.2     1  UNL1       -0.2730
     31 N          12.6407   78.2753   25.4138 N.am    1  UNL1       -0.2825
     32 H          11.7892   78.7699   25.0637 H       1  UNL1        0.1549
     33 C          13.8820   78.5079   24.7267 C.ar    1  UNL1        0.0535
     34 C          14.3878   77.5243   23.8659 C.ar    1  UNL1        0.0353
     35 C          15.6051   77.7355   23.2138 C.ar    1  UNL1        0.1002
     36 N          16.3031   78.8820   23.4272 N.ar    1  UNL1       -0.2422
     37 C          15.8485   79.8453   24.2717 C.ar    1  UNL1        0.1002
     38 C          14.6349   79.6747   24.9428 C.ar    1  UNL1        0.0353
     39 C          10.7000   78.0554   28.2216 C.3     1  UNL1        0.0565
     40 C           8.3558   78.3249   29.3777 C.ar    1  UNL1        0.0296
     41 N           7.4138   77.5059   29.9057 N.ar    1  UNL1       -0.3567
     42 C           7.8764   76.2546   29.7546 C.ar    1  UNL1        0.0561
     43 C           7.2497   75.0724   30.1469 C.ar    1  UNL1        0.0169
     44 C           7.9194   73.8601   29.9023 C.ar    1  UNL1        0.0015
     45 C           9.1883   73.8570   29.2831 C.ar    1  UNL1        0.0001
     46 C           9.7979   75.0657   28.9014 C.ar    1  UNL1        0.0012
     47 C           9.1065   76.2532   29.1495 C.ar    1  UNL1        0.0127
     48 C           9.4418   77.5725   28.9003 C.ar    1  UNL1       -0.0072
     49 H           6.5144   77.7872   30.3559 H       1  UNL1        0.1656
     50 C           8.8706   80.4174   30.6641 C.3     1  UNL1        0.0066
     51 C           8.2327   79.8270   29.4093 C.3     1  UNL1        0.0432
@<TRIPOS>BOND
     1    50    51    1
     2    51    40    1
     3    40    41   ar
     4    41    42   ar
     5    42    43   ar
     6    43    44   ar
     7    44    45   ar
     8    45    46   ar
     9    46    47   ar
    10    47    48   ar
    11    48    39    1
    12    39    28    1
    13    28     1    1
    14     1     2   am
    15     2     3    2
    16     2     5    1
    17     5     6   ar
    18     6     7   ar
    19     7     8   ar
    20     8    12    1
    21    12    13    1
    22    13    14    1
    23    14    15    1
    24    15    18    1
    25    18    19   ar
    26    19    20   ar
    27    20    21   ar
    28    21    24    1
    29    24    25    1
    30    24    26    1
    31    24    27    1
    32    21    22   ar
    33    22    23   ar
    34    15    16    1
    35    16    17    1
    36     8     9   ar
    37     9    10   ar
    38    10    11    1
    39    28    29    1
    40    29    30    2
    41    29    31   am
    42    31    33    1
    43    33    34   ar
    44    34    35   ar
    45    35    36   ar
    46    36    37   ar
    47    37    38   ar
    48    48    40   ar
    49    10     5   ar
    50    38    33   ar
    51    47    42   ar
    52    17    12    1
    53    23    18   ar
    54    41    49    1
    55     1     4    1
    56    31    32    1
@<TRIPOS>MOLECULE
*****
 51 56 0 0 0
SMALL
GASTEIGER

@<TRIPOS>ATOM
      1 N           8.4151   75.7207   25.4323 N.am    1  UNL1       -0.2945
      2 C           9.7859   75.8906   25.8200 C.2     1  UNL1        0.2483
      3 O          10.4007   74.9484   26.3904 O.2     1  UNL1       -0.2701
      4 H           7.8375   76.5731   25.2567 H       1  UNL1        0.1501
      5 C          10.4803   77.1701   25.5742 C.ar    1  UNL1        0.0808
      6 C          10.0932   78.3225   26.2759 C.ar    1  UNL1        0.0080
      7 C          10.7352   79.5417   26.0437 C.ar    1  UNL1        0.0148
      8 C          11.7854   79.6263   25.1155 C.ar    1  UNL1        0.0502
      9 C          12.1858   78.4704   24.4280 C.ar    1  UNL1        0.0443
     10 C          11.5448   77.2494   24.6576 C.ar    1  UNL1        0.1457
     11 F          11.9986   76.1398   24.0213 F       1  UNL1       -0.2040
     12 N          12.4486   80.8804   24.8689 N.pl3   1  UNL1       -0.3040
     13 C          13.8885   81.0220   25.1140 C.3     1  UNL1        0.1123
     14 C          14.1855   82.4052   25.6943 C.3     1  UNL1        0.1136
     15 N          13.5249   83.4440   24.8923 N.pl3   1  UNL1       -0.2897
     16 C          12.0843   83.3003   24.6512 C.3     1  UNL1        0.1136
     17 C          11.7848   81.9177   24.0706 C.3     1  UNL1        0.1123
     18 C          14.1509   84.7274   24.7078 C.ar    1  UNL1        0.1318
     19 C          14.6038   85.1322   23.4437 C.ar    1  UNL1        0.0343
     20 C          15.1963   86.3870   23.2937 C.ar    1  UNL1        0.0083
     21 C          15.3141   87.2492   24.3944 C.ar    1  UNL1        0.0906
     22 C          14.8595   86.8005   25.6444 C.ar    1  UNL1        0.1041
     23 N          14.2885   85.5731   25.7666 N.ar    1  UNL1       -0.2292
     24 C          15.9964   88.5863   24.2565 C.3     1  UNL1        0.4200
     25 F          15.3986   89.3389   23.2604 F       1  UNL1       -0.1658
     26 F          17.3260   88.3877   23.9347 F       1  UNL1       -0.1658
     27 F          15.9204   89.2979   25.4414 F       1  UNL1       -0.1658
     28 C           7.8140   74.3934   25.2749 C.3     1  UNL1        0.1535
     29 C           6.5714   74.2889   26.1180 C.2     1  UNL1        0.2443
     30 O           5.4403   74.4085   25.5721 O.2     1  UNL1       -0.2730
     31 N           6.6779   74.0654   27.5334 N.am    1  UNL1       -0.2825
     32 H           7.5989   74.2518   27.9907 H       1  UNL1        0.1549
     33 C           5.5692   73.7110   28.3772 C.ar    1  UNL1        0.0535
     34 C           4.9441   72.4680   28.2079 C.ar    1  UNL1        0.0353
     35 C           3.8517   72.1282   29.0095 C.ar    1  UNL1        0.1002
     36 N           3.3872   73.0064   29.9370 N.ar    1  UNL1       -0.2422
     37 C           3.9594   74.2271   30.1107 C.ar    1  UNL1        0.1002
     38 C           5.0549   74.6061   29.3308 C.ar    1  UNL1        0.0353
     39 C           7.4680   74.1067   23.8010 C.3     1  UNL1        0.0565
     40 C           8.8222   75.6059   22.1208 C.ar    1  UNL1        0.0296
     41 N           9.9909   75.5200   21.4399 N.ar    1  UNL1       -0.3567
     42 C          10.5312   74.3357   21.7688 C.ar    1  UNL1        0.0561
     43 C          11.7383   73.8059   21.3143 C.ar    1  UNL1        0.0169
     44 C          12.1150   72.5332   21.7795 C.ar    1  UNL1        0.0015
     45 C          11.2836   71.8244   22.6739 C.ar    1  UNL1        0.0001
     46 C          10.0694   72.3826   23.1126 C.ar    1  UNL1        0.0012
     47 C           9.7249   73.6507   22.6405 C.ar    1  UNL1        0.0127
     48 C           8.6155   74.4425   22.8804 C.ar    1  UNL1       -0.0072
     49 H          10.3883   76.2234   20.7780 H       1  UNL1        0.1656
     50 C           8.5435   78.0858   22.3870 C.3     1  UNL1        0.0066
     51 C           7.8819   76.7746   21.9712 C.3     1  UNL1        0.0432
@<TRIPOS>BOND
     1    50    51    1
     2    51    40    1
     3    40    41   ar
     4    41    42   ar
     5    42    43   ar
     6    43    44   ar
     7    44    45   ar
     8    45    46   ar
     9    46    47   ar
    10    47    48   ar
    11    48    39    1
    12    39    28    1
    13    28     1    1
    14     1     2   am
    15     2     3    2
    16     2     5    1
    17     5     6   ar
    18     6     7   ar
    19     7     8   ar
    20     8    12    1
    21    12    13    1
    22    13    14    1
    23    14    15    1
    24    15    18    1
    25    18    19   ar
    26    19    20   ar
    27    20    21   ar
    28    21    24    1
    29    24    25    1
    30    24    26    1
    31    24    27    1
    32    21    22   ar
    33    22    23   ar
    34    15    16    1
    35    16    17    1
    36     8     9   ar
    37     9    10   ar
    38    10    11    1
    39    28    29    1
    40    29    30    2
    41    29    31   am
    42    31    33    1
    43    33    34   ar
    44    34    35   ar
    45    35    36   ar
    46    36    37   ar
    47    37    38   ar
    48    48    40   ar
    49    10     5   ar
    50    38    33   ar
    51    47    42   ar
    52    17    12    1
    53    23    18   ar
    54    41    49    1
    55     1     4    1
    56    31    32    1
@<TRIPOS>MOLECULE
*****
 51 56 0 0 0
SMALL
GASTEIGER

@<TRIPOS>ATOM
      1 N          10.2401   76.7323   25.9133 N.am    1  UNL1       -0.2945
      2 C          10.1021   75.6356   24.9987 C.2     1  UNL1        0.2483
      3 O          11.0432   74.8069   24.8623 O.2     1  UNL1       -0.2701
      4 H           9.6160   77.5614   25.7951 H       1  UNL1        0.1501
      5 C           8.8716   75.4788   24.1982 C.ar    1  UNL1        0.0808
      6 C           8.9125   75.6668   22.8078 C.ar    1  UNL1        0.0080
      7 C           7.7522   75.5324   22.0409 C.ar    1  UNL1        0.0148
      8 C           6.5333   75.1935   22.6498 C.ar    1  UNL1        0.0502
      9 C           6.4958   74.9862   24.0371 C.ar    1  UNL1        0.0443
     10 C           7.6547   75.1208   24.8072 C.ar    1  UNL1        0.1457
     11 F           7.5948   74.8525   26.1362 F       1  UNL1       -0.2040
     12 N           5.3333   75.0570   21.8657 N.pl3   1  UNL1       -0.3040
     13 C           4.3746   76.1641   21.7731 C.3     1  UNL1        0.1123
     14 C           2.9460   75.6187   21.7731 C.3     1  UNL1        0.1136
     15 N           2.8209   74.5251   20.7998 N.pl3   1  UNL1       -0.2897
     16 C           3.7801   73.4184   20.8969 C.3     1  UNL1        0.1136
     17 C           5.2095   73.9614   20.8970 C.3     1  UNL1        0.1123
     18 C           1.5940   74.3390   20.0696 C.ar    1  UNL1        0.1318
     19 C           0.9274   73.1053   20.0851 C.ar    1  UNL1        0.0343
     20 C          -0.2662   72.9585   19.3767 C.ar    1  UNL1        0.0083
     21 C          -0.8103   74.0453   18.6756 C.ar    1  UNL1        0.0906
     22 C          -0.1050   75.2590   18.6754 C.ar    1  UNL1        0.1041
     23 N           1.0572   75.3772   19.3702 N.ar    1  UNL1       -0.2292
     24 C          -2.0721   73.8865   17.8662 C.3     1  UNL1        0.4200
     25 F          -2.5607   72.5957   17.9721 F       1  UNL1       -0.1658
     26 F          -1.7984   74.1572   16.5386 F       1  UNL1       -0.1658
     27 F          -3.0510   74.7579   18.3118 F       1  UNL1       -0.1658
     28 C          11.2232   76.7149   27.0001 C.3     1  UNL1        0.1535
     29 C          12.5043   77.3606   26.5444 C.2     1  UNL1        0.2443
     30 O          13.5426   77.2439   27.2515 O.2     1  UNL1       -0.2730
     31 N          12.5368   78.1110   25.3196 N.am    1  UNL1       -0.2825
     32 H          11.6265   78.4248   24.9131 H       1  UNL1        0.1549
     33 C          13.7457   78.5538   24.6796 C.ar    1  UNL1        0.0535
     34 C          14.4363   77.6783   23.8304 C.ar    1  UNL1        0.0353
     35 C          15.6238   78.0955   23.2244 C.ar    1  UNL1        0.1002
     36 N          16.1152   79.3384   23.4712 N.ar    1  UNL1       -0.2422
     37 C          15.4791   80.2025   24.3056 C.ar    1  UNL1        0.1002
     38 C          14.2879   79.8257   24.9311 C.ar    1  UNL1        0.0353
     39 C          10.6897   77.4425   28.2493 C.3     1  UNL1        0.0565
     40 C           8.9171   75.6792   29.0574 C.ar    1  UNL1        0.0296
     41 N           7.5888   75.6645   29.3265 N.ar    1  UNL1       -0.3567
     42 C           7.1455   76.9112   29.0988 C.ar    1  UNL1        0.0561
     43 C           5.8399   77.3795   29.2415 C.ar    1  UNL1        0.0169
     44 C           5.5880   78.7292   28.9369 C.ar    1  UNL1        0.0015
     45 C           6.6335   79.5695   28.4963 C.ar    1  UNL1        0.0001
     46 C           7.9404   79.0683   28.3582 C.ar    1  UNL1        0.0012
     47 C           8.1627   77.7268   28.6752 C.ar    1  UNL1        0.0127
     48 C           9.3132   76.9589   28.6344 C.ar    1  UNL1       -0.0072
     49 H           7.0167   74.8465   29.6337 H       1  UNL1        0.1656
     50 C           9.3704   73.5530   30.3112 C.3     1  UNL1        0.0066
     51 C           9.7732   74.4410   29.1368 C.3     1  UNL1        0.0432
@<TRIPOS>BOND
     1    50    51    1
     2    51    40    1
     3    40    41   ar
     4    41    42   ar
     5    42    43   ar
     6    43    44   ar
     7    44    45   ar
     8    45    46   ar
     9    46    47   ar
    10    47    48   ar
    11    48    39    1
    12    39    28    1
    13    28     1    1
    14     1     2   am
    15     2     3    2
    16     2     5    1
    17     5     6   ar
    18     6     7   ar
    19     7     8   ar
    20     8    12    1
    21    12    13    1
    22    13    14    1
    23    14    15    1
    24    15    18    1
    25    18    19   ar
    26    19    20   ar
    27    20    21   ar
    28    21    24    1
    29    24    25    1
    30    24    26    1
    31    24    27    1
    32    21    22   ar
    33    22    23   ar
    34    15    16    1
    35    16    17    1
    36     8     9   ar
    37     9    10   ar
    38    10    11    1
    39    28    29    1
    40    29    30    2
    41    29    31   am
    42    31    33    1
    43    33    34   ar
    44    34    35   ar
    45    35    36   ar
    46    36    37   ar
    47    37    38   ar
    48    48    40   ar
    49    10     5   ar
    50    38    33   ar
    51    47    42   ar
    52    17    12    1
    53    23    18   ar
    54    41    49    1
    55     1     4    1
    56    31    32    1
@<TRIPOS>MOLECULE
*****
 51 56 0 0 0
SMALL
GASTEIGER

@<TRIPOS>ATOM
      1 N           8.4035   75.5688   25.4981 N.am    1  UNL1       -0.2945
      2 C           9.8037   75.7194   25.7724 C.2     1  UNL1        0.2483
      3 O          10.4620   74.7501   26.2395 O.2     1  UNL1       -0.2701
      4 H           7.8164   76.4287   25.4161 H       1  UNL1        0.1501
      5 C          10.4793   77.0096   25.5305 C.ar    1  UNL1        0.0808
      6 C          10.0882   78.1500   26.2496 C.ar    1  UNL1        0.0080
      7 C          10.7124   79.3792   26.0213 C.ar    1  UNL1        0.0148
      8 C          11.7485   79.4860   25.0797 C.ar    1  UNL1        0.0502
      9 C          12.1529   78.3423   24.3746 C.ar    1  UNL1        0.0443
     10 C          11.5299   77.1113   24.6001 C.ar    1  UNL1        0.1457
     11 F          11.9880   76.0139   23.9460 F       1  UNL1       -0.2040
     12 N          12.3931   80.7506   24.8371 N.pl3   1  UNL1       -0.3040
     13 C          13.8420   80.8947   25.0196 C.3     1  UNL1        0.1123
     14 C          14.1584   82.2636   25.6231 C.3     1  UNL1        0.1136
     15 N          13.4562   83.3194   24.8809 N.pl3   1  UNL1       -0.2897
     16 C          12.0067   83.1731   24.7024 C.3     1  UNL1        0.1136
     17 C          11.6879   81.8048   24.0987 C.3     1  UNL1        0.1123
     18 C          14.0664   84.6113   24.7029 C.ar    1  UNL1        0.1318
     19 C          14.5871   84.9961   23.4588 C.ar    1  UNL1        0.0343
     20 C          15.1624   86.2594   23.3139 C.ar    1  UNL1        0.0083
     21 C          15.1958   87.1494   24.3980 C.ar    1  UNL1        0.0906
     22 C          14.6751   86.7205   25.6291 C.ar    1  UNL1        0.1041
     23 N          14.1225   85.4843   25.7469 N.ar    1  UNL1       -0.2292
     24 C          15.8584   88.4973   24.2686 C.3     1  UNL1        0.4200
     25 F          15.4048   89.1577   23.1399 F       1  UNL1       -0.1658
     26 F          17.2263   88.3244   24.1703 F       1  UNL1       -0.1658
     27 F          15.5814   89.2857   25.3721 F       1  UNL1       -0.1658
     28 C           7.7854   74.2508   25.3284 C.3     1  UNL1        0.1535
     29 C           6.5239   74.1659   26.1452 C.2     1  UNL1        0.2443
     30 O           5.4053   74.1954   25.5625 O.2     1  UNL1       -0.2730
     31 N           6.5980   74.0629   27.5764 N.am    1  UNL1       -0.2825
     32 H           7.4979   74.3226   28.0402 H       1  UNL1        0.1549
     33 C           5.4797   73.7345   28.4180 C.ar    1  UNL1        0.0535
     34 C           5.0921   74.6257   29.4279 C.ar    1  UNL1        0.0353
     35 C           4.0208   74.3008   30.2635 C.ar    1  UNL1        0.1002
     36 N           3.3691   73.1183   30.1081 N.ar    1  UNL1       -0.2422
     37 C           3.7345   72.2246   29.1512 C.ar    1  UNL1        0.1002
     38 C           4.7996   72.5109   28.2935 C.ar    1  UNL1        0.0353
     39 C           7.4661   73.9688   23.8475 C.3     1  UNL1        0.0565
     40 C           9.5933   73.8979   22.3066 C.ar    1  UNL1        0.0296
     41 N          10.2897   74.7736   21.5417 N.ar    1  UNL1       -0.3567
     42 C           9.6609   75.9544   21.6554 C.ar    1  UNL1        0.0561
     43 C          10.0131   77.1577   21.0452 C.ar    1  UNL1        0.0169
     44 C           9.2182   78.2873   21.3104 C.ar    1  UNL1        0.0015
     45 C           8.1052   78.1911   22.1738 C.ar    1  UNL1        0.0001
     46 C           7.7761   76.9645   22.7782 C.ar    1  UNL1        0.0012
     47 C           8.5782   75.8583   22.4906 C.ar    1  UNL1        0.0127
     48 C           8.5138   74.5470   22.9283 C.ar    1  UNL1       -0.0072
     49 H          11.1525   74.5784   20.9864 H       1  UNL1        0.1656
     50 C          11.4974   72.3621   22.8674 C.3     1  UNL1        0.0066
     51 C          10.0218   72.4643   22.4903 C.3     1  UNL1        0.0432
@<TRIPOS>BOND
     1    50    51    1
     2    51    40    1
     3    40    41   ar
     4    41    42   ar
     5    42    43   ar
     6    43    44   ar
     7    44    45   ar
     8    45    46   ar
     9    46    47   ar
    10    47    48   ar
    11    48    39    1
    12    39    28    1
    13    28     1    1
    14     1     2   am
    15     2     3    2
    16     2     5    1
    17     5     6   ar
    18     6     7   ar
    19     7     8   ar
    20     8    12    1
    21    12    13    1
    22    13    14    1
    23    14    15    1
    24    15    18    1
    25    18    19   ar
    26    19    20   ar
    27    20    21   ar
    28    21    24    1
    29    24    25    1
    30    24    26    1
    31    24    27    1
    32    21    22   ar
    33    22    23   ar
    34    15    16    1
    35    16    17    1
    36     8     9   ar
    37     9    10   ar
    38    10    11    1
    39    28    29    1
    40    29    30    2
    41    29    31   am
    42    31    33    1
    43    33    34   ar
    44    34    35   ar
    45    35    36   ar
    46    36    37   ar
    47    37    38   ar
    48    48    40   ar
    49    10     5   ar
    50    38    33   ar
    51    47    42   ar
    52    17    12    1
    53    23    18   ar
    54    41    49    1
    55     1     4    1
    56    31    32    1
@<TRIPOS>MOLECULE
*****
 51 56 0 0 0
SMALL
GASTEIGER

@<TRIPOS>ATOM
      1 N           9.7607   79.1256   25.0320 N.am    1  UNL1       -0.2945
      2 C           9.7748   78.8864   23.6175 C.2     1  UNL1        0.2483
      3 O          10.7947   79.1850   22.9381 O.2     1  UNL1       -0.2701
      4 H           8.8387   79.1725   25.5204 H       1  UNL1        0.1501
      5 C           8.5941   78.3101   22.9440 C.ar    1  UNL1        0.0808
      6 C           8.1970   78.7974   21.6889 C.ar    1  UNL1        0.0080
      7 C           7.0746   78.2677   21.0468 C.ar    1  UNL1        0.0148
      8 C           6.3380   77.2314   21.6427 C.ar    1  UNL1        0.0502
      9 C           6.7460   76.7307   22.8883 C.ar    1  UNL1        0.0443
     10 C           7.8679   77.2590   23.5336 C.ar    1  UNL1        0.1457
     11 F           8.2700   76.7090   24.7074 F       1  UNL1       -0.2040
     12 N           5.1783   76.6839   20.9879 N.pl3   1  UNL1       -0.3040
     13 C           4.1304   77.5691   20.4665 C.3     1  UNL1        0.1123
     14 C           2.7552   76.9411   20.6957 C.3     1  UNL1        0.1136
     15 N           2.7543   75.5432   20.2433 N.pl3   1  UNL1       -0.2897
     16 C           3.8025   74.6602   20.7687 C.3     1  UNL1        0.1136
     17 C           5.1789   75.2861   20.5405 C.3     1  UNL1        0.1123
     18 C           1.5706   74.9695   19.6580 C.ar    1  UNL1        0.1318
     19 C           1.3043   73.5973   19.7713 C.ar    1  UNL1        0.0343
     20 C           0.1427   73.0719   19.2033 C.ar    1  UNL1        0.0083
     21 C          -0.7666   73.9148   18.5465 C.ar    1  UNL1        0.0906
     22 C          -0.4562   75.2801   18.4445 C.ar    1  UNL1        0.1041
     23 N           0.6827   75.7682   19.0031 N.ar    1  UNL1       -0.2292
     24 C          -1.9997   73.3530   17.8860 C.3     1  UNL1        0.4200
     25 F          -1.9795   73.6001   16.5242 F       1  UNL1       -0.1658
     26 F          -3.1208   73.9467   18.4351 F       1  UNL1       -0.1658
     27 F          -2.0751   71.9840   18.0766 F       1  UNL1       -0.1658
     28 C          10.9968   79.3000   25.7998 C.3     1  UNL1        0.1535
     29 C          10.6971   79.9817   27.1080 C.2     1  UNL1        0.2443
     30 O          10.7152   81.2418   27.1684 O.2     1  UNL1       -0.2730
     31 N          10.4039   79.1998   28.2772 N.am    1  UNL1       -0.2825
     32 H          10.6697   78.1891   28.2697 H       1  UNL1        0.1549
     33 C           9.8721   79.7450   29.4966 C.ar    1  UNL1        0.0535
     34 C           9.0784   78.9383   30.3235 C.ar    1  UNL1        0.0353
     35 C           8.5400   79.4700   31.4977 C.ar    1  UNL1        0.1002
     36 N           8.7712   80.7682   31.8272 N.ar    1  UNL1       -0.2422
     37 C           9.5200   81.5809   31.0355 C.ar    1  UNL1        0.1002
     38 C          10.0781   81.0887   29.8530 C.ar    1  UNL1        0.0353
     39 C          11.6872   77.9481   26.0640 C.3     1  UNL1        0.0565
     40 C          12.5058   76.5855   23.9717 C.ar    1  UNL1        0.0296
     41 N          13.5813   76.5914   23.1469 N.ar    1  UNL1       -0.3567
     42 C          14.3811   77.5793   23.5796 C.ar    1  UNL1        0.0561
     43 C          15.6080   77.9656   23.0413 C.ar    1  UNL1        0.0169
     44 C          16.2932   79.0265   23.6601 C.ar    1  UNL1        0.0015
     45 C          15.7455   79.6666   24.7932 C.ar    1  UNL1        0.0001
     46 C          14.5073   79.2528   25.3165 C.ar    1  UNL1        0.0012
     47 C          13.8459   78.2023   24.6771 C.ar    1  UNL1        0.0127
     48 C          12.6415   77.5799   24.9546 C.ar    1  UNL1       -0.0072
     49 H          13.7641   75.9484   22.3445 H       1  UNL1        0.1656
     50 C          11.0152   75.3283   22.3919 C.3     1  UNL1        0.0066
     51 C          11.3972   75.5713   23.8496 C.3     1  UNL1        0.0432
@<TRIPOS>BOND
     1    50    51    1
     2    51    40    1
     3    40    41   ar
     4    41    42   ar
     5    42    43   ar
     6    43    44   ar
     7    44    45   ar
     8    45    46   ar
     9    46    47   ar
    10    47    48   ar
    11    48    39    1
    12    39    28    1
    13    28     1    1
    14     1     2   am
    15     2     3    2
    16     2     5    1
    17     5     6   ar
    18     6     7   ar
    19     7     8   ar
    20     8    12    1
    21    12    13    1
    22    13    14    1
    23    14    15    1
    24    15    18    1
    25    18    19   ar
    26    19    20   ar
    27    20    21   ar
    28    21    24    1
    29    24    25    1
    30    24    26    1
    31    24    27    1
    32    21    22   ar
    33    22    23   ar
    34    15    16    1
    35    16    17    1
    36     8     9   ar
    37     9    10   ar
    38    10    11    1
    39    28    29    1
    40    29    30    2
    41    29    31   am
    42    31    33    1
    43    33    34   ar
    44    34    35   ar
    45    35    36   ar
    46    36    37   ar
    47    37    38   ar
    48    48    40   ar
    49    10     5   ar
    50    38    33   ar
    51    47    42   ar
    52    17    12    1
    53    23    18   ar
    54    41    49    1
    55     1     4    1
    56    31    32    1
@<TRIPOS>MOLECULE
*****
 51 56 0 0 0
SMALL
GASTEIGER

@<TRIPOS>ATOM
      1 N           6.9462   76.0271   26.4238 N.am    1  UNL1       -0.2945
      2 C           8.3665   75.8947   26.2707 C.2     1  UNL1        0.2483
      3 O           8.9217   74.7818   26.4808 O.2     1  UNL1       -0.2701
      4 H           6.5459   76.9828   26.5552 H       1  UNL1        0.1501
      5 C           9.1898   77.0587   25.8874 C.ar    1  UNL1        0.0808
      6 C          10.0464   76.9753   24.7785 C.ar    1  UNL1        0.0080
      7 C          10.8390   78.0664   24.4127 C.ar    1  UNL1        0.0148
      8 C          10.7779   79.2650   25.1414 C.ar    1  UNL1        0.0502
      9 C           9.9074   79.3554   26.2382 C.ar    1  UNL1        0.0443
     10 C           9.1139   78.2653   26.6072 C.ar    1  UNL1        0.1457
     11 F           8.2384   78.4082   27.6343 F       1  UNL1       -0.2040
     12 N          11.5948   80.3918   24.7719 N.pl3   1  UNL1       -0.3040
     13 C          13.0570   80.2723   24.7389 C.3     1  UNL1        0.1123
     14 C          13.6977   81.5631   25.2505 C.3     1  UNL1        0.1136
     15 N          13.0935   82.7266   24.5872 N.pl3   1  UNL1       -0.2897
     16 C          11.6309   82.8440   24.6242 C.3     1  UNL1        0.1136
     17 C          10.9879   81.5543   24.1128 C.3     1  UNL1        0.1123
     18 C          13.8913   83.8866   24.2856 C.ar    1  UNL1        0.1318
     19 C          13.9566   84.9668   25.1777 C.ar    1  UNL1        0.0343
     20 C          14.7476   86.0728   24.8632 C.ar    1  UNL1        0.0083
     21 C          15.4941   86.0931   23.6753 C.ar    1  UNL1        0.0906
     22 C          15.3908   84.9972   22.8041 C.ar    1  UNL1        0.1041
     23 N          14.6115   83.9325   23.1305 N.ar    1  UNL1       -0.2292
     24 C          16.3131   87.3019   23.3002 C.3     1  UNL1        0.4200
     25 F          16.4160   87.4139   21.9244 F       1  UNL1       -0.1658
     26 F          17.5803   87.1778   23.8382 F       1  UNL1       -0.1658
     27 F          15.7279   88.4583   23.7863 F       1  UNL1       -0.1658
     28 C           6.0531   74.8654   26.3965 C.3     1  UNL1        0.1535
     29 C           6.1625   74.1643   25.0690 C.2     1  UNL1        0.2443
     30 O           6.3119   72.9119   25.0402 O.2     1  UNL1       -0.2730
     31 N           6.1071   74.9203   23.8484 N.am    1  UNL1       -0.2825
     32 H           6.2675   75.9516   23.9033 H       1  UNL1        0.1549
     33 C           5.9579   74.3329   22.5447 C.ar    1  UNL1        0.0535
     34 C           7.0912   73.8643   21.8662 C.ar    1  UNL1        0.0353
     35 C           6.9546   73.3139   20.5895 C.ar    1  UNL1        0.1002
     36 N           5.7307   73.2494   20.0021 N.ar    1  UNL1       -0.2422
     37 C           4.6162   73.7140   20.6264 C.ar    1  UNL1        0.1002
     38 C           4.7083   74.2707   21.9046 C.ar    1  UNL1        0.0353
     39 C           6.3821   73.8794   27.5340 C.3     1  UNL1        0.0565
     40 C           7.4698   74.5130   29.8405 C.ar    1  UNL1        0.0296
     41 N           7.1564   75.3001   30.8985 N.ar    1  UNL1       -0.3567
     42 C           5.9737   75.8656   30.6087 C.ar    1  UNL1        0.0561
     43 C           5.2502   76.7566   31.4006 C.ar    1  UNL1        0.0169
     44 C           4.0182   77.2234   30.9084 C.ar    1  UNL1        0.0015
     45 C           3.5398   76.7898   29.6527 C.ar    1  UNL1        0.0001
     46 C           4.2899   75.8874   28.8773 C.ar    1  UNL1        0.0012
     47 C           5.5128   75.4470   29.3875 C.ar    1  UNL1        0.0127
     48 C           6.4532   74.5719   28.8729 C.ar    1  UNL1       -0.0072
     49 H           7.7117   75.4312   31.7733 H       1  UNL1        0.1656
     50 C           9.9447   74.4633   29.4271 C.3     1  UNL1        0.0066
     51 C           8.7081   73.6540   29.8090 C.3     1  UNL1        0.0432
@<TRIPOS>BOND
     1    50    51    1
     2    51    40    1
     3    40    41   ar
     4    41    42   ar
     5    42    43   ar
     6    43    44   ar
     7    44    45   ar
     8    45    46   ar
     9    46    47   ar
    10    47    48   ar
    11    48    39    1
    12    39    28    1
    13    28     1    1
    14     1     2   am
    15     2     3    2
    16     2     5    1
    17     5     6   ar
    18     6     7   ar
    19     7     8   ar
    20     8    12    1
    21    12    13    1
    22    13    14    1
    23    14    15    1
    24    15    18    1
    25    18    19   ar
    26    19    20   ar
    27    20    21   ar
    28    21    24    1
    29    24    25    1
    30    24    26    1
    31    24    27    1
    32    21    22   ar
    33    22    23   ar
    34    15    16    1
    35    16    17    1
    36     8     9   ar
    37     9    10   ar
    38    10    11    1
    39    28    29    1
    40    29    30    2
    41    29    31   am
    42    31    33    1
    43    33    34   ar
    44    34    35   ar
    45    35    36   ar
    46    36    37   ar
    47    37    38   ar
    48    48    40   ar
    49    10     5   ar
    50    38    33   ar
    51    47    42   ar
    52    17    12    1
    53    23    18   ar
    54    41    49    1
    55     1     4    1
    56    31    32    1
@<TRIPOS>MOLECULE
*****
 51 56 0 0 0
SMALL
GASTEIGER

@<TRIPOS>ATOM
      1 N           4.6560   75.0362   21.3942 N.am    1  UNL1       -0.2945
      2 C           6.0363   75.1387   21.7716 C.2     1  UNL1        0.2483
      3 O           6.9296   74.6383   21.0350 O.2     1  UNL1       -0.2701
      4 H           3.9269   75.1646   22.1311 H       1  UNL1        0.1501
      5 C           6.4207   75.8098   23.0292 C.ar    1  UNL1        0.0808
      6 C           5.4826   75.9470   24.0643 C.ar    1  UNL1        0.0080
      7 C           5.8311   76.5904   25.2547 C.ar    1  UNL1        0.0148
      8 C           7.1287   77.0954   25.4360 C.ar    1  UNL1        0.0502
      9 C           8.0725   76.9413   24.4092 C.ar    1  UNL1        0.0443
     10 C           7.7266   76.2988   23.2167 C.ar    1  UNL1        0.1457
     11 F           8.6814   76.1125   22.2704 F       1  UNL1       -0.2040
     12 N           7.4931   77.7627   26.6588 N.pl3   1  UNL1       -0.3040
     13 C           6.6225   77.6845   27.8375 C.3     1  UNL1        0.1123
     14 C           6.6143   79.0266   28.5702 C.3     1  UNL1        0.1136
     15 N           7.9896   79.5042   28.7688 N.pl3   1  UNL1       -0.2897
     16 C           8.8567   79.5833   27.5872 C.3     1  UNL1        0.1136
     17 C           8.8666   78.2421   26.8528 C.3     1  UNL1        0.1123
     18 C           8.3391   80.2395   29.9562 C.ar    1  UNL1        0.1318
     19 C           8.7087   79.5723   31.1332 C.ar    1  UNL1        0.0343
     20 C           9.0534   80.3124   32.2651 C.ar    1  UNL1        0.0083
     21 C           9.0567   81.7148   32.2188 C.ar    1  UNL1        0.0906
     22 C           8.6684   82.3433   31.0252 C.ar    1  UNL1        0.1041
     23 N           8.3339   81.6014   29.9365 N.ar    1  UNL1       -0.2292
     24 C           9.3788   82.5258   33.4480 C.3     1  UNL1        0.4200
     25 F           9.8648   81.7117   34.4564 F       1  UNL1       -0.1658
     26 F           8.2310   83.1558   33.8913 F       1  UNL1       -0.1658
     27 F          10.3377   83.4829   33.1642 F       1  UNL1       -0.1658
     28 C           4.2494   74.7622   20.0131 C.3     1  UNL1        0.1535
     29 C           2.8584   74.1872   19.9914 C.2     1  UNL1        0.2443
     30 O           2.5029   73.3911   20.9032 O.2     1  UNL1       -0.2730
     31 N           1.9508   74.5369   18.9339 N.am    1  UNL1       -0.2825
     32 H           2.3505   74.9565   18.0642 H       1  UNL1        0.1549
     33 C           0.5437   74.2423   18.9515 C.ar    1  UNL1        0.0535
     34 C           0.1121   72.9280   18.7264 C.ar    1  UNL1        0.0353
     35 C          -1.2550   72.6406   18.7194 C.ar    1  UNL1        0.1002
     36 N          -2.1617   73.6344   18.9128 N.ar    1  UNL1       -0.2422
     37 C          -1.7746   74.9219   19.1133 C.ar    1  UNL1        0.1002
     38 C          -0.4172   75.2523   19.1293 C.ar    1  UNL1        0.0353
     39 C           4.2980   76.0387   19.1515 C.3     1  UNL1        0.0565
     40 C           5.1906   78.3025   20.1430 C.ar    1  UNL1        0.0296
     41 N           4.7325   79.2633   20.9820 N.ar    1  UNL1       -0.3567
     42 C           3.4989   78.8829   21.3509 C.ar    1  UNL1        0.0561
     43 C           2.6316   79.5574   22.2095 C.ar    1  UNL1        0.0169
     44 C           1.3798   78.9729   22.4728 C.ar    1  UNL1        0.0015
     45 C           1.0291   77.7389   21.8831 C.ar    1  UNL1        0.0001
     46 C           1.9261   77.0793   21.0236 C.ar    1  UNL1        0.0012
     47 C           3.1584   77.6868   20.7742 C.ar    1  UNL1        0.0127
     48 C           4.2306   77.2876   19.9957 C.ar    1  UNL1       -0.0072
     49 H           5.2394   80.1211   21.2951 H       1  UNL1        0.1656
     50 C           7.5639   79.0469   20.4777 C.3     1  UNL1        0.0066
     51 C           6.5781   78.3356   19.5545 C.3     1  UNL1        0.0432
@<TRIPOS>BOND
     1    50    51    1
     2    51    40    1
     3    40    41   ar
     4    41    42   ar
     5    42    43   ar
     6    43    44   ar
     7    44    45   ar
     8    45    46   ar
     9    46    47   ar
    10    47    48   ar
    11    48    39    1
    12    39    28    1
    13    28     1    1
    14     1     2   am
    15     2     3    2
    16     2     5    1
    17     5     6   ar
    18     6     7   ar
    19     7     8   ar
    20     8    12    1
    21    12    13    1
    22    13    14    1
    23    14    15    1
    24    15    18    1
    25    18    19   ar
    26    19    20   ar
    27    20    21   ar
    28    21    24    1
    29    24    25    1
    30    24    26    1
    31    24    27    1
    32    21    22   ar
    33    22    23   ar
    34    15    16    1
    35    16    17    1
    36     8     9   ar
    37     9    10   ar
    38    10    11    1
    39    28    29    1
    40    29    30    2
    41    29    31   am
    42    31    33    1
    43    33    34   ar
    44    34    35   ar
    45    35    36   ar
    46    36    37   ar
    47    37    38   ar
    48    48    40   ar
    49    10     5   ar
    50    38    33   ar
    51    47    42   ar
    52    17    12    1
    53    23    18   ar
    54    41    49    1
    55     1     4    1
    56    31    32    1
