@<TRIPOS>MOLECULE
*****
 23 25 0 0 0
SMALL
GASTEIGER

@<TRIPOS>ATOM
      1 O         -23.2018   -7.0310  -17.2012 O.2     1  UNL1       -0.2681
      2 C         -24.0932   -6.3027  -17.7128 C.2     1  UNL1        0.2700
      3 N         -24.4525   -5.0773  -17.0583 N.am    1  UNL1       -0.2645
      4 H         -23.7061   -4.5768  -16.5244 H       1  UNL1        0.1566
      5 C         -25.8050   -4.6085  -16.9414 C.ar    1  UNL1        0.1344
      6 C         -26.5591   -4.9226  -15.8022 C.ar    1  UNL1        0.0345
      7 C         -27.8760   -4.4694  -15.6970 C.ar    1  UNL1        0.0044
      8 C         -28.4362   -3.7102  -16.7313 C.ar    1  UNL1        0.0178
      9 C         -29.7538   -3.2339  -16.6571 C.ar    1  UNL1        0.0015
     10 C         -30.2823   -2.4768  -17.7080 C.ar    1  UNL1        0.0001
     11 C         -29.5017   -2.1928  -18.8336 C.ar    1  UNL1        0.0015
     12 C         -28.1879   -2.6649  -18.9157 C.ar    1  UNL1        0.0191
     13 C         -27.6509   -3.4232  -17.8694 C.ar    1  UNL1        0.0827
     14 N         -26.3733   -3.8812  -17.9440 N.ar    1  UNL1       -0.2305
     15 C         -24.7026   -6.7126  -18.9912 C.ar    1  UNL1        0.1553
     16 C         -24.4145   -7.8585  -19.7140 C.ar    1  UNL1        0.0420
     17 C         -25.2590   -7.7873  -20.8011 C.ar    1  UNL1        0.0827
     18 N         -25.9925   -6.6630  -20.7186 N.ar    1  UNL1       -0.2772
     19 N         -25.6694   -6.0087  -19.6152 N.ar    1  UNL1       -0.1682
     20 H         -26.7052   -6.3354  -21.4078 H       1  UNL1        0.1887
     21 C         -25.2966   -8.7413  -21.9498 C.3     1  UNL1        0.1823
     22 O         -25.4475  -10.0444  -21.4629 O.3     1  UNL1       -0.3760
     23 H         -25.4705  -10.6346  -22.2603 H       1  UNL1        0.2110
@<TRIPOS>BOND
     1     1     2    2
     2     2     3   am
     3     3     5    1
     4     5     6   ar
     5     6     7   ar
     6     7     8   ar
     7     8     9   ar
     8     9    10   ar
     9    10    11   ar
    10    11    12   ar
    11    12    13   ar
    12    13    14   ar
    13     2    15    1
    14    15    16   ar
    15    16    17   ar
    16    17    21    1
    17    21    22    1
    18    17    18   ar
    19    18    19   ar
    20    14     5   ar
    21    19    15   ar
    22    13     8   ar
    23     3     4    1
    24    22    23    1
    25    18    20    1
@<TRIPOS>MOLECULE
*****
 23 25 0 0 0
SMALL
GASTEIGER

@<TRIPOS>ATOM
      1 O         -31.8469   -2.4250  -17.8564 O.2     1  UNL1       -0.2681
      2 C         -31.1016   -2.5493  -16.8485 C.2     1  UNL1        0.2700
      3 N         -29.6783   -2.5596  -17.0313 N.am    1  UNL1       -0.2645
      4 H         -29.2876   -1.9962  -17.8203 H       1  UNL1        0.1566
      5 C         -28.7942   -3.4384  -16.3180 C.ar    1  UNL1        0.1344
      6 C         -27.4142   -3.1919  -16.3146 C.ar    1  UNL1        0.0345
      7 C         -26.5588   -4.0536  -15.6245 C.ar    1  UNL1        0.0044
      8 C         -27.0833   -5.1603  -14.9461 C.ar    1  UNL1        0.0178
      9 C         -26.2544   -6.0435  -14.2381 C.ar    1  UNL1        0.0015
     10 C         -26.8114   -7.1391  -13.5700 C.ar    1  UNL1        0.0001
     11 C         -28.1927   -7.3577  -13.6054 C.ar    1  UNL1        0.0015
     12 C         -29.0256   -6.4826  -14.3098 C.ar    1  UNL1        0.0191
     13 C         -28.4772   -5.3842  -14.9812 C.ar    1  UNL1        0.0827
     14 N         -29.2837   -4.5295  -15.6643 N.ar    1  UNL1       -0.2305
     15 C         -31.7175   -2.6329  -15.5116 C.ar    1  UNL1        0.1553
     16 C         -32.6210   -3.5883  -15.0764 C.ar    1  UNL1        0.0420
     17 C         -32.8666   -3.2412  -13.7652 C.ar    1  UNL1        0.0827
     18 N         -32.1513   -2.1448  -13.4564 N.ar    1  UNL1       -0.2772
     19 N         -31.4405   -1.7743  -14.5088 N.ar    1  UNL1       -0.1682
     20 H         -32.1473   -1.6447  -12.5399 H       1  UNL1        0.1887
     21 C         -33.8439   -3.9013  -12.8487 C.3     1  UNL1        0.1823
     22 O         -34.4357   -2.9330  -12.0300 O.3     1  UNL1       -0.3760
     23 H         -35.0747   -3.4195  -11.4472 H       1  UNL1        0.2110
@<TRIPOS>BOND
     1     1     2    2
     2     2     3   am
     3     3     5    1
     4     5     6   ar
     5     6     7   ar
     6     7     8   ar
     7     8     9   ar
     8     9    10   ar
     9    10    11   ar
    10    11    12   ar
    11    12    13   ar
    12    13    14   ar
    13     2    15    1
    14    15    16   ar
    15    16    17   ar
    16    17    21    1
    17    21    22    1
    18    17    18   ar
    19    18    19   ar
    20    14     5   ar
    21    19    15   ar
    22    13     8   ar
    23     3     4    1
    24    22    23    1
    25    18    20    1
@<TRIPOS>MOLECULE
*****
 23 25 0 0 0
SMALL
GASTEIGER

@<TRIPOS>ATOM
      1 O         -16.6255    3.8072  -10.5372 O.2     1  UNL1       -0.2681
      2 C         -16.7370    2.8681  -11.3692 C.2     1  UNL1        0.2700
      3 N         -15.5948    2.0457  -11.6489 N.am    1  UNL1       -0.2645
      4 H         -14.9093    1.8902  -10.8753 H       1  UNL1        0.1566
      5 C         -15.2511    1.5886  -12.9663 C.ar    1  UNL1        0.1344
      6 C         -15.8043    0.3995  -13.4616 C.ar    1  UNL1        0.0345
      7 C         -15.4614   -0.0433  -14.7410 C.ar    1  UNL1        0.0044
      8 C         -14.5637    0.6988  -15.5179 C.ar    1  UNL1        0.0178
      9 C         -14.2009    0.2869  -16.8090 C.ar    1  UNL1        0.0015
     10 C         -13.3021    1.0528  -17.5590 C.ar    1  UNL1        0.0001
     11 C         -12.7629    2.2284  -17.0260 C.ar    1  UNL1        0.0015
     12 C         -13.1185    2.6452  -15.7393 C.ar    1  UNL1        0.0191
     13 C         -14.0168    1.8854  -14.9817 C.ar    1  UNL1        0.0827
     14 N         -14.3674    2.2887  -13.7320 N.ar    1  UNL1       -0.2305
     15 C         -18.0500    2.6181  -11.9913 C.ar    1  UNL1        0.1553
     16 C         -19.0424    1.7764  -11.5166 C.ar    1  UNL1        0.0420
     17 C         -20.0627    1.9149  -12.4331 C.ar    1  UNL1        0.0827
     18 N         -19.6844    2.7829  -13.3883 N.ar    1  UNL1       -0.2772
     19 N         -18.4663    3.2246  -13.1219 N.ar    1  UNL1       -0.1682
     20 H         -20.2446    3.0720  -14.2207 H       1  UNL1        0.1887
     21 C         -21.3486    1.1550  -12.4395 C.3     1  UNL1        0.1823
     22 O         -22.4178    2.0568  -12.4010 O.3     1  UNL1       -0.3760
     23 H         -23.2427    1.5052  -12.4108 H       1  UNL1        0.2110
@<TRIPOS>BOND
     1     1     2    2
     2     2     3   am
     3     3     5    1
     4     5     6   ar
     5     6     7   ar
     6     7     8   ar
     7     8     9   ar
     8     9    10   ar
     9    10    11   ar
    10    11    12   ar
    11    12    13   ar
    12    13    14   ar
    13     2    15    1
    14    15    16   ar
    15    16    17   ar
    16    17    21    1
    17    21    22    1
    18    17    18   ar
    19    18    19   ar
    20    14     5   ar
    21    19    15   ar
    22    13     8   ar
    23     3     4    1
    24    22    23    1
    25    18    20    1
@<TRIPOS>MOLECULE
*****
 23 25 0 0 0
SMALL
GASTEIGER

@<TRIPOS>ATOM
      1 O         -23.7314   -7.6118  -18.0222 O.2     1  UNL1       -0.2681
      2 C         -23.1228   -8.5711  -17.4780 C.2     1  UNL1        0.2700
      3 N         -23.2827   -9.8922  -18.0150 N.am    1  UNL1       -0.2645
      4 H         -23.4446   -9.9802  -19.0438 H       1  UNL1        0.1566
      5 C         -23.4195  -11.0673  -17.2005 C.ar    1  UNL1        0.1344
      6 C         -22.4303  -12.0601  -17.2317 C.ar    1  UNL1        0.0345
      7 C         -22.5718  -13.2035  -16.4424 C.ar    1  UNL1        0.0044
      8 C         -23.7023  -13.3540  -15.6303 C.ar    1  UNL1        0.0178
      9 C         -23.8748  -14.4866  -14.8206 C.ar    1  UNL1        0.0015
     10 C         -25.0159  -14.6048  -14.0200 C.ar    1  UNL1        0.0001
     11 C         -25.9865  -13.5973  -14.0240 C.ar    1  UNL1        0.0015
     12 C         -25.8225  -12.4658  -14.8292 C.ar    1  UNL1        0.0191
     13 C         -24.6844  -12.3391  -15.6334 C.ar    1  UNL1        0.0827
     14 N         -24.5198  -11.2394  -16.4151 N.ar    1  UNL1       -0.2305
     15 C         -22.2307   -8.2949  -16.3371 C.ar    1  UNL1        0.1553
     16 C         -22.5859   -8.2664  -14.9986 C.ar    1  UNL1        0.0420
     17 C         -21.4029   -7.9926  -14.3463 C.ar    1  UNL1        0.0827
     18 N         -20.4173   -7.8645  -15.2525 N.ar    1  UNL1       -0.2772
     19 N         -20.9090   -8.0581  -16.4652 N.ar    1  UNL1       -0.1682
     20 H         -19.4169   -7.6414  -15.0535 H       1  UNL1        0.1887
     21 C         -21.2391   -7.7682  -12.8787 C.3     1  UNL1        0.1823
     22 O         -19.9058   -7.4414  -12.6077 O.3     1  UNL1       -0.3760
     23 H         -19.8517   -7.2995  -11.6270 H       1  UNL1        0.2110
@<TRIPOS>BOND
     1     1     2    2
     2     2     3   am
     3     3     5    1
     4     5     6   ar
     5     6     7   ar
     6     7     8   ar
     7     8     9   ar
     8     9    10   ar
     9    10    11   ar
    10    11    12   ar
    11    12    13   ar
    12    13    14   ar
    13     2    15    1
    14    15    16   ar
    15    16    17   ar
    16    17    21    1
    17    21    22    1
    18    17    18   ar
    19    18    19   ar
    20    14     5   ar
    21    19    15   ar
    22    13     8   ar
    23     3     4    1
    24    22    23    1
    25    18    20    1
@<TRIPOS>MOLECULE
*****
 23 25 0 0 0
SMALL
GASTEIGER

@<TRIPOS>ATOM
      1 O         -20.6576   -7.9590  -16.1312 O.2     1  UNL1       -0.2681
      2 C         -21.8414   -8.3709  -16.0058 C.2     1  UNL1        0.2700
      3 N         -22.2106   -9.0778  -14.8128 N.am    1  UNL1       -0.2645
      4 H         -21.7220   -8.8186  -13.9259 H       1  UNL1        0.1566
      5 C         -23.0646  -10.2325  -14.8083 C.ar    1  UNL1        0.1344
      6 C         -24.4023  -10.1127  -14.4065 C.ar    1  UNL1        0.0345
      7 C         -25.2262  -11.2404  -14.3980 C.ar    1  UNL1        0.0044
      8 C         -24.7103  -12.4832  -14.7845 C.ar    1  UNL1        0.0178
      9 C         -25.5102  -13.6357  -14.7933 C.ar    1  UNL1        0.0015
     10 C         -24.9633  -14.8618  -15.1864 C.ar    1  UNL1        0.0001
     11 C         -23.6206  -14.9432  -15.5707 C.ar    1  UNL1        0.0015
     12 C         -22.8163  -13.7992  -15.5636 C.ar    1  UNL1        0.0191
     13 C         -23.3548  -12.5686  -15.1717 C.ar    1  UNL1        0.0827
     14 N         -22.5772  -11.4538  -15.1664 N.ar    1  UNL1       -0.2305
     15 C         -22.8176   -8.0711  -17.0693 C.ar    1  UNL1        0.1553
     16 C         -23.3435   -6.8284  -17.3817 C.ar    1  UNL1        0.0420
     17 C         -24.1767   -7.0789  -18.4508 C.ar    1  UNL1        0.0827
     18 N         -24.1416   -8.3918  -18.7409 N.ar    1  UNL1       -0.2772
     19 N         -23.3089   -9.0015  -17.9133 N.ar    1  UNL1       -0.1682
     20 H         -24.6824   -8.8758  -19.4915 H       1  UNL1        0.1887
     21 C         -25.0633   -6.0851  -19.1269 C.3     1  UNL1        0.1823
     22 O         -25.3615   -6.5355  -20.4177 O.3     1  UNL1       -0.3760
     23 H         -25.9517   -5.8463  -20.8195 H       1  UNL1        0.2110
@<TRIPOS>BOND
     1     1     2    2
     2     2     3   am
     3     3     5    1
     4     5     6   ar
     5     6     7   ar
     6     7     8   ar
     7     8     9   ar
     8     9    10   ar
     9    10    11   ar
    10    11    12   ar
    11    12    13   ar
    12    13    14   ar
    13     2    15    1
    14    15    16   ar
    15    16    17   ar
    16    17    21    1
    17    21    22    1
    18    17    18   ar
    19    18    19   ar
    20    14     5   ar
    21    19    15   ar
    22    13     8   ar
    23     3     4    1
    24    22    23    1
    25    18    20    1
@<TRIPOS>MOLECULE
*****
 23 25 0 0 0
SMALL
GASTEIGER

@<TRIPOS>ATOM
      1 O         -20.6994   -9.1597  -11.3296 O.2     1  UNL1       -0.2681
      2 C         -21.5416   -9.6901  -12.1017 C.2     1  UNL1        0.2700
      3 N         -22.0400  -11.0003  -11.7950 N.am    1  UNL1       -0.2645
      4 H         -22.1158  -11.2655  -10.7868 H       1  UNL1        0.1566
      5 C         -22.2573  -12.0173  -12.7855 C.ar    1  UNL1        0.1344
      6 C         -21.1633  -12.6654  -13.3755 C.ar    1  UNL1        0.0345
      7 C         -21.3806  -13.6491  -14.3429 C.ar    1  UNL1        0.0044
      8 C         -22.6879  -13.9772  -14.7214 C.ar    1  UNL1        0.0178
      9 C         -22.9436  -14.9637  -15.6857 C.ar    1  UNL1        0.0015
     10 C         -24.2623  -15.2680  -16.0399 C.ar    1  UNL1        0.0001
     11 C         -25.3277  -14.5917  -15.4362 C.ar    1  UNL1        0.0015
     12 C         -25.0812  -13.6063  -14.4751 C.ar    1  UNL1        0.0191
     13 C         -23.7654  -13.2951  -14.1146 C.ar    1  UNL1        0.0827
     14 N         -23.5216  -12.3402  -13.1786 N.ar    1  UNL1       -0.2305
     15 C         -22.0203   -8.9262  -13.2683 C.ar    1  UNL1        0.1553
     16 C         -21.4224   -8.8625  -14.5162 C.ar    1  UNL1        0.0420
     17 C         -22.2625   -8.0496  -15.2465 C.ar    1  UNL1        0.0827
     18 N         -23.2871   -7.6587  -14.4679 N.ar    1  UNL1       -0.2772
     19 N         -23.1545   -8.1962  -13.2664 N.ar    1  UNL1       -0.1682
     20 H         -24.0706   -7.0266  -14.7448 H       1  UNL1        0.1887
     21 C         -22.0360   -7.5820  -16.6469 C.3     1  UNL1        0.1823
     22 O         -20.6640   -7.5944  -16.9215 O.3     1  UNL1       -0.3760
     23 H         -20.5686   -7.2813  -17.8583 H       1  UNL1        0.2110
@<TRIPOS>BOND
     1     1     2    2
     2     2     3   am
     3     3     5    1
     4     5     6   ar
     5     6     7   ar
     6     7     8   ar
     7     8     9   ar
     8     9    10   ar
     9    10    11   ar
    10    11    12   ar
    11    12    13   ar
    12    13    14   ar
    13     2    15    1
    14    15    16   ar
    15    16    17   ar
    16    17    21    1
    17    21    22    1
    18    17    18   ar
    19    18    19   ar
    20    14     5   ar
    21    19    15   ar
    22    13     8   ar
    23     3     4    1
    24    22    23    1
    25    18    20    1
@<TRIPOS>MOLECULE
*****
 23 25 0 0 0
SMALL
GASTEIGER

@<TRIPOS>ATOM
      1 O         -31.1836   -1.9617  -18.1857 O.2     1  UNL1       -0.2681
      2 C         -30.3438   -2.4947  -17.4127 C.2     1  UNL1        0.2700
      3 N         -28.9611   -2.1284  -17.5268 N.am    1  UNL1       -0.2645
      4 H         -28.7424   -1.1538  -17.8351 H       1  UNL1        0.1566
      5 C         -27.8811   -3.0697  -17.4251 C.ar    1  UNL1        0.1344
      6 C         -27.2569   -3.2886  -16.1892 C.ar    1  UNL1        0.0345
      7 C         -26.2030   -4.2004  -16.0978 C.ar    1  UNL1        0.0044
      8 C         -25.7728   -4.8850  -17.2408 C.ar    1  UNL1        0.0178
      9 C         -24.7210   -5.8118  -17.1849 C.ar    1  UNL1        0.0015
     10 C         -24.3169   -6.4795  -18.3458 C.ar    1  UNL1        0.0001
     11 C         -24.9578   -6.2262  -19.5633 C.ar    1  UNL1        0.0015
     12 C         -26.0062   -5.3030  -19.6276 C.ar    1  UNL1        0.0191
     13 C         -26.4171   -4.6302  -18.4714 C.ar    1  UNL1        0.0827
     14 N         -27.4378   -3.7345  -18.5291 N.ar    1  UNL1       -0.2305
     15 C         -30.8186   -3.4412  -16.3869 C.ar    1  UNL1        0.1553
     16 C         -31.8241   -3.2197  -15.4604 C.ar    1  UNL1        0.0420
     17 C         -31.8977   -4.4045  -14.7597 C.ar    1  UNL1        0.0827
     18 N         -30.9849   -5.2639  -15.2466 N.ar    1  UNL1       -0.2772
     19 N         -30.3317   -4.6910  -16.2442 N.ar    1  UNL1       -0.1682
     20 H         -30.7995   -6.2323  -14.9031 H       1  UNL1        0.1887
     21 C         -32.7717   -4.6755  -13.5792 C.3     1  UNL1        0.1823
     22 O         -32.9892   -6.0536  -13.4725 O.3     1  UNL1       -0.3760
     23 H         -33.5680   -6.1794  -12.6763 H       1  UNL1        0.2110
@<TRIPOS>BOND
     1     1     2    2
     2     2     3   am
     3     3     5    1
     4     5     6   ar
     5     6     7   ar
     6     7     8   ar
     7     8     9   ar
     8     9    10   ar
     9    10    11   ar
    10    11    12   ar
    11    12    13   ar
    12    13    14   ar
    13     2    15    1
    14    15    16   ar
    15    16    17   ar
    16    17    21    1
    17    21    22    1
    18    17    18   ar
    19    18    19   ar
    20    14     5   ar
    21    19    15   ar
    22    13     8   ar
    23     3     4    1
    24    22    23    1
    25    18    20    1
@<TRIPOS>MOLECULE
*****
 23 25 0 0 0
SMALL
GASTEIGER

@<TRIPOS>ATOM
      1 O         -27.3950   -7.6205  -12.0020 O.2     1  UNL1       -0.2681
      2 C         -26.2913   -8.2258  -12.0495 C.2     1  UNL1        0.2700
      3 N         -25.6959   -8.4901  -13.3281 N.am    1  UNL1       -0.2645
      4 H         -25.8719   -7.8023  -14.0954 H       1  UNL1        0.1566
      5 C         -25.0397   -9.7246  -13.6566 C.ar    1  UNL1        0.1344
      6 C         -23.6449   -9.7619  -13.7923 C.ar    1  UNL1        0.0345
      7 C         -23.0129  -10.9639  -14.1182 C.ar    1  UNL1        0.0044
      8 C         -23.7756  -12.1217  -14.3131 C.ar    1  UNL1        0.0178
      9 C         -23.1741  -13.3473  -14.6360 C.ar    1  UNL1        0.0015
     10 C         -23.9657  -14.4854  -14.8227 C.ar    1  UNL1        0.0001
     11 C         -25.3560  -14.4060  -14.6890 C.ar    1  UNL1        0.0015
     12 C         -25.9634  -13.1878  -14.3685 C.ar    1  UNL1        0.0191
     13 C         -25.1795  -12.0441  -14.1800 C.ar    1  UNL1        0.0827
     14 N         -25.7657  -10.8589  -13.8653 N.ar    1  UNL1       -0.2305
     15 C         -25.6278   -8.5999  -10.7872 C.ar    1  UNL1        0.1553
     16 C         -24.2763   -8.4964  -10.5019 C.ar    1  UNL1        0.0420
     17 C         -24.1752   -8.9451   -9.2025 C.ar    1  UNL1        0.0827
     18 N         -25.3960   -9.2941   -8.7588 N.ar    1  UNL1       -0.2772
     19 N         -26.2875   -9.0768   -9.7117 N.ar    1  UNL1       -0.1682
     20 H         -25.6260   -9.6831   -7.8175 H       1  UNL1        0.1887
     21 C         -22.9100   -9.1208   -8.4284 C.3     1  UNL1        0.1823
     22 O         -23.0804   -8.5997   -7.1409 O.3     1  UNL1       -0.3760
     23 H         -22.2188   -8.7438   -6.6701 H       1  UNL1        0.2110
@<TRIPOS>BOND
     1     1     2    2
     2     2     3   am
     3     3     5    1
     4     5     6   ar
     5     6     7   ar
     6     7     8   ar
     7     8     9   ar
     8     9    10   ar
     9    10    11   ar
    10    11    12   ar
    11    12    13   ar
    12    13    14   ar
    13     2    15    1
    14    15    16   ar
    15    16    17   ar
    16    17    21    1
    17    21    22    1
    18    17    18   ar
    19    18    19   ar
    20    14     5   ar
    21    19    15   ar
    22    13     8   ar
    23     3     4    1
    24    22    23    1
    25    18    20    1
@<TRIPOS>MOLECULE
*****
 23 25 0 0 0
SMALL
GASTEIGER

@<TRIPOS>ATOM
      1 O         -19.9514   -7.7320   -8.9960 O.2     1  UNL1       -0.2681
      2 C         -20.5116   -8.8245   -9.2777 C.2     1  UNL1        0.2700
      3 N         -19.7426   -9.8600   -9.9066 N.am    1  UNL1       -0.2645
      4 H         -18.7251   -9.9163   -9.6742 H       1  UNL1        0.1566
      5 C         -20.2470  -10.6898  -10.9649 C.ar    1  UNL1        0.1344
      6 C         -19.9966  -12.0690  -10.9533 C.ar    1  UNL1        0.0345
      7 C         -20.4842  -12.8698  -11.9884 C.ar    1  UNL1        0.0044
      8 C         -21.2139  -12.2902  -13.0332 C.ar    1  UNL1        0.0178
      9 C         -21.7233  -13.0647  -14.0863 C.ar    1  UNL1        0.0015
     10 C         -22.4494  -12.4537  -15.1141 C.ar    1  UNL1        0.0001
     11 C         -22.6696  -11.0723  -15.0960 C.ar    1  UNL1        0.0015
     12 C         -22.1642  -10.2931  -14.0505 C.ar    1  UNL1        0.0191
     13 C         -21.4365  -10.8956  -13.0182 C.ar    1  UNL1        0.0827
     14 N         -20.9463  -10.1423  -11.9986 N.ar    1  UNL1       -0.2305
     15 C         -21.9259   -9.0171   -8.9087 C.ar    1  UNL1        0.1553
     16 C         -22.7876   -9.9779   -9.4116 C.ar    1  UNL1        0.0420
     17 C         -23.9677   -9.7529   -8.7359 C.ar    1  UNL1        0.0827
     18 N         -23.8041   -8.7183   -7.8922 N.ar    1  UNL1       -0.2772
     19 N         -22.5621   -8.2717   -7.9819 N.ar    1  UNL1       -0.1682
     20 H         -24.5302   -8.3112   -7.2619 H       1  UNL1        0.1887
     21 C         -25.2610  -10.4647   -8.9631 C.3     1  UNL1        0.1823
     22 O         -26.0944  -10.2729   -7.8555 O.3     1  UNL1       -0.3760
     23 H         -26.9356  -10.7591   -8.0573 H       1  UNL1        0.2110
@<TRIPOS>BOND
     1     1     2    2
     2     2     3   am
     3     3     5    1
     4     5     6   ar
     5     6     7   ar
     6     7     8   ar
     7     8     9   ar
     8     9    10   ar
     9    10    11   ar
    10    11    12   ar
    11    12    13   ar
    12    13    14   ar
    13     2    15    1
    14    15    16   ar
    15    16    17   ar
    16    17    21    1
    17    21    22    1
    18    17    18   ar
    19    18    19   ar
    20    14     5   ar
    21    19    15   ar
    22    13     8   ar
    23     3     4    1
    24    22    23    1
    25    18    20    1
