@<TRIPOS>MOLECULE
*****
 50 55 0 0 0
SMALL
GASTEIGER

@<TRIPOS>ATOM
      1 C         -24.8269   50.1551   -9.9798 C.2     1  UNL1        0.2483
      2 O         -25.1647   49.7359  -11.1204 O.2     1  UNL1       -0.2701
      3 N         -25.5910   49.7708   -8.8235 N.am    1  UNL1       -0.2945
      4 H         -25.2328   50.0240   -7.8757 H       1  UNL1        0.1501
      5 C         -21.8717   53.6772  -12.0056 C.3     1  UNL1        0.0347
      6 C         -22.2539   52.8233  -10.8247 C.ar    1  UNL1        0.0191
      7 C         -21.6196   52.9885   -9.5737 C.ar    1  UNL1        0.0461
      8 C         -21.9896   52.1739   -8.4968 C.ar    1  UNL1        0.0145
      9 C         -23.0070   51.2316   -8.6364 C.ar    1  UNL1        0.0080
     10 C         -23.6844   51.0901   -9.8569 C.ar    1  UNL1        0.0805
     11 C         -23.2946   51.8838  -10.9535 C.ar    1  UNL1        0.1416
     12 F         -23.9576   51.7771  -12.1355 F       1  UNL1       -0.2043
     13 N         -20.6120   53.9951   -9.3795 N.pl3   1  UNL1       -0.3043
     14 C         -20.0121   54.2131   -8.0611 C.3     1  UNL1        0.1122
     15 C         -20.3590   55.6182   -7.5658 C.3     1  UNL1        0.1122
     16 N         -20.0932   56.6061   -8.6214 N.pl3   1  UNL1       -0.3041
     17 C         -20.6697   56.3720   -9.9530 C.3     1  UNL1        0.1122
     18 C         -20.3177   54.9647  -10.4372 C.3     1  UNL1        0.1122
     19 C         -19.5756   57.9037   -8.2719 C.ar    1  UNL1        0.0479
     20 C         -18.9788   58.1244   -7.0201 C.ar    1  UNL1        0.0145
     21 C         -18.4817   59.3872   -6.6857 C.ar    1  UNL1        0.0051
     22 C         -18.5576   60.4490   -7.6033 C.ar    1  UNL1        0.0715
     23 C         -19.1823   60.2337   -8.8435 C.ar    1  UNL1        0.0051
     24 C         -19.6783   58.9704   -9.1775 C.ar    1  UNL1        0.0145
     25 C         -18.0671   61.8234   -7.2233 C.3     1  UNL1        0.4186
     26 F         -18.2727   62.0222   -5.8709 F       1  UNL1       -0.1659
     27 F         -18.7483   62.7986   -7.9313 F       1  UNL1       -0.1659
     28 F         -16.7167   61.9538   -7.4982 F       1  UNL1       -0.1659
     29 C         -27.0054   49.3924   -8.9202 C.3     1  UNL1        0.1535
     30 C         -27.4336   48.6736   -7.6683 C.2     1  UNL1        0.2443
     31 O         -28.4926   47.9879   -7.6731 O.2     1  UNL1       -0.2730
     32 N         -26.5866   48.6922   -6.5080 N.am    1  UNL1       -0.2825
     33 H         -25.5904   48.9815   -6.6367 H       1  UNL1        0.1549
     34 C         -26.9922   48.2318   -5.2075 C.ar    1  UNL1        0.0535
     35 C         -26.4523   47.0659   -4.6378 C.ar    1  UNL1        0.0353
     36 C         -26.8958   46.6439   -3.3818 C.ar    1  UNL1        0.1002
     37 N         -27.8531   47.3492   -2.7231 N.ar    1  UNL1       -0.2422
     38 C         -28.4060   48.4698   -3.2580 C.ar    1  UNL1        0.1002
     39 C         -27.9920   48.9256   -4.5118 C.ar    1  UNL1        0.0353
     40 C         -27.8779   50.6419   -9.1340 C.3     1  UNL1        0.0569
     41 C         -28.2108   51.3077   -7.8285 C.ar    1  UNL1       -0.0017
     42 C         -27.3353   52.0376   -7.0303 C.ar    1  UNL1        0.0681
     43 N         -27.9325   52.3838   -5.8673 N.ar    1  UNL1       -0.3523
     44 C         -29.1725   51.8674   -5.9173 C.ar    1  UNL1        0.0563
     45 C         -30.1498   51.9219   -4.9245 C.ar    1  UNL1        0.0170
     46 C         -31.3710   51.2679   -5.1667 C.ar    1  UNL1        0.0015
     47 C         -31.5833   50.5736   -6.3778 C.ar    1  UNL1        0.0001
     48 C         -30.5793   50.5355   -7.3627 C.ar    1  UNL1        0.0012
     49 C         -29.3804   51.2004   -7.0977 C.ar    1  UNL1        0.0131
     50 H         -27.5033   52.9184   -5.0797 H       1  UNL1        0.1660
@<TRIPOS>BOND
     1     5     6    1
     2     6     7   ar
     3     7    13    1
     4    13    14    1
     5    14    15    1
     6    15    16    1
     7    16    19    1
     8    19    20   ar
     9    20    21   ar
    10    21    22   ar
    11    22    25    1
    12    25    26    1
    13    25    27    1
    14    25    28    1
    15    22    23   ar
    16    23    24   ar
    17    16    17    1
    18    17    18    1
    19     7     8   ar
    20     8     9   ar
    21     9    10   ar
    22    10     1    1
    23     1     2    2
    24     1     3   am
    25     3    29    1
    26    29    40    1
    27    40    41    1
    28    41    42   ar
    29    42    43   ar
    30    43    44   ar
    31    44    45   ar
    32    45    46   ar
    33    46    47   ar
    34    47    48   ar
    35    48    49   ar
    36    29    30    1
    37    30    31    2
    38    30    32   am
    39    32    34    1
    40    34    35   ar
    41    35    36   ar
    42    36    37   ar
    43    37    38   ar
    44    38    39   ar
    45    10    11   ar
    46    11    12    1
    47    11     6   ar
    48    18    13    1
    49    49    41   ar
    50    39    34   ar
    51    24    19   ar
    52    49    44   ar
    53     3     4    1
    54    43    50    1
    55    32    33    1
@<TRIPOS>MOLECULE
*****
 50 55 0 0 0
SMALL
GASTEIGER

@<TRIPOS>ATOM
      1 C         -30.3439   47.6053   -7.6843 C.2     1  UNL1        0.2483
      2 O         -31.5574   47.9459   -7.7308 O.2     1  UNL1       -0.2701
      3 N         -29.9631   46.4180   -6.9675 N.am    1  UNL1       -0.2945
      4 H         -28.9769   46.0817   -7.0372 H       1  UNL1        0.1501
      5 C         -29.1309   51.8787  -10.0315 C.3     1  UNL1        0.0347
      6 C         -28.7137   50.5584   -9.4381 C.ar    1  UNL1        0.0191
      7 C         -27.3515   50.1918   -9.3683 C.ar    1  UNL1        0.0461
      8 C         -26.9948   48.9541   -8.8197 C.ar    1  UNL1        0.0145
      9 C         -27.9673   48.0997   -8.3033 C.ar    1  UNL1        0.0080
     10 C         -29.3205   48.4703   -8.3160 C.ar    1  UNL1        0.0805
     11 C         -29.6893   49.6999   -8.8963 C.ar    1  UNL1        0.1416
     12 F         -30.9929   50.0853   -8.8936 F       1  UNL1       -0.2043
     13 N         -26.3196   51.0780   -9.8331 N.pl3   1  UNL1       -0.3043
     14 C         -25.9076   51.0797  -11.2387 C.3     1  UNL1        0.1122
     15 C         -24.4483   50.6341  -11.3460 C.3     1  UNL1        0.1122
     16 N         -23.6222   51.3721  -10.3796 N.pl3   1  UNL1       -0.3041
     17 C         -24.0519   51.3964   -8.9742 C.3     1  UNL1        0.1122
     18 C         -25.5118   51.8417   -8.8794 C.3     1  UNL1        0.1122
     19 C         -22.2836   51.7651  -10.7368 C.ar    1  UNL1        0.0479
     20 C         -22.0323   53.0280  -11.2971 C.ar    1  UNL1        0.0145
     21 C         -20.7312   53.4019  -11.6450 C.ar    1  UNL1        0.0051
     22 C         -19.6548   52.5257  -11.4241 C.ar    1  UNL1        0.0715
     23 C         -19.9125   51.2511  -10.8914 C.ar    1  UNL1        0.0051
     24 C         -21.2137   50.8784  -10.5429 C.ar    1  UNL1        0.0145
     25 C         -18.2588   52.9094  -11.8460 C.3     1  UNL1        0.4186
     26 F         -17.9661   52.3046  -13.0541 F       1  UNL1       -0.1659
     27 F         -17.3331   52.5012  -10.9013 F       1  UNL1       -0.1659
     28 F         -18.1518   54.2819  -11.9910 F       1  UNL1       -0.1659
     29 C         -30.7693   45.8885   -5.8617 C.3     1  UNL1        0.1535
     30 C         -29.8769   45.2366   -4.8391 C.2     1  UNL1        0.2443
     31 O         -30.3528   44.3673   -4.0584 O.2     1  UNL1       -0.2730
     32 N         -28.4716   45.5351   -4.8223 N.am    1  UNL1       -0.2825
     33 H         -28.0606   45.9917   -5.6681 H       1  UNL1        0.1549
     34 C         -27.5781   45.1450   -3.7654 C.ar    1  UNL1        0.0535
     35 C         -26.3569   44.5029   -4.0334 C.ar    1  UNL1        0.0353
     36 C         -25.5326   44.1200   -2.9721 C.ar    1  UNL1        0.1002
     37 N         -25.9172   44.3546   -1.6897 N.ar    1  UNL1       -0.2422
     38 C         -27.1009   44.9569   -1.4006 C.ar    1  UNL1        0.1002
     39 C         -27.9551   45.3546   -2.4318 C.ar    1  UNL1        0.0353
     40 C         -31.5826   47.0185   -5.2063 C.3     1  UNL1        0.0569
     41 C         -30.7736   47.7455   -4.1693 C.ar    1  UNL1       -0.0017
     42 C         -29.7435   48.6488   -4.4137 C.ar    1  UNL1        0.0681
     43 N         -29.1495   49.0135   -3.2547 N.ar    1  UNL1       -0.3523
     44 C         -29.7854   48.3383   -2.2818 C.ar    1  UNL1        0.0563
     45 C         -29.4957   48.3511   -0.9180 C.ar    1  UNL1        0.0170
     46 C         -30.2614   47.5259   -0.0750 C.ar    1  UNL1        0.0015
     47 C         -31.2818   46.7083   -0.6080 C.ar    1  UNL1        0.0001
     48 C         -31.5529   46.7159   -1.9886 C.ar    1  UNL1        0.0012
     49 C         -30.7819   47.5509   -2.7998 C.ar    1  UNL1        0.0131
     50 H         -28.3409   49.6650   -3.1453 H       1  UNL1        0.1660
@<TRIPOS>BOND
     1     5     6    1
     2     6     7   ar
     3     7    13    1
     4    13    14    1
     5    14    15    1
     6    15    16    1
     7    16    19    1
     8    19    20   ar
     9    20    21   ar
    10    21    22   ar
    11    22    25    1
    12    25    26    1
    13    25    27    1
    14    25    28    1
    15    22    23   ar
    16    23    24   ar
    17    16    17    1
    18    17    18    1
    19     7     8   ar
    20     8     9   ar
    21     9    10   ar
    22    10     1    1
    23     1     2    2
    24     1     3   am
    25     3    29    1
    26    29    40    1
    27    40    41    1
    28    41    42   ar
    29    42    43   ar
    30    43    44   ar
    31    44    45   ar
    32    45    46   ar
    33    46    47   ar
    34    47    48   ar
    35    48    49   ar
    36    29    30    1
    37    30    31    2
    38    30    32   am
    39    32    34    1
    40    34    35   ar
    41    35    36   ar
    42    36    37   ar
    43    37    38   ar
    44    38    39   ar
    45    10    11   ar
    46    11    12    1
    47    11     6   ar
    48    18    13    1
    49    49    41   ar
    50    39    34   ar
    51    24    19   ar
    52    49    44   ar
    53     3     4    1
    54    43    50    1
    55    32    33    1
@<TRIPOS>MOLECULE
*****
 50 55 0 0 0
SMALL
GASTEIGER

@<TRIPOS>ATOM
      1 C         -24.7812   50.0207   -9.3696 C.2     1  UNL1        0.2483
      2 O         -25.5859   49.9489  -10.3382 O.2     1  UNL1       -0.2701
      3 N         -24.9894   49.2000   -8.2070 N.am    1  UNL1       -0.2945
      4 H         -24.2535   49.1794   -7.4662 H       1  UNL1        0.1501
      5 C         -22.1733   53.4966  -11.8914 C.3     1  UNL1        0.0347
      6 C         -22.4060   52.7092  -10.6283 C.ar    1  UNL1        0.0191
      7 C         -21.6599   52.9752   -9.4590 C.ar    1  UNL1        0.0461
      8 C         -21.8922   52.2207   -8.3027 C.ar    1  UNL1        0.0145
      9 C         -22.8817   51.2394   -8.2824 C.ar    1  UNL1        0.0080
     10 C         -23.6686   50.9976   -9.4185 C.ar    1  UNL1        0.0805
     11 C         -23.4178   51.7306  -10.5951 C.ar    1  UNL1        0.1416
     12 F         -24.1880   51.5266  -11.6965 F       1  UNL1       -0.2043
     13 N         -20.6772   54.0239   -9.4281 N.pl3   1  UNL1       -0.3043
     14 C         -19.7804   54.1794   -8.2804 C.3     1  UNL1        0.1122
     15 C         -20.0513   55.5201   -7.5957 C.3     1  UNL1        0.1122
     16 N         -20.0942   56.5980   -8.5944 N.pl3   1  UNL1       -0.3041
     17 C         -20.9710   56.4288   -9.7619 C.3     1  UNL1        0.1122
     18 C         -20.6923   55.0854  -10.4371 C.3     1  UNL1        0.1122
     19 C         -19.5595   57.8951   -8.2694 C.ar    1  UNL1        0.0479
     20 C         -18.9589   58.1313   -7.0222 C.ar    1  UNL1        0.0145
     21 C         -18.4452   59.3935   -6.7117 C.ar    1  UNL1        0.0051
     22 C         -18.5082   60.4390   -7.6488 C.ar    1  UNL1        0.0715
     23 C         -19.1367   60.2088   -8.8845 C.ar    1  UNL1        0.0051
     24 C         -19.6492   58.9460   -9.1947 C.ar    1  UNL1        0.0145
     25 C         -17.9997   61.8138   -7.2948 C.3     1  UNL1        0.4186
     26 F         -16.6513   61.8900   -7.5897 F       1  UNL1       -0.1659
     27 F         -18.1818   62.0702   -5.9468 F       1  UNL1       -0.1659
     28 F         -18.6744   62.7849   -8.0145 F       1  UNL1       -0.1659
     29 C         -26.3202   48.7057   -7.8357 C.3     1  UNL1        0.1535
     30 C         -26.1917   47.5008   -6.9420 C.2     1  UNL1        0.2443
     31 O         -25.5412   46.4953   -7.3390 O.2     1  UNL1       -0.2730
     32 N         -26.7252   47.5393   -5.6086 N.am    1  UNL1       -0.2825
     33 H         -26.9588   48.4746   -5.2043 H       1  UNL1        0.1549
     34 C         -26.8518   46.3867   -4.7582 C.ar    1  UNL1        0.0535
     35 C         -25.8390   46.0245   -3.8536 C.ar    1  UNL1        0.0353
     36 C         -25.9960   44.8814   -3.0654 C.ar    1  UNL1        0.1002
     37 N         -27.1145   44.1183   -3.1842 N.ar    1  UNL1       -0.2422
     38 C         -28.1015   44.4343   -4.0636 C.ar    1  UNL1        0.1002
     39 C         -27.9840   45.5680   -4.8713 C.ar    1  UNL1        0.0353
     40 C         -27.1179   49.8095   -7.1193 C.3     1  UNL1        0.0569
     41 C         -28.5243   49.8960   -7.6417 C.ar    1  UNL1       -0.0017
     42 C         -29.6298   49.2113   -7.1459 C.ar    1  UNL1        0.0681
     43 N         -30.7095   49.4240   -7.9322 N.ar    1  UNL1       -0.3523
     44 C         -30.2930   50.2254   -8.9278 C.ar    1  UNL1        0.0563
     45 C         -31.0409   50.6815  -10.0124 C.ar    1  UNL1        0.0170
     46 C         -30.3901   51.4771  -10.9722 C.ar    1  UNL1        0.0015
     47 C         -29.0197   51.7883  -10.8340 C.ar    1  UNL1        0.0001
     48 C         -28.2895   51.3148   -9.7285 C.ar    1  UNL1        0.0012
     49 C         -28.9638   50.5338   -8.7878 C.ar    1  UNL1        0.0131
     50 H         -31.6642   49.0209   -7.8046 H       1  UNL1        0.1660
@<TRIPOS>BOND
     1     5     6    1
     2     6     7   ar
     3     7    13    1
     4    13    14    1
     5    14    15    1
     6    15    16    1
     7    16    19    1
     8    19    20   ar
     9    20    21   ar
    10    21    22   ar
    11    22    25    1
    12    25    26    1
    13    25    27    1
    14    25    28    1
    15    22    23   ar
    16    23    24   ar
    17    16    17    1
    18    17    18    1
    19     7     8   ar
    20     8     9   ar
    21     9    10   ar
    22    10     1    1
    23     1     2    2
    24     1     3   am
    25     3    29    1
    26    29    40    1
    27    40    41    1
    28    41    42   ar
    29    42    43   ar
    30    43    44   ar
    31    44    45   ar
    32    45    46   ar
    33    46    47   ar
    34    47    48   ar
    35    48    49   ar
    36    29    30    1
    37    30    31    2
    38    30    32   am
    39    32    34    1
    40    34    35   ar
    41    35    36   ar
    42    36    37   ar
    43    37    38   ar
    44    38    39   ar
    45    10    11   ar
    46    11    12    1
    47    11     6   ar
    48    18    13    1
    49    49    41   ar
    50    39    34   ar
    51    24    19   ar
    52    49    44   ar
    53     3     4    1
    54    43    50    1
    55    32    33    1
@<TRIPOS>MOLECULE
*****
 50 55 0 0 0
SMALL
GASTEIGER

@<TRIPOS>ATOM
      1 C         -29.3385   50.1309  -11.7202 C.2     1  UNL1        0.2483
      2 O         -30.4431   50.7350  -11.6436 O.2     1  UNL1       -0.2701
      3 N         -29.2849   48.8121  -12.2915 N.am    1  UNL1       -0.2945
      4 H         -28.3524   48.3730  -12.4594 H       1  UNL1        0.1501
      5 C         -26.9132   52.1613   -7.8166 C.3     1  UNL1        0.0347
      6 C         -26.9223   51.7335   -9.2611 C.ar    1  UNL1        0.0191
      7 C         -25.7541   51.8172  -10.0504 C.ar    1  UNL1        0.0461
      8 C         -25.7954   51.4208  -11.3926 C.ar    1  UNL1        0.0145
      9 C         -26.9665   50.9046  -11.9445 C.ar    1  UNL1        0.0080
     10 C         -28.1219   50.7648  -11.1610 C.ar    1  UNL1        0.0805
     11 C         -28.0963   51.1924   -9.8190 C.ar    1  UNL1        0.1416
     12 F         -29.1993   51.0401   -9.0392 F       1  UNL1       -0.2043
     13 N         -24.5139   52.2842   -9.4936 N.pl3   1  UNL1       -0.3043
     14 C         -23.6746   53.2376  -10.2232 C.3     1  UNL1        0.1122
     15 C         -22.3364   52.5825  -10.5694 C.3     1  UNL1        0.1122
     16 N         -21.7713   51.9283   -9.3804 N.pl3   1  UNL1       -0.3041
     17 C         -22.6235   50.9948   -8.6302 C.3     1  UNL1        0.1122
     18 C         -23.9582   51.6597   -8.2909 C.3     1  UNL1        0.1122
     19 C         -20.3480   51.9477   -9.1626 C.ar    1  UNL1        0.0479
     20 C         -19.4562   51.7615  -10.2313 C.ar    1  UNL1        0.0145
     21 C         -18.0758   51.7777  -10.0124 C.ar    1  UNL1        0.0051
     22 C         -17.5611   51.9966   -8.7231 C.ar    1  UNL1        0.0715
     23 C         -18.4554   52.1525   -7.6504 C.ar    1  UNL1        0.0051
     24 C         -19.8356   52.1371   -7.8702 C.ar    1  UNL1        0.0145
     25 C         -16.0734   51.9637   -8.4789 C.3     1  UNL1        0.4186
     26 F         -15.4114   52.0667   -9.6880 F       1  UNL1       -0.1659
     27 F         -15.7053   50.7803   -7.8624 F       1  UNL1       -0.1659
     28 F         -15.6887   53.0137   -7.6630 F       1  UNL1       -0.1659
     29 C         -30.4493   47.9191  -12.2898 C.3     1  UNL1        0.1535
     30 C         -30.9262   47.6964  -10.8791 C.2     1  UNL1        0.2443
     31 O         -31.5826   48.5997  -10.2919 O.2     1  UNL1       -0.2730
     32 N         -30.7168   46.4239  -10.2459 N.am    1  UNL1       -0.2825
     33 H         -30.4728   45.6107  -10.8558 H       1  UNL1        0.1549
     34 C         -30.9311   46.1761   -8.8458 C.ar    1  UNL1        0.0535
     35 C         -30.6344   47.1458   -7.8727 C.ar    1  UNL1        0.0353
     36 C         -30.8358   46.8503   -6.5219 C.ar    1  UNL1        0.1002
     37 N         -31.3019   45.6281   -6.1524 N.ar    1  UNL1       -0.2422
     38 C         -31.5797   44.6650   -7.0704 C.ar    1  UNL1        0.1002
     39 C         -31.3914   44.9187   -8.4311 C.ar    1  UNL1        0.0353
     40 C         -31.5828   48.5196  -13.1398 C.3     1  UNL1        0.0569
     41 C         -31.2432   48.4930  -14.6034 C.ar    1  UNL1       -0.0017
     42 C         -31.3538   49.5573  -15.4933 C.ar    1  UNL1        0.0681
     43 N         -31.0878   49.1486  -16.7547 N.ar    1  UNL1       -0.3523
     44 C         -30.8238   47.8332  -16.6721 C.ar    1  UNL1        0.0563
     45 C         -30.5393   46.9622  -17.7230 C.ar    1  UNL1        0.0170
     46 C         -30.3408   45.6041  -17.4165 C.ar    1  UNL1        0.0015
     47 C         -30.4390   45.1493  -16.0833 C.ar    1  UNL1        0.0001
     48 C         -30.7267   46.0510  -15.0423 C.ar    1  UNL1        0.0012
     49 C         -30.9112   47.3943  -15.3755 C.ar    1  UNL1        0.0131
     50 H         -31.1130   49.7337  -17.6193 H       1  UNL1        0.1660
@<TRIPOS>BOND
     1     5     6    1
     2     6     7   ar
     3     7    13    1
     4    13    14    1
     5    14    15    1
     6    15    16    1
     7    16    19    1
     8    19    20   ar
     9    20    21   ar
    10    21    22   ar
    11    22    25    1
    12    25    26    1
    13    25    27    1
    14    25    28    1
    15    22    23   ar
    16    23    24   ar
    17    16    17    1
    18    17    18    1
    19     7     8   ar
    20     8     9   ar
    21     9    10   ar
    22    10     1    1
    23     1     2    2
    24     1     3   am
    25     3    29    1
    26    29    40    1
    27    40    41    1
    28    41    42   ar
    29    42    43   ar
    30    43    44   ar
    31    44    45   ar
    32    45    46   ar
    33    46    47   ar
    34    47    48   ar
    35    48    49   ar
    36    29    30    1
    37    30    31    2
    38    30    32   am
    39    32    34    1
    40    34    35   ar
    41    35    36   ar
    42    36    37   ar
    43    37    38   ar
    44    38    39   ar
    45    10    11   ar
    46    11    12    1
    47    11     6   ar
    48    18    13    1
    49    49    41   ar
    50    39    34   ar
    51    24    19   ar
    52    49    44   ar
    53     3     4    1
    54    43    50    1
    55    32    33    1
@<TRIPOS>MOLECULE
*****
 50 55 0 0 0
SMALL
GASTEIGER

@<TRIPOS>ATOM
      1 C         -24.0893   50.9502  -10.8700 C.2     1  UNL1        0.2483
      2 O         -24.2950   50.7986  -12.1051 O.2     1  UNL1       -0.2701
      3 N         -24.8516   50.1847   -9.9207 N.am    1  UNL1       -0.2945
      4 H         -24.5899   50.2297   -8.9106 H       1  UNL1        0.1501
      5 C         -19.3203   52.4552  -10.3862 C.3     1  UNL1        0.0347
      6 C         -20.7915   52.7172  -10.1950 C.ar    1  UNL1        0.0191
      7 C         -21.2496   53.9588   -9.7016 C.ar    1  UNL1        0.0461
      8 C         -22.6225   54.1699   -9.5257 C.ar    1  UNL1        0.0145
      9 C         -23.5428   53.1825   -9.8732 C.ar    1  UNL1        0.0080
     10 C         -23.1088   51.9630  -10.4144 C.ar    1  UNL1        0.0805
     11 C         -21.7272   51.7317  -10.5631 C.ar    1  UNL1        0.1416
     12 F         -21.2913   50.5658  -11.1095 F       1  UNL1       -0.2043
     13 N         -20.3305   55.0205   -9.3950 N.pl3   1  UNL1       -0.3043
     14 C         -19.6377   55.0654   -8.1052 C.3     1  UNL1        0.1122
     15 C         -20.0723   56.3119   -7.3325 C.3     1  UNL1        0.1122
     16 N         -19.9998   57.4957   -8.2011 N.pl3   1  UNL1       -0.3041
     17 C         -20.6690   57.4401   -9.5085 C.3     1  UNL1        0.1122
     18 C         -20.2281   56.1899  -10.2709 C.3     1  UNL1        0.1122
     19 C         -19.5804   58.7596   -7.6530 C.ar    1  UNL1        0.0479
     20 C         -19.9051   59.1121   -6.3330 C.ar    1  UNL1        0.0145
     21 C         -19.4980   60.3420   -5.8083 C.ar    1  UNL1        0.0051
     22 C         -18.7447   61.2357   -6.5888 C.ar    1  UNL1        0.0715
     23 C         -18.4469   60.8938   -7.9189 C.ar    1  UNL1        0.0051
     24 C         -18.8534   59.6634   -8.4425 C.ar    1  UNL1        0.0145
     25 C         -18.3492   62.5832   -6.0394 C.3     1  UNL1        0.4186
     26 F         -17.1577   62.9785   -6.6181 F       1  UNL1       -0.1659
     27 F         -18.1856   62.5225   -4.6663 F       1  UNL1       -0.1659
     28 F         -19.3212   63.5288   -6.3173 F       1  UNL1       -0.1659
     29 C         -26.1855   49.6626  -10.2389 C.3     1  UNL1        0.1535
     30 C         -26.6148   48.6711   -9.1902 C.2     1  UNL1        0.2443
     31 O         -27.4470   47.7701   -9.4861 O.2     1  UNL1       -0.2730
     32 N         -26.0035   48.6954   -7.8903 N.am    1  UNL1       -0.2825
     33 H         -25.1076   49.2232   -7.7832 H       1  UNL1        0.1549
     34 C         -26.4856   47.9491   -6.7596 C.ar    1  UNL1        0.0535
     35 C         -25.7130   46.9394   -6.1605 C.ar    1  UNL1        0.0353
     36 C         -26.2338   46.2238   -5.0792 C.ar    1  UNL1        0.1002
     37 N         -27.4844   46.4938   -4.6204 N.ar    1  UNL1       -0.2422
     38 C         -28.2607   47.4520   -5.1921 C.ar    1  UNL1        0.1002
     39 C         -27.7790   48.1898   -6.2759 C.ar    1  UNL1        0.0353
     40 C         -27.2027   50.8143  -10.3219 C.3     1  UNL1        0.0569
     41 C         -27.4862   51.3938   -8.9646 C.ar    1  UNL1       -0.0017
     42 C         -26.5982   52.1227   -8.1793 C.ar    1  UNL1        0.0681
     43 N         -27.1393   52.3780   -6.9663 N.ar    1  UNL1       -0.3523
     44 C         -28.3553   51.8051   -6.9730 C.ar    1  UNL1        0.0563
     45 C         -29.2723   51.7599   -5.9238 C.ar    1  UNL1        0.0170
     46 C         -30.4748   51.0607   -6.1307 C.ar    1  UNL1        0.0015
     47 C         -30.7280   50.4213   -7.3640 C.ar    1  UNL1        0.0001
     48 C         -29.7846   50.4838   -8.4059 C.ar    1  UNL1        0.0012
     49 C         -28.6034   51.1915   -8.1744 C.ar    1  UNL1        0.0131
     50 H         -26.6881   52.8909   -6.1766 H       1  UNL1        0.1660
@<TRIPOS>BOND
     1     5     6    1
     2     6     7   ar
     3     7    13    1
     4    13    14    1
     5    14    15    1
     6    15    16    1
     7    16    19    1
     8    19    20   ar
     9    20    21   ar
    10    21    22   ar
    11    22    25    1
    12    25    26    1
    13    25    27    1
    14    25    28    1
    15    22    23   ar
    16    23    24   ar
    17    16    17    1
    18    17    18    1
    19     7     8   ar
    20     8     9   ar
    21     9    10   ar
    22    10     1    1
    23     1     2    2
    24     1     3   am
    25     3    29    1
    26    29    40    1
    27    40    41    1
    28    41    42   ar
    29    42    43   ar
    30    43    44   ar
    31    44    45   ar
    32    45    46   ar
    33    46    47   ar
    34    47    48   ar
    35    48    49   ar
    36    29    30    1
    37    30    31    2
    38    30    32   am
    39    32    34    1
    40    34    35   ar
    41    35    36   ar
    42    36    37   ar
    43    37    38   ar
    44    38    39   ar
    45    10    11   ar
    46    11    12    1
    47    11     6   ar
    48    18    13    1
    49    49    41   ar
    50    39    34   ar
    51    24    19   ar
    52    49    44   ar
    53     3     4    1
    54    43    50    1
    55    32    33    1
@<TRIPOS>MOLECULE
*****
 50 55 0 0 0
SMALL
GASTEIGER

@<TRIPOS>ATOM
      1 C         -25.8129   49.3078   -9.1602 C.2     1  UNL1        0.2483
      2 O         -26.5724   49.0279  -10.1274 O.2     1  UNL1       -0.2701
      3 N         -26.0745   48.7462   -7.8622 N.am    1  UNL1       -0.2945
      4 H         -25.3734   48.8876   -7.1012 H       1  UNL1        0.1501
      5 C         -23.3187   52.4888  -12.1438 C.3     1  UNL1        0.0347
      6 C         -23.4906   51.8329  -10.7985 C.ar    1  UNL1        0.0191
      7 C         -22.6838   52.2054   -9.7008 C.ar    1  UNL1        0.0461
      8 C         -22.8606   51.5716   -8.4650 C.ar    1  UNL1        0.0145
      9 C         -23.8532   50.6078   -8.2971 C.ar    1  UNL1        0.0080
     10 C         -24.6989   50.2631   -9.3622 C.ar    1  UNL1        0.0805
     11 C         -24.5048   50.8733  -10.6170 C.ar    1  UNL1        0.1416
     12 F         -25.3318   50.5694  -11.6522 F       1  UNL1       -0.2043
     13 N         -21.6950   53.2414   -9.8241 N.pl3   1  UNL1       -0.3043
     14 C         -20.4857   53.2279   -8.9976 C.3     1  UNL1        0.1122
     15 C         -20.4785   54.4510   -8.0790 C.3     1  UNL1        0.1122
     16 N         -20.7777   55.6652   -8.8519 N.pl3   1  UNL1       -0.3041
     17 C         -21.9745   55.6682   -9.7051 C.3     1  UNL1        0.1122
     18 C         -21.9715   54.4410  -10.6176 C.3     1  UNL1        0.1122
     19 C         -20.1152   56.9014   -8.5255 C.ar    1  UNL1        0.0479
     20 C         -19.5576   57.1019   -7.2523 C.ar    1  UNL1        0.0145
     21 C         -18.9191   58.3056   -6.9408 C.ar    1  UNL1        0.0051
     22 C         -18.8124   59.3254   -7.9019 C.ar    1  UNL1        0.0715
     23 C         -19.3975   59.1343   -9.1652 C.ar    1  UNL1        0.0051
     24 C         -20.0349   57.9300   -9.4763 C.ar    1  UNL1        0.0145
     25 C         -18.1684   60.6426   -7.5496 C.3     1  UNL1        0.4186
     26 F         -18.2232   60.8241   -6.1803 F       1  UNL1       -0.1659
     27 F         -18.8269   61.6902   -8.1702 F       1  UNL1       -0.1659
     28 F         -16.8449   60.6635   -7.9548 F       1  UNL1       -0.1659
     29 C         -27.4212   48.3282   -7.4559 C.3     1  UNL1        0.1535
     30 C         -27.3334   47.3158   -6.3448 C.2     1  UNL1        0.2443
     31 O         -27.6332   46.1115   -6.5722 O.2     1  UNL1       -0.2730
     32 N         -26.8172   47.7050   -5.0618 N.am    1  UNL1       -0.2825
     33 H         -26.2822   48.6012   -5.0035 H       1  UNL1        0.1549
     34 C         -26.8935   46.8875   -3.8813 C.ar    1  UNL1        0.0535
     35 C         -25.8717   45.9828   -3.5452 C.ar    1  UNL1        0.0353
     36 C         -26.0017   45.1911   -2.4012 C.ar    1  UNL1        0.1002
     37 N         -27.1154   45.2860   -1.6279 N.ar    1  UNL1       -0.2422
     38 C         -28.1272   46.1387   -1.9389 C.ar    1  UNL1        0.1002
     39 C         -28.0381   46.9474   -3.0744 C.ar    1  UNL1        0.0353
     40 C         -28.2407   49.5462   -6.9944 C.3     1  UNL1        0.0569
     41 C         -29.4386   49.7660   -7.8748 C.ar    1  UNL1       -0.0017
     42 C         -30.6575   49.1002   -7.7870 C.ar    1  UNL1        0.0681
     43 N         -31.4640   49.4529   -8.8138 N.ar    1  UNL1       -0.3523
     44 C         -30.7608   50.3246   -9.5571 C.ar    1  UNL1        0.0563
     45 C         -31.1581   50.9299  -10.7486 C.ar    1  UNL1        0.0170
     46 C         -30.2406   51.7788  -11.3931 C.ar    1  UNL1        0.0015
     47 C         -28.9575   51.9946  -10.8444 C.ar    1  UNL1        0.0001
     48 C         -28.5836   51.3710   -9.6399 C.ar    1  UNL1        0.0012
     49 C         -29.5179   50.5399   -9.0185 C.ar    1  UNL1        0.0131
     50 H         -32.4264   49.0950   -9.0036 H       1  UNL1        0.1660
@<TRIPOS>BOND
     1     5     6    1
     2     6     7   ar
     3     7    13    1
     4    13    14    1
     5    14    15    1
     6    15    16    1
     7    16    19    1
     8    19    20   ar
     9    20    21   ar
    10    21    22   ar
    11    22    25    1
    12    25    26    1
    13    25    27    1
    14    25    28    1
    15    22    23   ar
    16    23    24   ar
    17    16    17    1
    18    17    18    1
    19     7     8   ar
    20     8     9   ar
    21     9    10   ar
    22    10     1    1
    23     1     2    2
    24     1     3   am
    25     3    29    1
    26    29    40    1
    27    40    41    1
    28    41    42   ar
    29    42    43   ar
    30    43    44   ar
    31    44    45   ar
    32    45    46   ar
    33    46    47   ar
    34    47    48   ar
    35    48    49   ar
    36    29    30    1
    37    30    31    2
    38    30    32   am
    39    32    34    1
    40    34    35   ar
    41    35    36   ar
    42    36    37   ar
    43    37    38   ar
    44    38    39   ar
    45    10    11   ar
    46    11    12    1
    47    11     6   ar
    48    18    13    1
    49    49    41   ar
    50    39    34   ar
    51    24    19   ar
    52    49    44   ar
    53     3     4    1
    54    43    50    1
    55    32    33    1
@<TRIPOS>MOLECULE
*****
 50 55 0 0 0
SMALL
GASTEIGER

@<TRIPOS>ATOM
      1 C         -26.0751   49.3897   -9.2160 C.2     1  UNL1        0.2483
      2 O         -27.2089   49.8755   -8.9527 O.2     1  UNL1       -0.2701
      3 N         -25.9079   47.9626   -9.2794 N.am    1  UNL1       -0.2945
      4 H         -24.9976   47.5762   -9.6153 H       1  UNL1        0.1501
      5 C         -23.3506   52.4166  -12.1583 C.3     1  UNL1        0.0347
      6 C         -23.5970   51.7924  -10.8094 C.ar    1  UNL1        0.0191
      7 C         -22.8164   52.1531   -9.6891 C.ar    1  UNL1        0.0461
      8 C         -23.0627   51.5491   -8.4502 C.ar    1  UNL1        0.0145
      9 C         -24.0981   50.6279   -8.3030 C.ar    1  UNL1        0.0080
     10 C         -24.9176   50.2971   -9.3927 C.ar    1  UNL1        0.0805
     11 C         -24.6542   50.8764  -10.6495 C.ar    1  UNL1        0.1416
     12 F         -25.4545   50.5862  -11.7093 F       1  UNL1       -0.2043
     13 N         -21.7835   53.1474   -9.7931 N.pl3   1  UNL1       -0.3043
     14 C         -20.6268   53.1258   -8.8948 C.3     1  UNL1        0.1122
     15 C         -20.6278   54.3853   -8.0267 C.3     1  UNL1        0.1122
     16 N         -20.8346   55.5759   -8.8639 N.pl3   1  UNL1       -0.3041
     17 C         -21.9778   55.5854   -9.7877 C.3     1  UNL1        0.1122
     18 C         -21.9671   54.3217  -10.6489 C.3     1  UNL1        0.1122
     19 C         -20.1464   56.8005   -8.5471 C.ar    1  UNL1        0.0479
     20 C         -19.5187   56.9692   -7.3024 C.ar    1  UNL1        0.0145
     21 C         -18.8555   58.1618   -6.9998 C.ar    1  UNL1        0.0051
     22 C         -18.7941   59.2021   -7.9428 C.ar    1  UNL1        0.0715
     23 C         -19.4486   59.0428   -9.1760 C.ar    1  UNL1        0.0051
     24 C         -20.1107   57.8496   -9.4782 C.ar    1  UNL1        0.0145
     25 C         -18.1223   60.5073   -7.5974 C.3     1  UNL1        0.4186
     26 F         -18.1753   60.6983   -6.2293 F       1  UNL1       -0.1659
     27 F         -18.7571   61.5650   -8.2254 F       1  UNL1       -0.1659
     28 F         -16.7981   60.4972   -8.0005 F       1  UNL1       -0.1659
     29 C         -26.7894   47.0458   -8.5475 C.3     1  UNL1        0.1535
     30 C         -26.4955   47.1158   -7.0724 C.2     1  UNL1        0.2443
     31 O         -25.4198   46.6304   -6.6263 O.2     1  UNL1       -0.2730
     32 N         -27.3921   47.8187   -6.1972 N.am    1  UNL1       -0.2825
     33 H         -28.0811   48.4747   -6.6304 H       1  UNL1        0.1549
     34 C         -27.3262   47.7616   -4.7619 C.ar    1  UNL1        0.0535
     35 C         -26.7881   48.8180   -4.0071 C.ar    1  UNL1        0.0353
     36 C         -26.7221   48.7067   -2.6158 C.ar    1  UNL1        0.1002
     37 N         -27.1624   47.5782   -1.9994 N.ar    1  UNL1       -0.2422
     38 C         -27.6705   46.5337   -2.7053 C.ar    1  UNL1        0.1002
     39 C         -27.7534   46.6033   -4.0980 C.ar    1  UNL1        0.0353
     40 C         -28.2635   47.4023   -8.8078 C.3     1  UNL1        0.0569
     41 C         -28.7566   46.7923  -10.0897 C.ar    1  UNL1       -0.0017
     42 C         -28.3899   45.5530  -10.6056 C.ar    1  UNL1        0.0681
     43 N         -28.9225   45.3767  -11.8363 N.ar    1  UNL1       -0.3523
     44 C         -29.6107   46.4989  -12.1084 C.ar    1  UNL1        0.0563
     45 C         -30.2950   46.8046  -13.2839 C.ar    1  UNL1        0.0170
     46 C         -30.9113   48.0653  -13.3776 C.ar    1  UNL1        0.0015
     47 C         -30.8234   48.9861  -12.3106 C.ar    1  UNL1        0.0001
     48 C         -30.1266   48.6504  -11.1354 C.ar    1  UNL1        0.0012
     49 C         -29.5316   47.3890  -11.0678 C.ar    1  UNL1        0.0131
     50 H         -28.7970   44.5475  -12.4582 H       1  UNL1        0.1660
@<TRIPOS>BOND
     1     5     6    1
     2     6     7   ar
     3     7    13    1
     4    13    14    1
     5    14    15    1
     6    15    16    1
     7    16    19    1
     8    19    20   ar
     9    20    21   ar
    10    21    22   ar
    11    22    25    1
    12    25    26    1
    13    25    27    1
    14    25    28    1
    15    22    23   ar
    16    23    24   ar
    17    16    17    1
    18    17    18    1
    19     7     8   ar
    20     8     9   ar
    21     9    10   ar
    22    10     1    1
    23     1     2    2
    24     1     3   am
    25     3    29    1
    26    29    40    1
    27    40    41    1
    28    41    42   ar
    29    42    43   ar
    30    43    44   ar
    31    44    45   ar
    32    45    46   ar
    33    46    47   ar
    34    47    48   ar
    35    48    49   ar
    36    29    30    1
    37    30    31    2
    38    30    32   am
    39    32    34    1
    40    34    35   ar
    41    35    36   ar
    42    36    37   ar
    43    37    38   ar
    44    38    39   ar
    45    10    11   ar
    46    11    12    1
    47    11     6   ar
    48    18    13    1
    49    49    41   ar
    50    39    34   ar
    51    24    19   ar
    52    49    44   ar
    53     3     4    1
    54    43    50    1
    55    32    33    1
@<TRIPOS>MOLECULE
*****
 50 55 0 0 0
SMALL
GASTEIGER

@<TRIPOS>ATOM
      1 C         -20.3369   55.9937   -9.5924 C.2     1  UNL1        0.2483
      2 O         -19.5314   56.3174  -10.5073 O.2     1  UNL1       -0.2701
      3 N         -20.0959   56.4289   -8.2430 N.am    1  UNL1       -0.2945
      4 H         -20.8295   56.2578   -7.5195 H       1  UNL1        0.1501
      5 C         -22.1146   51.4584  -10.8227 C.3     1  UNL1        0.0347
      6 C         -22.3657   52.9056  -10.4873 C.ar    1  UNL1        0.0191
      7 C         -23.6811   53.4026  -10.3555 C.ar    1  UNL1        0.0461
      8 C         -23.8834   54.7544  -10.0521 C.ar    1  UNL1        0.0145
      9 C         -22.7993   55.6035   -9.8371 C.ar    1  UNL1        0.0080
     10 C         -21.4861   55.1151   -9.9117 C.ar    1  UNL1        0.0805
     11 C         -21.2753   53.7637  -10.2489 C.ar    1  UNL1        0.1416
     12 F         -20.0103   53.2686  -10.3002 F       1  UNL1       -0.2043
     13 N         -24.8198   52.5385  -10.5073 N.pl3   1  UNL1       -0.3043
     14 C         -25.9492   52.6138   -9.5776 C.3     1  UNL1        0.1122
     15 C         -26.0710   51.2960   -8.8106 C.3     1  UNL1        0.1122
     16 N         -26.0141   50.1612   -9.7435 N.pl3   1  UNL1       -0.3041
     17 C         -24.8974   50.1014  -10.6973 C.3     1  UNL1        0.1122
     18 C         -24.7847   51.4239  -11.4568 C.3     1  UNL1        0.1122
     19 C         -26.8277   48.9975   -9.5037 C.ar    1  UNL1        0.0479
     20 C         -26.2761   47.8441   -8.9228 C.ar    1  UNL1        0.0145
     21 C         -27.0704   46.7165   -8.6961 C.ar    1  UNL1        0.0051
     22 C         -28.4352   46.7271   -9.0314 C.ar    1  UNL1        0.0715
     23 C         -28.9780   47.8714   -9.6401 C.ar    1  UNL1        0.0051
     24 C         -28.1832   48.9989   -9.8656 C.ar    1  UNL1        0.0145
     25 C         -29.2799   45.4937   -8.8334 C.3     1  UNL1        0.4186
     26 F         -28.8612   44.5100   -9.7097 F       1  UNL1       -0.1659
     27 F         -30.6147   45.7718   -9.0719 F       1  UNL1       -0.1659
     28 F         -29.1615   45.0230   -7.5370 F       1  UNL1       -0.1659
     29 C         -18.7467   56.7439   -7.7597 C.3     1  UNL1        0.1535
     30 C         -18.7735   58.0096   -6.9446 C.2     1  UNL1        0.2443
     31 O         -18.3362   57.9997   -5.7612 O.2     1  UNL1       -0.2730
     32 N         -19.2043   59.2400   -7.5485 N.am    1  UNL1       -0.2825
     33 H         -19.2438   59.2826   -8.5922 H       1  UNL1        0.1549
     34 C         -19.4754   60.4460   -6.8139 C.ar    1  UNL1        0.0535
     35 C         -19.2426   61.7153   -7.3707 C.ar    1  UNL1        0.0353
     36 C         -19.4974   62.8588   -6.6093 C.ar    1  UNL1        0.1002
     37 N         -19.9538   62.7425   -5.3343 N.ar    1  UNL1       -0.2422
     38 C         -20.1703   61.5279   -4.7639 C.ar    1  UNL1        0.1002
     39 C         -19.9271   60.3595   -5.4898 C.ar    1  UNL1        0.0353
     40 C         -18.2002   55.5827   -6.9105 C.3     1  UNL1        0.0569
     41 C         -18.9015   54.2926   -7.2303 C.ar    1  UNL1       -0.0017
     42 C         -20.1686   53.9152   -6.7959 C.ar    1  UNL1        0.0681
     43 N         -20.4341   52.6408   -7.1626 N.ar    1  UNL1       -0.3523
     44 C         -19.3411   52.2050   -7.8125 C.ar    1  UNL1        0.0563
     45 C         -19.1239   50.9321   -8.3383 C.ar    1  UNL1        0.0170
     46 C         -17.8798   50.6726   -8.9405 C.ar    1  UNL1        0.0015
     47 C         -16.8878   51.6761   -8.9953 C.ar    1  UNL1        0.0001
     48 C         -17.1348   52.9523   -8.4570 C.ar    1  UNL1        0.0012
     49 C         -18.3816   53.1832   -7.8725 C.ar    1  UNL1        0.0131
     50 H         -21.3021   52.0990   -6.9547 H       1  UNL1        0.1660
@<TRIPOS>BOND
     1     5     6    1
     2     6     7   ar
     3     7    13    1
     4    13    14    1
     5    14    15    1
     6    15    16    1
     7    16    19    1
     8    19    20   ar
     9    20    21   ar
    10    21    22   ar
    11    22    25    1
    12    25    26    1
    13    25    27    1
    14    25    28    1
    15    22    23   ar
    16    23    24   ar
    17    16    17    1
    18    17    18    1
    19     7     8   ar
    20     8     9   ar
    21     9    10   ar
    22    10     1    1
    23     1     2    2
    24     1     3   am
    25     3    29    1
    26    29    40    1
    27    40    41    1
    28    41    42   ar
    29    42    43   ar
    30    43    44   ar
    31    44    45   ar
    32    45    46   ar
    33    46    47   ar
    34    47    48   ar
    35    48    49   ar
    36    29    30    1
    37    30    31    2
    38    30    32   am
    39    32    34    1
    40    34    35   ar
    41    35    36   ar
    42    36    37   ar
    43    37    38   ar
    44    38    39   ar
    45    10    11   ar
    46    11    12    1
    47    11     6   ar
    48    18    13    1
    49    49    41   ar
    50    39    34   ar
    51    24    19   ar
    52    49    44   ar
    53     3     4    1
    54    43    50    1
    55    32    33    1
@<TRIPOS>MOLECULE
*****
 50 55 0 0 0
SMALL
GASTEIGER

@<TRIPOS>ATOM
      1 C         -24.8061   49.9852   -9.4500 C.2     1  UNL1        0.2483
      2 O         -25.4614   49.7582  -10.5034 O.2     1  UNL1       -0.2701
      3 N         -25.1876   49.3440   -8.2204 N.am    1  UNL1       -0.2945
      4 H         -24.5678   49.4448   -7.3859 H       1  UNL1        0.1501
      5 C         -22.1699   53.4743  -11.9236 C.3     1  UNL1        0.0347
      6 C         -22.4148   52.6780  -10.6685 C.ar    1  UNL1        0.0191
      7 C         -21.6779   52.9336   -9.4910 C.ar    1  UNL1        0.0461
      8 C         -21.9215   52.1709   -8.3425 C.ar    1  UNL1        0.0145
      9 C         -22.9132   51.1916   -8.3378 C.ar    1  UNL1        0.0080
     10 C         -23.6911   50.9601   -9.4822 C.ar    1  UNL1        0.0805
     11 C         -23.4289   51.7014  -10.6511 C.ar    1  UNL1        0.1416
     12 F         -24.1903   51.5072  -11.7604 F       1  UNL1       -0.2043
     13 N         -20.6934   53.9799   -9.4440 N.pl3   1  UNL1       -0.3043
     14 C         -19.8198   54.1376   -8.2789 C.3     1  UNL1        0.1122
     15 C         -20.1012   55.4817   -7.6050 C.3     1  UNL1        0.1122
     16 N         -20.1208   56.5558   -8.6085 N.pl3   1  UNL1       -0.3041
     17 C         -20.9739   56.3843   -9.7930 C.3     1  UNL1        0.1122
     18 C         -20.6850   55.0374  -10.4573 C.3     1  UNL1        0.1122
     19 C         -19.5895   57.8527   -8.2776 C.ar    1  UNL1        0.0479
     20 C         -19.0043   58.0893   -7.0232 C.ar    1  UNL1        0.0145
     21 C         -18.4938   59.3515   -6.7070 C.ar    1  UNL1        0.0051
     22 C         -18.5446   60.3964   -7.6455 C.ar    1  UNL1        0.0715
     23 C         -19.1578   60.1658   -8.8888 C.ar    1  UNL1        0.0051
     24 C         -19.6671   58.9032   -9.2045 C.ar    1  UNL1        0.0145
     25 C         -18.0398   61.7711   -7.2860 C.3     1  UNL1        0.4186
     26 F         -16.6894   61.8490   -7.5713 F       1  UNL1       -0.1659
     27 F         -18.2316   62.0256   -5.9389 F       1  UNL1       -0.1659
     28 F         -18.7103   62.7427   -8.0090 F       1  UNL1       -0.1659
     29 C         -26.5619   48.8912   -7.9767 C.3     1  UNL1        0.1535
     30 C         -27.5405   49.8923   -8.5309 C.2     1  UNL1        0.2443
     31 O         -27.8181   50.9281   -7.8661 O.2     1  UNL1       -0.2730
     32 N         -28.0767   49.7127   -9.8516 N.am    1  UNL1       -0.2825
     33 H         -27.5887   49.0426  -10.4884 H       1  UNL1        0.1549
     34 C         -29.1705   50.4770  -10.3875 C.ar    1  UNL1        0.0535
     35 C         -30.5051   50.0696  -10.2200 C.ar    1  UNL1        0.0353
     36 C         -31.5334   50.8317  -10.7805 C.ar    1  UNL1        0.1002
     37 N         -31.2426   51.9511  -11.4945 N.ar    1  UNL1       -0.2422
     38 C         -29.9604   52.3586  -11.6880 C.ar    1  UNL1        0.1002
     39 C         -28.9025   51.6250  -11.1459 C.ar    1  UNL1        0.0353
     40 C         -26.7927   47.5151   -8.6257 C.3     1  UNL1        0.0569
     41 C         -28.1810   47.0075   -8.3551 C.ar    1  UNL1       -0.0017
     42 C         -28.7314   46.7434   -7.1045 C.ar    1  UNL1        0.0681
     43 N         -29.9528   46.1777   -7.2352 N.ar    1  UNL1       -0.3523
     44 C         -30.1734   46.0691   -8.5567 C.ar    1  UNL1        0.0563
     45 C         -31.2820   45.5014   -9.1831 C.ar    1  UNL1        0.0170
     46 C         -31.2874   45.4466  -10.5884 C.ar    1  UNL1        0.0015
     47 C         -30.1933   45.9459  -11.3284 C.ar    1  UNL1        0.0001
     48 C         -29.0876   46.5142  -10.6697 C.ar    1  UNL1        0.0012
     49 C         -29.1136   46.5621   -9.2745 C.ar    1  UNL1        0.0131
     50 H         -30.5813   45.8629   -6.4630 H       1  UNL1        0.1660
@<TRIPOS>BOND
     1     5     6    1
     2     6     7   ar
     3     7    13    1
     4    13    14    1
     5    14    15    1
     6    15    16    1
     7    16    19    1
     8    19    20   ar
     9    20    21   ar
    10    21    22   ar
    11    22    25    1
    12    25    26    1
    13    25    27    1
    14    25    28    1
    15    22    23   ar
    16    23    24   ar
    17    16    17    1
    18    17    18    1
    19     7     8   ar
    20     8     9   ar
    21     9    10   ar
    22    10     1    1
    23     1     2    2
    24     1     3   am
    25     3    29    1
    26    29    40    1
    27    40    41    1
    28    41    42   ar
    29    42    43   ar
    30    43    44   ar
    31    44    45   ar
    32    45    46   ar
    33    46    47   ar
    34    47    48   ar
    35    48    49   ar
    36    29    30    1
    37    30    31    2
    38    30    32   am
    39    32    34    1
    40    34    35   ar
    41    35    36   ar
    42    36    37   ar
    43    37    38   ar
    44    38    39   ar
    45    10    11   ar
    46    11    12    1
    47    11     6   ar
    48    18    13    1
    49    49    41   ar
    50    39    34   ar
    51    24    19   ar
    52    49    44   ar
    53     3     4    1
    54    43    50    1
    55    32    33    1
