@<TRIPOS>MOLECULE
*****
 47 53 0 0 0
SMALL
GASTEIGER

@<TRIPOS>ATOM
      1 N          61.6229   81.4217   11.3169 N.am    1  UNL1       -0.0905
      2 C          61.6622   80.2467   10.5996 C.2     1  UNL1        0.4229
      3 O          61.6018   80.2566    9.3383 O.2     1  UNL1       -0.2135
      4 C          61.7247   79.0152   11.2480 C.2     1  UNL1        0.1157
      5 C          61.6750   78.9645   12.6311 C.2     1  UNL1        0.0173
      6 C          61.6625   80.1477   13.3692 C.ar    1  UNL1        0.0828
      7 C          61.5474   80.0964   14.7617 C.ar    1  UNL1        0.1047
      8 N          61.5512   81.2369   15.4894 N.ar    1  UNL1       -0.2434
      9 C          61.7375   82.4526   14.9190 C.ar    1  UNL1        0.0870
     10 C          61.8057   83.5817   15.7408 C.ar    1  UNL1        0.0193
     11 C          62.1224   84.8274   15.2032 C.ar    1  UNL1        0.0016
     12 C          62.4308   84.9517   13.8410 C.ar    1  UNL1        0.0018
     13 C          62.3628   83.8127   13.0187 C.ar    1  UNL1        0.0075
     14 C          61.9186   82.5680   13.5163 C.ar    1  UNL1        0.0810
     15 C          61.7449   81.3992   12.7023 C.ar    1  UNL1        0.2297
     16 C          62.8205   86.2664   13.2663 C.ar    1  UNL1        0.0192
     17 C          63.4896   87.2150   14.0571 C.ar    1  UNL1        0.0989
     18 N          63.8558   88.4150   13.5379 N.ar    1  UNL1       -0.2408
     19 C          63.5936   88.7518   12.2479 C.ar    1  UNL1        0.1151
     20 C          63.9941   90.0031   11.7542 C.ar    1  UNL1        0.1562
     21 C          63.7108   90.3348   10.4146 C.ar    1  UNL1        0.0385
     22 C          63.0403   89.4284    9.5877 C.ar    1  UNL1        0.0032
     23 C          62.6448   88.1827   10.0802 C.ar    1  UNL1        0.0017
     24 C          62.9195   87.8362   11.4099 C.ar    1  UNL1        0.0207
     25 C          62.5358   86.5920   11.9292 C.ar    1  UNL1        0.0031
     26 O          64.6672   90.8835   12.6171 O.3     1  UNL1       -0.4699
     27 C          66.0573   91.1811   12.5418 C.3     1  UNL1        0.2525
     28 C          60.3649   84.8854    9.1766 C.ar    1  UNL1        0.0522
     29 C          59.5305   84.2956   10.1374 C.ar    1  UNL1        0.0206
     30 C          59.9506   83.1723   10.8488 C.ar    1  UNL1        0.0703
     31 C          61.2087   82.6085   10.6018 C.ar    1  UNL1        0.2271
     32 C          62.0453   83.1870    9.6332 C.ar    1  UNL1        0.0742
     33 C          61.6559   84.3509    8.9424 C.ar    1  UNL1        0.0906
     34 C          58.7310   89.3627    6.1514 C.2     1  UNL1        0.2257
     35 O          59.4263   90.4142    6.0895 O.2     1  UNL1       -0.2749
     36 N          59.2399   88.2138    6.8571 N.am    1  UNL1       -0.2760
     37 C          59.1061   86.8664    6.2837 C.3     1  UNL1        0.1148
     38 C          58.8892   85.8402    7.3956 C.3     1  UNL1        0.1123
     39 N          59.8917   86.0287    8.4462 N.pl3   1  UNL1       -0.3041
     40 C          60.0205   87.3660    9.0316 C.3     1  UNL1        0.1123
     41 C          60.2280   88.4043    7.9273 C.3     1  UNL1        0.1148
     42 C          56.9119   90.7026    5.0411 C.3     1  UNL1        0.0101
     43 C          57.3969   89.3141    5.4529 C.3     1  UNL1        0.0853
     44 C          62.6043   84.9873    7.9473 C.3     1  UNL1        0.4199
     45 F          62.8200   86.3160    8.2655 F       1  UNL1       -0.1658
     46 F          62.0671   84.9036    6.6770 F       1  UNL1       -0.1658
     47 F          63.8337   84.3503    7.9485 F       1  UNL1       -0.1658
@<TRIPOS>BOND
     1    42    43    1
     2    43    34    1
     3    34    35    2
     4    34    36   am
     5    36    37    1
     6    37    38    1
     7    38    39    1
     8    39    28    1
     9    28    29   ar
    10    29    30   ar
    11    30    31   ar
    12    31     1    1
    13     1     2    1
    14     2     3    2
    15     2     4    1
    16     4     5    2
    17     5     6    1
    18     6     7   ar
    19     7     8   ar
    20     8     9   ar
    21     9    10   ar
    22    10    11   ar
    23    11    12   ar
    24    12    16    1
    25    16    17   ar
    26    17    18   ar
    27    18    19   ar
    28    19    20   ar
    29    20    26    1
    30    26    27    1
    31    20    21   ar
    32    21    22   ar
    33    22    23   ar
    34    23    24   ar
    35    24    25   ar
    36    12    13   ar
    37    13    14   ar
    38    14    15   ar
    39    31    32   ar
    40    32    33   ar
    41    33    44    1
    42    44    45    1
    43    44    46    1
    44    44    47    1
    45    39    40    1
    46    40    41    1
    47    41    36    1
    48    33    28   ar
    49    15     1    1
    50    15     6   ar
    51    14     9   ar
    52    25    16   ar
    53    24    19   ar
@<TRIPOS>MOLECULE
*****
 47 53 0 0 0
SMALL
GASTEIGER

@<TRIPOS>ATOM
      1 N          63.3762   86.6035   13.6666 N.am    1  UNL1       -0.0905
      2 C          64.2022   86.5580   14.7677 C.2     1  UNL1        0.4229
      3 O          64.4667   85.4602   15.3329 O.2     1  UNL1       -0.2135
      4 C          64.7310   87.7258   15.3132 C.2     1  UNL1        0.1157
      5 C          64.3672   88.9546   14.7882 C.2     1  UNL1        0.0173
      6 C          63.5535   89.0129   13.6570 C.ar    1  UNL1        0.0828
      7 C          63.1344   90.2532   13.1662 C.ar    1  UNL1        0.1047
      8 N          62.3590   90.3227   12.0598 N.ar    1  UNL1       -0.2434
      9 C          62.0213   89.2191   11.3483 C.ar    1  UNL1        0.0870
     10 C          61.2805   89.3730   10.1726 C.ar    1  UNL1        0.0193
     11 C          61.0254   88.2771    9.3511 C.ar    1  UNL1        0.0016
     12 C          61.5564   87.0183    9.6665 C.ar    1  UNL1        0.0018
     13 C          62.3025   86.8687   10.8493 C.ar    1  UNL1        0.0075
     14 C          62.4635   87.9353   11.7608 C.ar    1  UNL1        0.0810
     15 C          63.1371   87.8125   13.0218 C.ar    1  UNL1        0.2297
     16 C          61.3341   85.8528    8.7705 C.ar    1  UNL1        0.0192
     17 C          60.1630   85.0855    8.8835 C.ar    1  UNL1        0.0989
     18 N          59.9486   84.0243    8.0642 N.ar    1  UNL1       -0.2408
     19 C          60.8452   83.6571    7.1115 C.ar    1  UNL1        0.1151
     20 C          60.5792   82.5541    6.2853 C.ar    1  UNL1        0.1562
     21 C          61.5225   82.1878    5.3051 C.ar    1  UNL1        0.0385
     22 C          62.7077   82.9144    5.1570 C.ar    1  UNL1        0.0032
     23 C          62.9695   84.0133    5.9785 C.ar    1  UNL1        0.0017
     24 C          62.0416   84.3921    6.9579 C.ar    1  UNL1        0.0207
     25 C          62.2781   85.4918    7.7942 C.ar    1  UNL1        0.0031
     26 O          59.3758   81.8527    6.4654 O.3     1  UNL1       -0.4699
     27 C          59.1911   80.7946    7.3998 C.3     1  UNL1        0.2525
     28 C          61.1171   83.0767   12.8799 C.ar    1  UNL1        0.0522
     29 C          60.7925   83.9080   13.9619 C.ar    1  UNL1        0.0206
     30 C          61.5222   85.0706   14.2078 C.ar    1  UNL1        0.0703
     31 C          62.6008   85.4160   13.3838 C.ar    1  UNL1        0.2271
     32 C          62.9389   84.5825   12.3050 C.ar    1  UNL1        0.0742
     33 C          62.1806   83.4320   12.0138 C.ar    1  UNL1        0.0906
     34 C          58.2516   78.3338   11.8025 C.2     1  UNL1        0.2257
     35 O          57.4534   78.2446   10.8289 O.2     1  UNL1       -0.2749
     36 N          59.0316   79.5332   11.9754 N.am    1  UNL1       -0.2760
     37 C          60.4566   79.4520   12.3288 C.3     1  UNL1        0.1148
     38 C          60.8397   80.6164   13.2422 C.3     1  UNL1        0.1123
     39 N          60.3585   81.8749   12.6687 N.pl3   1  UNL1       -0.3041
     40 C          58.9363   81.9671   12.3272 C.3     1  UNL1        0.1123
     41 C          58.5378   80.8008   11.4209 C.3     1  UNL1        0.1148
     42 C          58.7175   77.6185   14.1707 C.3     1  UNL1        0.0101
     43 C          58.4037   77.1685   12.7452 C.3     1  UNL1        0.0853
     44 C          62.5318   82.5855   10.8078 C.3     1  UNL1        0.4199
     45 F          63.1655   81.4208   11.2017 F       1  UNL1       -0.1658
     46 F          63.3673   83.2983    9.9692 F       1  UNL1       -0.1658
     47 F          61.3976   82.2274   10.0990 F       1  UNL1       -0.1658
@<TRIPOS>BOND
     1    42    43    1
     2    43    34    1
     3    34    35    2
     4    34    36   am
     5    36    37    1
     6    37    38    1
     7    38    39    1
     8    39    28    1
     9    28    29   ar
    10    29    30   ar
    11    30    31   ar
    12    31     1    1
    13     1     2    1
    14     2     3    2
    15     2     4    1
    16     4     5    2
    17     5     6    1
    18     6     7   ar
    19     7     8   ar
    20     8     9   ar
    21     9    10   ar
    22    10    11   ar
    23    11    12   ar
    24    12    16    1
    25    16    17   ar
    26    17    18   ar
    27    18    19   ar
    28    19    20   ar
    29    20    26    1
    30    26    27    1
    31    20    21   ar
    32    21    22   ar
    33    22    23   ar
    34    23    24   ar
    35    24    25   ar
    36    12    13   ar
    37    13    14   ar
    38    14    15   ar
    39    31    32   ar
    40    32    33   ar
    41    33    44    1
    42    44    45    1
    43    44    46    1
    44    44    47    1
    45    39    40    1
    46    40    41    1
    47    41    36    1
    48    33    28   ar
    49    15     1    1
    50    15     6   ar
    51    14     9   ar
    52    25    16   ar
    53    24    19   ar
@<TRIPOS>MOLECULE
*****
 47 53 0 0 0
SMALL
GASTEIGER

@<TRIPOS>ATOM
      1 N          59.4373   80.5422   12.8629 N.am    1  UNL1       -0.0905
      2 C          58.7824   79.8870   13.8821 C.2     1  UNL1        0.4229
      3 O          58.4401   80.5013   14.9309 O.2     1  UNL1       -0.2135
      4 C          58.5205   78.5211   13.8015 C.2     1  UNL1        0.1157
      5 C          58.9856   77.7958   12.7172 C.2     1  UNL1        0.0173
      6 C          59.6260   78.4520   11.6663 C.ar    1  UNL1        0.0828
      7 C          60.1519   77.7118   10.6031 C.ar    1  UNL1        0.1047
      8 N          60.7602   78.3387    9.5700 N.ar    1  UNL1       -0.2434
      9 C          60.8207   79.6904    9.4848 C.ar    1  UNL1        0.0870
     10 C          61.3979   80.2713    8.3515 C.ar    1  UNL1        0.0193
     11 C          61.3630   81.6524    8.1714 C.ar    1  UNL1        0.0016
     12 C          60.6995   82.4696    9.0977 C.ar    1  UNL1        0.0018
     13 C          60.1188   81.8805   10.2352 C.ar    1  UNL1        0.0075
     14 C          60.2544   80.5005   10.5030 C.ar    1  UNL1        0.0810
     15 C          59.7601   79.8659   11.6912 C.ar    1  UNL1        0.2297
     16 C          60.6111   83.9391    8.8894 C.ar    1  UNL1        0.0192
     17 C          59.6460   84.4748    8.0209 C.ar    1  UNL1        0.0989
     18 N          59.5535   85.8160    7.8309 N.ar    1  UNL1       -0.2408
     19 C          60.3804   86.6913    8.4605 C.ar    1  UNL1        0.1151
     20 C          60.2455   88.0701    8.2352 C.ar    1  UNL1        0.1562
     21 C          61.1140   88.9614    8.8955 C.ar    1  UNL1        0.0385
     22 C          62.0969   88.4783    9.7647 C.ar    1  UNL1        0.0032
     23 C          62.2279   87.1061    9.9895 C.ar    1  UNL1        0.0017
     24 C          61.3716   86.2056    9.3417 C.ar    1  UNL1        0.0207
     25 C          61.4798   84.8238    9.5508 C.ar    1  UNL1        0.0031
     26 O          59.2438   88.5139    7.3564 O.3     1  UNL1       -0.4699
     27 C          59.4586   88.8398    5.9873 C.3     1  UNL1        0.2525
     28 C          61.0097   84.3857   13.8200 C.ar    1  UNL1        0.0522
     29 C          61.7216   83.2209   14.1417 C.ar    1  UNL1        0.0206
     30 C          61.2135   81.9647   13.8127 C.ar    1  UNL1        0.0703
     31 C          59.9754   81.8494   13.1681 C.ar    1  UNL1        0.2271
     32 C          59.2514   83.0110   12.8527 C.ar    1  UNL1        0.0742
     33 C          59.7743   84.2883   13.1332 C.ar    1  UNL1        0.0906
     34 C          63.3050   89.2738   15.4646 C.2     1  UNL1        0.2257
     35 O          63.2445   89.6685   16.6620 O.2     1  UNL1       -0.2749
     36 N          62.7893   87.9738   15.1171 N.am    1  UNL1       -0.2760
     37 C          63.5420   87.0893   14.2153 C.3     1  UNL1        0.1148
     38 C          62.5789   86.2771   13.3495 C.3     1  UNL1        0.1123
     39 N          61.5520   85.6627   14.1936 N.pl3   1  UNL1       -0.3041
     40 C          60.7887   86.5409   15.0845 C.3     1  UNL1        0.1123
     41 C          61.7421   87.3671   15.9499 C.3     1  UNL1        0.1148
     42 C          65.3881   90.5177   14.7932 C.3     1  UNL1        0.0101
     43 C          63.9508   90.1537   14.4260 C.3     1  UNL1        0.0853
     44 C          58.9985   85.5241   12.7266 C.3     1  UNL1        0.4199
     45 F          58.4208   86.1192   13.8335 F       1  UNL1       -0.1658
     46 F          58.0088   85.1746   11.8278 F       1  UNL1       -0.1658
     47 F          59.8248   86.4609   12.1294 F       1  UNL1       -0.1658
@<TRIPOS>BOND
     1    42    43    1
     2    43    34    1
     3    34    35    2
     4    34    36   am
     5    36    37    1
     6    37    38    1
     7    38    39    1
     8    39    28    1
     9    28    29   ar
    10    29    30   ar
    11    30    31   ar
    12    31     1    1
    13     1     2    1
    14     2     3    2
    15     2     4    1
    16     4     5    2
    17     5     6    1
    18     6     7   ar
    19     7     8   ar
    20     8     9   ar
    21     9    10   ar
    22    10    11   ar
    23    11    12   ar
    24    12    16    1
    25    16    17   ar
    26    17    18   ar
    27    18    19   ar
    28    19    20   ar
    29    20    26    1
    30    26    27    1
    31    20    21   ar
    32    21    22   ar
    33    22    23   ar
    34    23    24   ar
    35    24    25   ar
    36    12    13   ar
    37    13    14   ar
    38    14    15   ar
    39    31    32   ar
    40    32    33   ar
    41    33    44    1
    42    44    45    1
    43    44    46    1
    44    44    47    1
    45    39    40    1
    46    40    41    1
    47    41    36    1
    48    33    28   ar
    49    15     1    1
    50    15     6   ar
    51    14     9   ar
    52    25    16   ar
    53    24    19   ar
@<TRIPOS>MOLECULE
*****
 47 53 0 0 0
SMALL
GASTEIGER

@<TRIPOS>ATOM
      1 N          63.4702   89.4777   10.6233 N.am    1  UNL1       -0.0905
      2 C          63.7461   90.4721    9.7112 C.2     1  UNL1        0.4229
      3 O          63.1819   90.4882    8.5816 O.2     1  UNL1       -0.2135
      4 C          64.6871   91.4599    9.9935 C.2     1  UNL1        0.1157
      5 C          65.4073   91.4040   11.1751 C.2     1  UNL1        0.0173
      6 C          65.1184   90.4182   12.1184 C.ar    1  UNL1        0.0828
      7 C          65.8885   90.3231   13.2815 C.ar    1  UNL1        0.1047
      8 N          65.6068   89.3817   14.2114 N.ar    1  UNL1       -0.2434
      9 C          64.5406   88.5525   14.0945 C.ar    1  UNL1        0.0870
     10 C          64.2656   87.6545   15.1303 C.ar    1  UNL1        0.0193
     11 C          63.1089   86.8785   15.1026 C.ar    1  UNL1        0.0016
     12 C          62.1803   87.0305   14.0630 C.ar    1  UNL1        0.0018
     13 C          62.4603   87.9364   13.0244 C.ar    1  UNL1        0.0075
     14 C          63.6851   88.6369   12.9654 C.ar    1  UNL1        0.0810
     15 C          64.0581   89.5027   11.8836 C.ar    1  UNL1        0.2297
     16 C          60.9179   86.2452   14.0499 C.ar    1  UNL1        0.0192
     17 C          60.9560   84.8417   14.0932 C.ar    1  UNL1        0.0989
     18 N          59.8077   84.1173   14.0893 N.ar    1  UNL1       -0.2408
     19 C          58.5844   84.7068   14.0410 C.ar    1  UNL1        0.1151
     20 C          57.4243   83.9167   14.0419 C.ar    1  UNL1        0.1562
     21 C          56.1652   84.5466   13.9888 C.ar    1  UNL1        0.0385
     22 C          56.0730   85.9407   13.9369 C.ar    1  UNL1        0.0032
     23 C          57.2285   86.7253   13.9386 C.ar    1  UNL1        0.0017
     24 C          58.4889   86.1151   13.9921 C.ar    1  UNL1        0.0207
     25 C          59.6645   86.8785   13.9972 C.ar    1  UNL1        0.0031
     26 O          57.5608   82.5200   14.0973 O.3     1  UNL1       -0.4699
     27 C          58.1303   81.7237   13.0637 C.3     1  UNL1        0.2525
     28 C          61.3819   86.0376    9.2213 C.ar    1  UNL1        0.0522
     29 C          60.6916   87.0931    9.8348 C.ar    1  UNL1        0.0206
     30 C          61.3743   88.2254   10.2778 C.ar    1  UNL1        0.0703
     31 C          62.7639   88.3168   10.1284 C.ar    1  UNL1        0.2271
     32 C          63.4635   87.2589    9.5250 C.ar    1  UNL1        0.0742
     33 C          62.7822   86.1312    9.0273 C.ar    1  UNL1        0.0906
     34 C          58.7453   81.3400    7.5337 C.2     1  UNL1        0.2257
     35 O          58.9858   80.8065    6.4154 O.2     1  UNL1       -0.2749
     36 N          59.5159   82.4815    7.9578 N.am    1  UNL1       -0.2760
     37 C          60.0129   82.5749    9.3386 C.3     1  UNL1        0.1148
     38 C          60.0050   84.0311    9.8036 C.3     1  UNL1        0.1123
     39 N          60.6503   84.8762    8.7968 N.pl3   1  UNL1       -0.3041
     40 C          60.1504   84.7981    7.4214 C.3     1  UNL1        0.1123
     41 C          60.1438   83.3435    6.9474 C.3     1  UNL1        0.1148
     42 C          58.2781   79.9617    9.5878 C.3     1  UNL1        0.0101
     43 C          57.6820   80.7497    8.4231 C.3     1  UNL1        0.0853
     44 C          63.5565   85.0337    8.3268 C.3     1  UNL1        0.4199
     45 F          63.6172   83.9021    9.1199 F       1  UNL1       -0.1658
     46 F          64.8391   85.4715    8.0574 F       1  UNL1       -0.1658
     47 F          62.9526   84.6778    7.1328 F       1  UNL1       -0.1658
@<TRIPOS>BOND
     1    42    43    1
     2    43    34    1
     3    34    35    2
     4    34    36   am
     5    36    37    1
     6    37    38    1
     7    38    39    1
     8    39    28    1
     9    28    29   ar
    10    29    30   ar
    11    30    31   ar
    12    31     1    1
    13     1     2    1
    14     2     3    2
    15     2     4    1
    16     4     5    2
    17     5     6    1
    18     6     7   ar
    19     7     8   ar
    20     8     9   ar
    21     9    10   ar
    22    10    11   ar
    23    11    12   ar
    24    12    16    1
    25    16    17   ar
    26    17    18   ar
    27    18    19   ar
    28    19    20   ar
    29    20    26    1
    30    26    27    1
    31    20    21   ar
    32    21    22   ar
    33    22    23   ar
    34    23    24   ar
    35    24    25   ar
    36    12    13   ar
    37    13    14   ar
    38    14    15   ar
    39    31    32   ar
    40    32    33   ar
    41    33    44    1
    42    44    45    1
    43    44    46    1
    44    44    47    1
    45    39    40    1
    46    40    41    1
    47    41    36    1
    48    33    28   ar
    49    15     1    1
    50    15     6   ar
    51    14     9   ar
    52    25    16   ar
    53    24    19   ar
@<TRIPOS>MOLECULE
*****
 47 53 0 0 0
SMALL
GASTEIGER

@<TRIPOS>ATOM
      1 N          63.5043   86.6340   13.6631 N.am    1  UNL1       -0.0905
      2 C          64.4201   86.6566   14.6915 C.2     1  UNL1        0.4229
      3 O          64.8114   85.5849   15.2328 O.2     1  UNL1       -0.2135
      4 C          64.9044   87.8637   15.1908 C.2     1  UNL1        0.1157
      5 C          64.4080   89.0590   14.6978 C.2     1  UNL1        0.0173
      6 C          63.5010   89.0498   13.6384 C.ar    1  UNL1        0.0828
      7 C          62.9517   90.2526   13.1842 C.ar    1  UNL1        0.1047
      8 N          62.0838   90.2576   12.1463 N.ar    1  UNL1       -0.2434
      9 C          61.7709   89.1276   11.4657 C.ar    1  UNL1        0.0870
     10 C          60.9255   89.2190   10.3558 C.ar    1  UNL1        0.0193
     11 C          60.6848   88.1020    9.5586 C.ar    1  UNL1        0.0016
     12 C          61.3322   86.8879    9.8288 C.ar    1  UNL1        0.0018
     13 C          62.1832   86.8014   10.9452 C.ar    1  UNL1        0.0075
     14 C          62.3399   87.8826   11.8400 C.ar    1  UNL1        0.0810
     15 C          63.1233   87.8180   13.0404 C.ar    1  UNL1        0.2297
     16 C          61.1231   85.7035    8.9546 C.ar    1  UNL1        0.0192
     17 C          61.8713   85.5522    7.7756 C.ar    1  UNL1        0.0989
     18 N          61.6921   84.4699    6.9757 N.ar    1  UNL1       -0.2408
     19 C          60.7911   83.4968    7.2718 C.ar    1  UNL1        0.1151
     20 C          60.6424   82.3942    6.4161 C.ar    1  UNL1        0.1562
     21 C          59.7011   81.3970    6.7391 C.ar    1  UNL1        0.0385
     22 C          58.9260   81.5042    7.8977 C.ar    1  UNL1        0.0032
     23 C          59.0771   82.6010    8.7493 C.ar    1  UNL1        0.0017
     24 C          60.0095   83.6014    8.4436 C.ar    1  UNL1        0.0207
     25 C          60.1830   84.7115    9.2817 C.ar    1  UNL1        0.0031
     26 O          61.4422   82.3236    5.2637 O.3     1  UNL1       -0.4699
     27 C          62.5722   83.1527    5.0142 C.3     1  UNL1        0.2525
     28 C          61.4487   82.9479   13.0737 C.ar    1  UNL1        0.0522
     29 C          61.0363   83.8460   14.0689 C.ar    1  UNL1        0.0206
     30 C          61.6996   85.0592   14.2492 C.ar    1  UNL1        0.0703
     31 C          62.7982   85.3907   13.4462 C.ar    1  UNL1        0.2271
     32 C          63.2239   84.4914   12.4548 C.ar    1  UNL1        0.0742
     33 C          62.5336   83.2850   12.2272 C.ar    1  UNL1        0.0906
     34 C          58.5687   78.1057   12.7182 C.2     1  UNL1        0.2257
     35 O          58.5147   77.2908   13.6806 O.2     1  UNL1       -0.2749
     36 N          59.2350   79.3713   12.8943 N.am    1  UNL1       -0.2760
     37 C          58.6337   80.6094   12.3769 C.3     1  UNL1        0.1148
     38 C          59.7262   81.5652   11.8978 C.3     1  UNL1        0.1123
     39 N          60.7567   81.6969   12.9299 N.pl3   1  UNL1       -0.3041
     40 C          61.3698   80.4675   13.4398 C.3     1  UNL1        0.1123
     41 C          60.2855   79.4977   13.9134 C.3     1  UNL1        0.1148
     42 C          57.8921   78.9329   10.4389 C.3     1  UNL1        0.0101
     43 C          57.9014   77.7567   11.4133 C.3     1  UNL1        0.0853
     44 C          62.9789   82.3632   11.1107 C.3     1  UNL1        0.4199
     45 F          61.8929   81.9555   10.3573 F       1  UNL1       -0.1658
     46 F          63.6040   81.2540   11.6476 F       1  UNL1       -0.1658
     47 F          63.8658   82.9994   10.2589 F       1  UNL1       -0.1658
@<TRIPOS>BOND
     1    42    43    1
     2    43    34    1
     3    34    35    2
     4    34    36   am
     5    36    37    1
     6    37    38    1
     7    38    39    1
     8    39    28    1
     9    28    29   ar
    10    29    30   ar
    11    30    31   ar
    12    31     1    1
    13     1     2    1
    14     2     3    2
    15     2     4    1
    16     4     5    2
    17     5     6    1
    18     6     7   ar
    19     7     8   ar
    20     8     9   ar
    21     9    10   ar
    22    10    11   ar
    23    11    12   ar
    24    12    16    1
    25    16    17   ar
    26    17    18   ar
    27    18    19   ar
    28    19    20   ar
    29    20    26    1
    30    26    27    1
    31    20    21   ar
    32    21    22   ar
    33    22    23   ar
    34    23    24   ar
    35    24    25   ar
    36    12    13   ar
    37    13    14   ar
    38    14    15   ar
    39    31    32   ar
    40    32    33   ar
    41    33    44    1
    42    44    45    1
    43    44    46    1
    44    44    47    1
    45    39    40    1
    46    40    41    1
    47    41    36    1
    48    33    28   ar
    49    15     1    1
    50    15     6   ar
    51    14     9   ar
    52    25    16   ar
    53    24    19   ar
