@<TRIPOS>MOLECULE
*****
 60 65 0 0 0
SMALL
GASTEIGER

@<TRIPOS>ATOM
      1 C          60.9754   82.9745   13.4706 C.ar    1  UNL1        0.0503
      2 C          62.1727   82.9792   14.2019 C.ar    1  UNL1        0.0147
      3 C          62.8506   84.1741   14.4544 C.ar    1  UNL1        0.0013
      4 C          62.3462   85.3942   13.9752 C.ar    1  UNL1        0.0001
      5 C          61.1480   85.3933   13.2433 C.ar    1  UNL1        0.0013
      6 C          60.4741   84.1968   12.9847 C.ar    1  UNL1        0.0147
      7 C          63.0690   86.6629   14.2355 C.ar    1  UNL1        0.0001
      8 C          63.2012   87.1508   15.5462 C.ar    1  UNL1        0.0013
      9 C          63.9185   88.3226   15.7986 C.ar    1  UNL1        0.0147
     10 C          64.5040   89.0421   14.7404 C.ar    1  UNL1        0.0503
     11 C          64.3645   88.5584   13.4317 C.ar    1  UNL1        0.0147
     12 C          63.6536   87.3822   13.1796 C.ar    1  UNL1        0.0013
     13 N          65.3159   90.2060   14.9758 N.am    1  UNL1       -0.2826
     14 C          66.7483   90.1790   15.0425 C.2     1  UNL1        0.2442
     15 O          67.3338   89.2759   15.6987 O.2     1  UNL1       -0.2730
     16 H          64.8477   91.1401   14.9849 H       1  UNL1        0.1549
     17 C          67.5617   91.2486   14.3631 C.3     1  UNL1        0.1521
     18 C          67.7484   92.4746   15.2582 C.3     1  UNL1        0.0310
     19 C          66.8107   93.5478   14.7098 C.3     1  UNL1        0.0237
     20 C          66.4588   93.1223   13.2895 C.3     1  UNL1        0.0939
     21 N          66.8683   91.7310   13.1761 N.am    1  UNL1       -0.2714
     22 C          66.6412   90.9071   12.0146 C.2     1  UNL1        0.2482
     23 O          67.2021   89.7792   11.9373 O.2     1  UNL1       -0.2727
     24 C          65.7697   91.3773   10.8722 C.3     1  UNL1        0.1743
     25 C          66.6136   92.0262    9.7947 C.ar    1  UNL1        0.0044
     26 C          66.2338   93.2563    9.2238 C.ar    1  UNL1       -0.0022
     27 C          67.0199   93.8477    8.2306 C.ar    1  UNL1       -0.0003
     28 C          68.1920   93.2222    7.7997 C.ar    1  UNL1       -0.0000
     29 C          68.5819   92.0048    8.3630 C.ar    1  UNL1       -0.0003
     30 C          67.7999   91.4093    9.3574 C.ar    1  UNL1       -0.0022
     31 N          64.9968   90.2603   10.3150 N.am    1  UNL1       -0.2606
     32 C          63.6825   89.9317   10.7820 C.2     1  UNL1        0.4023
     33 O          63.1295   90.6325   11.6740 O.2     1  UNL1       -0.2264
     34 H          65.4303   89.6294    9.6033 H       1  UNL1        0.1535
     35 O          63.0184   88.8298   10.2360 O.3     1  UNL1       -0.4306
     36 C          61.6018   88.7682   10.1187 C.3     1  UNL1        0.2573
     37 C          59.1505   81.5409   12.3906 C.2     1  UNL1        0.2442
     38 O          58.3641   82.5078   12.2048 O.2     1  UNL1       -0.2730
     39 N          60.3469   81.7124   13.1718 N.am    1  UNL1       -0.2826
     40 H          60.7830   80.8544   13.5777 H       1  UNL1        0.1549
     41 C          60.3454   79.8179    9.8930 C.2     1  UNL1        0.2482
     42 O          61.1628   79.0298    9.3414 O.2     1  UNL1       -0.2727
     43 N          59.8470   79.5017   11.2091 N.am    1  UNL1       -0.2714
     44 C          60.3169   78.3374   11.9445 C.3     1  UNL1        0.0939
     45 C          59.5679   78.3500   13.2691 C.3     1  UNL1        0.0237
     46 C          58.3647   79.2603   13.0511 C.3     1  UNL1        0.0310
     47 C          58.7441   80.1778   11.8865 C.3     1  UNL1        0.1521
     48 C          59.9591   81.0885    9.1635 C.3     1  UNL1        0.1743
     49 C          61.1183   82.0558    8.9791 C.ar    1  UNL1        0.0044
     50 C          62.1890   82.0011    9.8905 C.ar    1  UNL1       -0.0022
     51 C          63.2528   82.9034    9.7961 C.ar    1  UNL1       -0.0003
     52 C          63.2623   83.8726    8.7915 C.ar    1  UNL1       -0.0000
     53 C          62.2006   83.9507    7.8887 C.ar    1  UNL1       -0.0003
     54 C          61.1272   83.0597    7.9860 C.ar    1  UNL1       -0.0022
     55 C          58.0230   81.0203    7.5221 C.2     1  UNL1        0.4023
     56 O          57.2705   81.6111    8.3455 O.2     1  UNL1       -0.2264
     57 N          59.3901   80.7528    7.8548 N.am    1  UNL1       -0.2606
     58 H          59.9613   80.2037    7.1725 H       1  UNL1        0.1535
     59 C          57.7236   79.3038    5.7665 C.3     1  UNL1        0.2573
     60 O          57.5316   80.6174    6.2775 O.3     1  UNL1       -0.4306
@<TRIPOS>BOND
     1    59    60    1
     2    60    55    1
     3    55    56    2
     4    55    57   am
     5    57    48    1
     6    48    41    1
     7    41    42    2
     8    41    43   am
     9    43    44    1
    10    44    45    1
    11    45    46    1
    12    46    47    1
    13    47    37    1
    14    37    38    2
    15    37    39   am
    16    39     1    1
    17     1     2   ar
    18     2     3   ar
    19     3     4   ar
    20     4     7    1
    21     7     8   ar
    22     8     9   ar
    23     9    10   ar
    24    10    13    1
    25    13    14   am
    26    14    15    2
    27    14    17    1
    28    17    18    1
    29    18    19    1
    30    19    20    1
    31    20    21    1
    32    21    22   am
    33    22    23    2
    34    22    24    1
    35    24    31    1
    36    31    32   am
    37    32    33    2
    38    32    35    1
    39    35    36    1
    40    24    25    1
    41    25    26   ar
    42    26    27   ar
    43    27    28   ar
    44    28    29   ar
    45    29    30   ar
    46    10    11   ar
    47    11    12   ar
    48     4     5   ar
    49     5     6   ar
    50    48    49    1
    51    49    50   ar
    52    50    51   ar
    53    51    52   ar
    54    52    53   ar
    55    53    54   ar
    56    47    43    1
    57     6     1   ar
    58    54    49   ar
    59    12     7   ar
    60    21    17    1
    61    30    25   ar
    62    57    58    1
    63    39    40    1
    64    13    16    1
    65    31    34    1
@<TRIPOS>MOLECULE
*****
 60 65 0 0 0
SMALL
GASTEIGER

@<TRIPOS>ATOM
      1 C          60.8760   83.1831   13.6493 C.ar    1  UNL1        0.0503
      2 C          62.2778   83.1796   13.7074 C.ar    1  UNL1        0.0147
      3 C          62.9855   84.3594   13.9483 C.ar    1  UNL1        0.0013
      4 C          62.3042   85.5737   14.1325 C.ar    1  UNL1        0.0001
      5 C          60.9014   85.5809   14.0754 C.ar    1  UNL1        0.0013
      6 C          60.1942   84.4016   13.8270 C.ar    1  UNL1        0.0147
      7 C          63.0545   86.8290   14.3803 C.ar    1  UNL1        0.0001
      8 C          63.1778   87.3390   15.6835 C.ar    1  UNL1        0.0013
      9 C          63.9203   88.4973   15.9252 C.ar    1  UNL1        0.0147
     10 C          64.5407   89.1811   14.8633 C.ar    1  UNL1        0.0503
     11 C          64.4103   88.6754   13.5619 C.ar    1  UNL1        0.0147
     12 C          63.6741   87.5126   13.3207 C.ar    1  UNL1        0.0013
     13 N          65.3778   90.3288   15.0897 N.am    1  UNL1       -0.2826
     14 C          66.8114   90.2843   15.0825 C.2     1  UNL1        0.2442
     15 O          67.4181   89.3563   15.6822 O.2     1  UNL1       -0.2730
     16 H          64.9222   91.2673   15.1491 H       1  UNL1        0.1549
     17 C          67.6024   91.3641   14.3929 C.3     1  UNL1        0.1521
     18 C          67.7578   92.6046   15.2739 C.3     1  UNL1        0.0310
     19 C          66.7977   93.6494   14.7096 C.3     1  UNL1        0.0237
     20 C          66.4607   93.1991   13.2934 C.3     1  UNL1        0.0939
     21 N          66.9024   91.8163   13.1980 N.am    1  UNL1       -0.2714
     22 C          66.6983   90.9736   12.0458 C.2     1  UNL1        0.2482
     23 O          67.2852   89.8581   11.9838 O.2     1  UNL1       -0.2727
     24 C          65.8204   91.4101   10.8949 C.3     1  UNL1        0.1743
     25 C          66.6559   92.0447    9.8024 C.ar    1  UNL1        0.0044
     26 C          66.2741   93.2694    9.2216 C.ar    1  UNL1       -0.0022
     27 C          67.0524   93.8477    8.2146 C.ar    1  UNL1       -0.0003
     28 C          68.2187   93.2141    7.7797 C.ar    1  UNL1       -0.0000
     29 C          68.6106   92.0020    8.3528 C.ar    1  UNL1       -0.0003
     30 C          67.8363   91.4197    9.3610 C.ar    1  UNL1       -0.0022
     31 N          65.0586   90.2733   10.3629 N.am    1  UNL1       -0.2606
     32 C          63.7669   89.9143   10.8692 C.2     1  UNL1        0.4023
     33 O          63.2238   90.6039   11.7758 O.2     1  UNL1       -0.2264
     34 H          65.4861   89.6512    9.6399 H       1  UNL1        0.1535
     35 O          63.1139   88.7952   10.3452 O.3     1  UNL1       -0.4306
     36 C          61.9347   88.8947    9.5554 C.3     1  UNL1        0.2573
     37 C          59.3908   81.7333   12.1514 C.2     1  UNL1        0.2442
     38 O          58.9416   82.7061   11.4884 O.2     1  UNL1       -0.2730
     39 N          60.1893   81.9575   13.3274 N.am    1  UNL1       -0.2826
     40 H          60.2574   81.1769   14.0182 H       1  UNL1        0.1549
     41 C          61.0282   79.4663   10.4738 C.2     1  UNL1        0.2482
     42 O          61.8527   78.5190   10.3458 O.2     1  UNL1       -0.2727
     43 N          60.1133   79.4527   11.5887 N.am    1  UNL1       -0.2714
     44 C          60.1651   78.4144   12.6067 C.3     1  UNL1        0.0939
     45 C          59.0588   78.7457   13.5977 C.3     1  UNL1        0.0237
     46 C          58.1225   79.6987   12.8635 C.3     1  UNL1        0.0310
     47 C          58.9657   80.3395   11.7587 C.3     1  UNL1        0.1521
     48 C          61.0686   80.6025    9.4720 C.3     1  UNL1        0.1743
     49 C          59.8913   80.6015    8.5091 C.ar    1  UNL1        0.0044
     50 C          58.6368   81.0276    8.9831 C.ar    1  UNL1       -0.0022
     51 C          57.5122   80.9953    8.1530 C.ar    1  UNL1       -0.0003
     52 C          57.6242   80.5370    6.8392 C.ar    1  UNL1       -0.0000
     53 C          58.8580   80.0961    6.3578 C.ar    1  UNL1       -0.0003
     54 C          59.9837   80.1133    7.1873 C.ar    1  UNL1       -0.0022
     55 C          61.9832   82.9516    9.7757 C.2     1  UNL1        0.4023
     56 O          62.7021   82.8328    8.7451 O.2     1  UNL1       -0.2264
     57 N          61.1185   81.8844   10.1814 N.am    1  UNL1       -0.2606
     58 H          60.5894   81.9966   11.0763 H       1  UNL1        0.1535
     59 C          61.3042   85.2966   10.1741 C.3     1  UNL1        0.2573
     60 O          62.0238   84.1239   10.5354 O.3     1  UNL1       -0.4306
@<TRIPOS>BOND
     1    59    60    1
     2    60    55    1
     3    55    56    2
     4    55    57   am
     5    57    48    1
     6    48    41    1
     7    41    42    2
     8    41    43   am
     9    43    44    1
    10    44    45    1
    11    45    46    1
    12    46    47    1
    13    47    37    1
    14    37    38    2
    15    37    39   am
    16    39     1    1
    17     1     2   ar
    18     2     3   ar
    19     3     4   ar
    20     4     7    1
    21     7     8   ar
    22     8     9   ar
    23     9    10   ar
    24    10    13    1
    25    13    14   am
    26    14    15    2
    27    14    17    1
    28    17    18    1
    29    18    19    1
    30    19    20    1
    31    20    21    1
    32    21    22   am
    33    22    23    2
    34    22    24    1
    35    24    31    1
    36    31    32   am
    37    32    33    2
    38    32    35    1
    39    35    36    1
    40    24    25    1
    41    25    26   ar
    42    26    27   ar
    43    27    28   ar
    44    28    29   ar
    45    29    30   ar
    46    10    11   ar
    47    11    12   ar
    48     4     5   ar
    49     5     6   ar
    50    48    49    1
    51    49    50   ar
    52    50    51   ar
    53    51    52   ar
    54    52    53   ar
    55    53    54   ar
    56    47    43    1
    57     6     1   ar
    58    54    49   ar
    59    12     7   ar
    60    21    17    1
    61    30    25   ar
    62    57    58    1
    63    39    40    1
    64    13    16    1
    65    31    34    1
