@<TRIPOS>MOLECULE
*****
 41 45 0 0 0
SMALL
GASTEIGER

@<TRIPOS>ATOM
      1 C         -26.1307   50.3331  -10.1168 C.ar    1  UNL1        0.1649
      2 C         -25.5572   50.5520   -8.8298 C.ar    1  UNL1        0.1226
      3 C         -26.3563   50.3089   -7.6877 C.ar    1  UNL1        0.1430
      4 C         -27.6465   49.8479   -7.7729 C.ar    1  UNL1        0.0329
      5 C         -28.2043   49.6314   -9.0329 C.ar    1  UNL1        0.0819
      6 C         -27.4702   49.8760  -10.1668 C.ar    1  UNL1        0.1337
      7 N         -28.2271   49.6487  -11.2556 N.ar    1  UNL1       -0.2104
      8 C         -29.4203   49.2571  -10.7406 C.ar    1  UNL1        0.2019
      9 N         -29.4411   49.2263   -9.3810 N.ar    1  UNL1       -0.2976
     10 C         -30.5636   48.8963   -8.5030 C.3     1  UNL1        0.1332
     11 C         -28.2301   49.7075   -6.4100 C.3     1  UNL1        0.0709
     12 C         -27.0700   50.2058   -5.4875 C.3     1  UNL1        0.1375
     13 C         -27.4736   51.4708   -4.7181 C.3     1  UNL1        0.0439
     14 C         -26.6149   49.1097   -4.5147 C.3     1  UNL1        0.0439
     15 O         -25.9947   50.5212   -6.3731 O.3     1  UNL1       -0.4823
     16 C         -24.1691   51.0479   -8.6758 C.2     1  UNL1        0.2555
     17 O         -23.5095   50.7521   -7.6422 O.2     1  UNL1       -0.2696
     18 N         -23.5854   51.8969   -9.6774 N.am    1  UNL1       -0.2802
     19 H         -24.2304   52.4782  -10.2595 H       1  UNL1        0.1552
     20 C         -22.1697   52.0883   -9.8401 C.ar    1  UNL1        0.0505
     21 C         -21.5387   51.6025  -10.9940 C.ar    1  UNL1        0.0147
     22 C         -20.1595   51.7435  -11.1579 C.ar    1  UNL1        0.0012
     23 C         -19.3946   52.3664  -10.1696 C.ar    1  UNL1        0.0039
     24 C         -20.0061   52.8652   -9.0068 C.ar    1  UNL1        0.0726
     25 C         -21.3920   52.6952   -8.8364 C.ar    1  UNL1        0.0185
     26 C         -19.1736   53.4769   -7.9079 C.3     1  UNL1        0.4186
     27 F         -19.7935   53.2581   -6.6920 F       1  UNL1       -0.1659
     28 F         -17.9099   52.9130   -7.8779 F       1  UNL1       -0.1659
     29 F         -19.0337   54.8400   -8.1044 F       1  UNL1       -0.1659
     30 C         -25.7145   51.4099  -12.3527 C.3     1  UNL1        0.2525
     31 O         -25.3533   50.5643  -11.2661 O.3     1  UNL1       -0.4696
     32 N         -30.5634   48.9838  -11.5660 N.pl3   1  UNL1       -0.2814
     33 H         -31.4524   49.4967  -11.3797 H       1  UNL1        0.1551
     34 C         -30.4748   48.1895  -12.7605 C.ar    1  UNL1        0.0889
     35 C         -30.5522   48.7950  -14.0306 C.ar    1  UNL1        0.1543
     36 F         -30.6806   50.1406  -14.1500 F       1  UNL1       -0.2028
     37 C         -30.4568   48.0176  -15.1885 C.ar    1  UNL1        0.0310
     38 C         -30.2731   46.6371  -15.0938 C.ar    1  UNL1        0.0033
     39 C         -30.1775   46.0291  -13.8406 C.ar    1  UNL1        0.0128
     40 C         -30.2715   46.7972  -12.6740 C.ar    1  UNL1        0.0733
     41 CL        -30.1724   45.9833  -11.1176 Cl      1  UNL1       -0.0809
@<TRIPOS>BOND
     1    30    31    1
     2    31     1    1
     3     1     2   ar
     4     2    16    1
     5    16    17    2
     6    16    18   am
     7    18    20    1
     8    20    21   ar
     9    21    22   ar
    10    22    23   ar
    11    23    24   ar
    12    24    26    1
    13    26    27    1
    14    26    28    1
    15    26    29    1
    16    24    25   ar
    17     2     3   ar
    18     3     4   ar
    19     4     5   ar
    20     5     6   ar
    21     6     7   ar
    22     7     8   ar
    23     8    32    1
    24    32    34    1
    25    34    35   ar
    26    35    36    1
    27    35    37   ar
    28    37    38   ar
    29    38    39   ar
    30    39    40   ar
    31    40    41    1
    32     8     9   ar
    33     9    10    1
    34     4    11    1
    35    11    12    1
    36    12    13    1
    37    12    14    1
    38    12    15    1
    39     6     1   ar
    40    40    34   ar
    41    25    20   ar
    42    15     3    1
    43     9     5   ar
    44    18    19    1
    45    32    33    1
@<TRIPOS>MOLECULE
*****
 41 45 0 0 0
SMALL
GASTEIGER

@<TRIPOS>ATOM
      1 C         -23.9643   51.7039  -11.1079 C.ar    1  UNL1        0.1649
      2 C         -24.0005   51.5479   -9.6910 C.ar    1  UNL1        0.1226
      3 C         -25.2417   51.2539   -9.0787 C.ar    1  UNL1        0.1430
      4 C         -26.3996   51.0887   -9.7972 C.ar    1  UNL1        0.0329
      5 C         -26.3612   51.2386  -11.1835 C.ar    1  UNL1        0.0819
      6 C         -25.1813   51.5455  -11.8146 C.ar    1  UNL1        0.1337
      7 N         -25.3970   51.6919  -13.1345 N.ar    1  UNL1       -0.2104
      8 C         -26.7270   51.4570  -13.2700 C.ar    1  UNL1        0.2019
      9 N         -27.3497   51.1673  -12.0961 N.ar    1  UNL1       -0.2976
     10 C         -28.7711   50.9067  -11.8689 C.3     1  UNL1        0.1332
     11 C         -27.5363   50.8070   -8.8773 C.3     1  UNL1        0.0709
     12 C         -26.8609   50.8715   -7.4684 C.3     1  UNL1        0.1375
     13 C         -27.4368   52.0176   -6.6260 C.3     1  UNL1        0.0439
     14 C         -26.9928   49.5383   -6.7201 C.3     1  UNL1        0.0439
     15 O         -25.4798   51.1291   -7.7252 O.3     1  UNL1       -0.4823
     16 C         -22.7823   51.7134   -8.8632 C.2     1  UNL1        0.2555
     17 O         -22.7061   51.1441   -7.7404 O.2     1  UNL1       -0.2696
     18 N         -21.7057   52.5513   -9.3143 N.am    1  UNL1       -0.2802
     19 H         -21.9372   53.3309   -9.9711 H       1  UNL1        0.1552
     20 C         -20.3583   52.4606   -8.8204 C.ar    1  UNL1        0.0505
     21 C         -20.0733   52.8937   -7.5179 C.ar    1  UNL1        0.0147
     22 C         -18.7666   52.8500   -7.0285 C.ar    1  UNL1        0.0012
     23 C         -17.7295   52.3783   -7.8359 C.ar    1  UNL1        0.0039
     24 C         -17.9923   51.9346   -9.1432 C.ar    1  UNL1        0.0726
     25 C         -19.3068   52.0071   -9.6385 C.ar    1  UNL1        0.0185
     26 C         -16.8646   51.4890  -10.0400 C.3     1  UNL1        0.4186
     27 F         -15.7178   52.1866   -9.7101 F       1  UNL1       -0.1659
     28 F         -16.6262   50.1335   -9.8920 F       1  UNL1       -0.1659
     29 F         -17.1736   51.7306  -11.3675 F       1  UNL1       -0.1659
     30 C         -22.2996   53.2856  -12.1367 C.3     1  UNL1        0.2525
     31 O         -22.7404   51.9921  -11.7385 O.3     1  UNL1       -0.4696
     32 N         -27.4080   51.5862  -14.5278 N.pl3   1  UNL1       -0.2814
     33 H         -28.1423   52.3202  -14.6292 H       1  UNL1        0.1551
     34 C         -26.9787   50.8872  -15.7080 C.ar    1  UNL1        0.0889
     35 C         -25.7625   51.2221  -16.3361 C.ar    1  UNL1        0.1543
     36 F         -24.9603   52.1882  -15.8220 F       1  UNL1       -0.2028
     37 C         -25.3468   50.5325  -17.4788 C.ar    1  UNL1        0.0310
     38 C         -26.1289   49.4998  -17.9987 C.ar    1  UNL1        0.0033
     39 C         -27.3269   49.1479  -17.3742 C.ar    1  UNL1        0.0128
     40 C         -27.7537   49.8312  -16.2293 C.ar    1  UNL1        0.0733
     41 CL        -29.2834   49.3705  -15.4928 Cl      1  UNL1       -0.0809
@<TRIPOS>BOND
     1    30    31    1
     2    31     1    1
     3     1     2   ar
     4     2    16    1
     5    16    17    2
     6    16    18   am
     7    18    20    1
     8    20    21   ar
     9    21    22   ar
    10    22    23   ar
    11    23    24   ar
    12    24    26    1
    13    26    27    1
    14    26    28    1
    15    26    29    1
    16    24    25   ar
    17     2     3   ar
    18     3     4   ar
    19     4     5   ar
    20     5     6   ar
    21     6     7   ar
    22     7     8   ar
    23     8    32    1
    24    32    34    1
    25    34    35   ar
    26    35    36    1
    27    35    37   ar
    28    37    38   ar
    29    38    39   ar
    30    39    40   ar
    31    40    41    1
    32     8     9   ar
    33     9    10    1
    34     4    11    1
    35    11    12    1
    36    12    13    1
    37    12    14    1
    38    12    15    1
    39     6     1   ar
    40    40    34   ar
    41    25    20   ar
    42    15     3    1
    43     9     5   ar
    44    18    19    1
    45    32    33    1
@<TRIPOS>MOLECULE
*****
 41 45 0 0 0
SMALL
GASTEIGER

@<TRIPOS>ATOM
      1 C         -26.6787   50.8033   -7.8569 C.ar    1  UNL1        0.1649
      2 C         -26.7230   51.4535   -9.1252 C.ar    1  UNL1        0.1226
      3 C         -27.9373   51.4292   -9.8509 C.ar    1  UNL1        0.1430
      4 C         -29.0742   50.8289   -9.3696 C.ar    1  UNL1        0.0329
      5 C         -29.0294   50.1964   -8.1272 C.ar    1  UNL1        0.0819
      6 C         -27.8647   50.1780   -7.4008 C.ar    1  UNL1        0.1337
      7 N         -28.0455   49.4709   -6.2705 N.ar    1  UNL1       -0.2104
      8 C         -29.3432   49.0794   -6.3414 C.ar    1  UNL1        0.2019
      9 N         -29.9808   49.5129   -7.4618 N.ar    1  UNL1       -0.2976
     10 C         -31.3567   49.2428   -7.8787 C.3     1  UNL1        0.1332
     11 C         -30.1772   50.9528  -10.3624 C.3     1  UNL1        0.0709
     12 C         -29.4877   51.7029  -11.5487 C.3     1  UNL1        0.1375
     13 C         -29.4511   50.8331  -12.8124 C.3     1  UNL1        0.0439
     14 C         -30.1746   53.0436  -11.8412 C.3     1  UNL1        0.0439
     15 O         -28.1503   51.9481  -11.1117 O.3     1  UNL1       -0.4823
     16 C         -25.5277   52.1190   -9.6954 C.2     1  UNL1        0.2555
     17 O         -25.5921   53.3287  -10.0462 O.2     1  UNL1       -0.2696
     18 N         -24.3090   51.3827   -9.8886 N.am    1  UNL1       -0.2802
     19 H         -24.3806   50.3487  -10.0237 H       1  UNL1        0.1552
     20 C         -23.0164   51.9958  -10.0326 C.ar    1  UNL1        0.0505
     21 C         -22.6225   52.4823  -11.2871 C.ar    1  UNL1        0.0147
     22 C         -21.3582   53.0484  -11.4605 C.ar    1  UNL1        0.0012
     23 C         -20.4716   53.1301  -10.3849 C.ar    1  UNL1        0.0039
     24 C         -20.8463   52.6533   -9.1172 C.ar    1  UNL1        0.0726
     25 C         -22.1115   52.0597   -8.9567 C.ar    1  UNL1        0.0185
     26 C         -19.8665   52.6783   -7.9710 C.3     1  UNL1        0.4186
     27 F         -18.7901   53.4765   -8.3098 F       1  UNL1       -0.1659
     28 F         -20.4612   53.1843   -6.8281 F       1  UNL1       -0.1659
     29 F         -19.4111   51.4013   -7.6917 F       1  UNL1       -0.1659
     30 C         -24.5462   49.7499   -7.0356 C.3     1  UNL1        0.2525
     31 O         -25.4830   50.8186   -7.1160 O.3     1  UNL1       -0.4696
     32 N         -29.9443   48.2225   -5.3580 N.pl3   1  UNL1       -0.2814
     33 H         -30.9847   48.1644   -5.3102 H       1  UNL1        0.1551
     34 C         -29.1753   47.2911   -4.5791 C.ar    1  UNL1        0.0889
     35 C         -28.7863   47.6083   -3.2623 C.ar    1  UNL1        0.1543
     36 F         -29.1560   48.7842   -2.6950 F       1  UNL1       -0.2028
     37 C         -28.0456   46.6944   -2.5073 C.ar    1  UNL1        0.0310
     38 C         -27.6959   45.4565   -3.0493 C.ar    1  UNL1        0.0033
     39 C         -28.0911   45.1248   -4.3467 C.ar    1  UNL1        0.0128
     40 C         -28.8331   46.0318   -5.1125 C.ar    1  UNL1        0.0733
     41 CL        -29.2850   45.5805   -6.7516 Cl      1  UNL1       -0.0809
@<TRIPOS>BOND
     1    30    31    1
     2    31     1    1
     3     1     2   ar
     4     2    16    1
     5    16    17    2
     6    16    18   am
     7    18    20    1
     8    20    21   ar
     9    21    22   ar
    10    22    23   ar
    11    23    24   ar
    12    24    26    1
    13    26    27    1
    14    26    28    1
    15    26    29    1
    16    24    25   ar
    17     2     3   ar
    18     3     4   ar
    19     4     5   ar
    20     5     6   ar
    21     6     7   ar
    22     7     8   ar
    23     8    32    1
    24    32    34    1
    25    34    35   ar
    26    35    36    1
    27    35    37   ar
    28    37    38   ar
    29    38    39   ar
    30    39    40   ar
    31    40    41    1
    32     8     9   ar
    33     9    10    1
    34     4    11    1
    35    11    12    1
    36    12    13    1
    37    12    14    1
    38    12    15    1
    39     6     1   ar
    40    40    34   ar
    41    25    20   ar
    42    15     3    1
    43     9     5   ar
    44    18    19    1
    45    32    33    1
@<TRIPOS>MOLECULE
*****
 41 45 0 0 0
SMALL
GASTEIGER

@<TRIPOS>ATOM
      1 C         -26.6773   50.7040   -7.9337 C.ar    1  UNL1        0.1649
      2 C         -26.7262   51.4111   -9.1709 C.ar    1  UNL1        0.1226
      3 C         -27.9386   51.4066   -9.9003 C.ar    1  UNL1        0.1430
      4 C         -29.0696   50.7721   -9.4501 C.ar    1  UNL1        0.0329
      5 C         -29.0203   50.0836   -8.2380 C.ar    1  UNL1        0.0819
      6 C         -27.8571   50.0450   -7.5100 C.ar    1  UNL1        0.1337
      7 N         -28.0323   49.2848   -6.4139 N.ar    1  UNL1       -0.2104
      8 C         -29.3253   48.8823   -6.5062 C.ar    1  UNL1        0.2019
      9 N         -29.9654   49.3596   -7.6073 N.ar    1  UNL1       -0.2976
     10 C         -31.3372   49.0935   -8.0398 C.3     1  UNL1        0.1332
     11 C         -30.1717   50.9289  -10.4392 C.3     1  UNL1        0.0709
     12 C         -29.4883   51.7405  -11.5879 C.3     1  UNL1        0.1375
     13 C         -29.4390   50.9301  -12.8901 C.3     1  UNL1        0.0439
     14 C         -30.1897   53.0854  -11.8204 C.3     1  UNL1        0.0439
     15 O         -28.1547   51.9804  -11.1365 O.3     1  UNL1       -0.4823
     16 C         -25.5373   52.1155   -9.7068 C.2     1  UNL1        0.2555
     17 O         -25.6120   53.3417   -9.9928 O.2     1  UNL1       -0.2696
     18 N         -24.3131   51.4004   -9.9405 N.am    1  UNL1       -0.2802
     19 H         -24.3767   50.3744  -10.1302 H       1  UNL1        0.1552
     20 C         -23.0257   52.0307  -10.0536 C.ar    1  UNL1        0.0505
     21 C         -22.6342   52.5778  -11.2836 C.ar    1  UNL1        0.0147
     22 C         -21.3747   53.1622  -11.4284 C.ar    1  UNL1        0.0012
     23 C         -20.4904   53.2020  -10.3484 C.ar    1  UNL1        0.0039
     24 C         -20.8629   52.6640   -9.1048 C.ar    1  UNL1        0.0726
     25 C         -22.1231   52.0527   -8.9742 C.ar    1  UNL1        0.0185
     26 C         -19.8851   52.6448   -7.9567 C.3     1  UNL1        0.4186
     27 F         -18.7841   53.4138   -8.2837 F       1  UNL1       -0.1659
     28 F         -20.4663   53.1545   -6.8085 F       1  UNL1       -0.1659
     29 F         -19.4696   51.3510   -7.6926 F       1  UNL1       -0.1659
     30 C         -24.5752   49.6071   -7.0913 C.3     1  UNL1        0.2525
     31 O         -25.4835   50.6986   -7.1897 O.3     1  UNL1       -0.4696
     32 N         -29.9188   47.9745   -5.5649 N.pl3   1  UNL1       -0.2814
     33 H         -30.4312   47.1403   -5.9251 H       1  UNL1        0.1551
     34 C         -29.6614   48.0563   -4.1533 C.ar    1  UNL1        0.0889
     35 C         -30.4998   48.8184   -3.3153 C.ar    1  UNL1        0.1543
     36 F         -31.5819   49.4634   -3.8196 F       1  UNL1       -0.2028
     37 C         -30.2486   48.8869   -1.9419 C.ar    1  UNL1        0.0310
     38 C         -29.1717   48.1913   -1.3898 C.ar    1  UNL1        0.0033
     39 C         -28.3451   47.4190   -2.2081 C.ar    1  UNL1        0.0128
     40 C         -28.5865   47.3428   -3.5849 C.ar    1  UNL1        0.0733
     41 CL        -27.5020   46.3789   -4.5796 Cl      1  UNL1       -0.0809
@<TRIPOS>BOND
     1    30    31    1
     2    31     1    1
     3     1     2   ar
     4     2    16    1
     5    16    17    2
     6    16    18   am
     7    18    20    1
     8    20    21   ar
     9    21    22   ar
    10    22    23   ar
    11    23    24   ar
    12    24    26    1
    13    26    27    1
    14    26    28    1
    15    26    29    1
    16    24    25   ar
    17     2     3   ar
    18     3     4   ar
    19     4     5   ar
    20     5     6   ar
    21     6     7   ar
    22     7     8   ar
    23     8    32    1
    24    32    34    1
    25    34    35   ar
    26    35    36    1
    27    35    37   ar
    28    37    38   ar
    29    38    39   ar
    30    39    40   ar
    31    40    41    1
    32     8     9   ar
    33     9    10    1
    34     4    11    1
    35    11    12    1
    36    12    13    1
    37    12    14    1
    38    12    15    1
    39     6     1   ar
    40    40    34   ar
    41    25    20   ar
    42    15     3    1
    43     9     5   ar
    44    18    19    1
    45    32    33    1
@<TRIPOS>MOLECULE
*****
 41 45 0 0 0
SMALL
GASTEIGER

@<TRIPOS>ATOM
      1 C         -26.6956   50.2414   -8.3070 C.ar    1  UNL1        0.1649
      2 C         -26.7138   50.8371   -9.6023 C.ar    1  UNL1        0.1226
      3 C         -27.9662   51.0615  -10.2214 C.ar    1  UNL1        0.1430
      4 C         -29.1573   50.7526   -9.6130 C.ar    1  UNL1        0.0329
      5 C         -29.1371   50.1729   -8.3444 C.ar    1  UNL1        0.0819
      6 C         -27.9423   49.9183   -7.7181 C.ar    1  UNL1        0.1337
      7 N         -28.1682   49.3130   -6.5380 N.ar    1  UNL1       -0.2104
      8 C         -29.5212   49.2231   -6.4775 C.ar    1  UNL1        0.2019
      9 N         -30.1495   49.7478   -7.5637 N.ar    1  UNL1       -0.2976
     10 C         -31.5840   49.7811   -7.8478 C.3     1  UNL1        0.1332
     11 C         -30.2939   51.0860  -10.5155 C.3     1  UNL1        0.0709
     12 C         -29.5702   51.6160  -11.7964 C.3     1  UNL1        0.1375
     13 C         -29.8472   50.7141  -13.0067 C.3     1  UNL1        0.0439
     14 C         -29.9665   53.0656  -12.1069 C.3     1  UNL1        0.0439
     15 O         -28.1766   51.5679  -11.4876 O.3     1  UNL1       -0.4823
     16 C         -25.4599   51.1930  -10.3078 C.2     1  UNL1        0.2555
     17 O         -25.4160   51.1491  -11.5675 O.2     1  UNL1       -0.2696
     18 N         -24.2831   51.5478   -9.5636 N.am    1  UNL1       -0.2802
     19 H         -24.1856   51.1666   -8.5951 H       1  UNL1        0.1552
     20 C         -23.1794   52.2873  -10.1137 C.ar    1  UNL1        0.0505
     21 C         -23.3774   53.6127  -10.5253 C.ar    1  UNL1        0.0147
     22 C         -22.3310   54.3393  -11.0963 C.ar    1  UNL1        0.0012
     23 C         -21.0772   53.7489  -11.2673 C.ar    1  UNL1        0.0039
     24 C         -20.8542   52.4232  -10.8579 C.ar    1  UNL1        0.0726
     25 C         -21.9207   51.6888  -10.3084 C.ar    1  UNL1        0.0185
     26 C         -19.5213   51.7615  -11.1035 C.3     1  UNL1        0.4186
     27 F         -19.5979   50.9963  -12.2521 F       1  UNL1       -0.1659
     28 F         -18.5242   52.7090  -11.2584 F       1  UNL1       -0.1659
     29 F         -19.1796   50.9451  -10.0392 F       1  UNL1       -0.1659
     30 C         -24.9977   48.7546   -7.1940 C.3     1  UNL1        0.2525
     31 O         -25.4620   50.0129   -7.6708 O.3     1  UNL1       -0.4696
     32 N         -30.2021   48.5617   -5.3997 N.pl3   1  UNL1       -0.2814
     33 H         -31.2358   48.4352   -5.4602 H       1  UNL1        0.1551
     34 C         -29.4959   47.8888   -4.3442 C.ar    1  UNL1        0.0889
     35 C         -29.4769   48.4237   -3.0406 C.ar    1  UNL1        0.1543
     36 F         -30.1494   49.5660   -2.7506 F       1  UNL1       -0.2028
     37 C         -28.7952   47.7596   -2.0167 C.ar    1  UNL1        0.0310
     38 C         -28.1378   46.5560   -2.2769 C.ar    1  UNL1        0.0033
     39 C         -28.1650   46.0080   -3.5607 C.ar    1  UNL1        0.0128
     40 C         -28.8443   46.6638   -4.5942 C.ar    1  UNL1        0.0733
     41 CL        -28.8281   45.9490   -6.2014 Cl      1  UNL1       -0.0809
@<TRIPOS>BOND
     1    30    31    1
     2    31     1    1
     3     1     2   ar
     4     2    16    1
     5    16    17    2
     6    16    18   am
     7    18    20    1
     8    20    21   ar
     9    21    22   ar
    10    22    23   ar
    11    23    24   ar
    12    24    26    1
    13    26    27    1
    14    26    28    1
    15    26    29    1
    16    24    25   ar
    17     2     3   ar
    18     3     4   ar
    19     4     5   ar
    20     5     6   ar
    21     6     7   ar
    22     7     8   ar
    23     8    32    1
    24    32    34    1
    25    34    35   ar
    26    35    36    1
    27    35    37   ar
    28    37    38   ar
    29    38    39   ar
    30    39    40   ar
    31    40    41    1
    32     8     9   ar
    33     9    10    1
    34     4    11    1
    35    11    12    1
    36    12    13    1
    37    12    14    1
    38    12    15    1
    39     6     1   ar
    40    40    34   ar
    41    25    20   ar
    42    15     3    1
    43     9     5   ar
    44    18    19    1
    45    32    33    1
@<TRIPOS>MOLECULE
*****
 41 45 0 0 0
SMALL
GASTEIGER

@<TRIPOS>ATOM
      1 C         -27.0545   50.8039   -8.3929 C.ar    1  UNL1        0.1649
      2 C         -28.4352   50.9574   -8.7144 C.ar    1  UNL1        0.1226
      3 C         -28.7859   51.2348  -10.0568 C.ar    1  UNL1        0.1430
      4 C         -27.8531   51.3348  -11.0589 C.ar    1  UNL1        0.0329
      5 C         -26.5033   51.1810  -10.7427 C.ar    1  UNL1        0.0819
      6 C         -26.1190   50.9327   -9.4483 C.ar    1  UNL1        0.1337
      7 N         -24.7767   50.8759   -9.3761 N.ar    1  UNL1       -0.2104
      8 C         -24.3775   51.0878  -10.6560 C.ar    1  UNL1        0.2019
      9 N         -25.4090   51.2704  -11.5235 N.ar    1  UNL1       -0.2976
     10 C         -25.3430   51.5627  -12.9552 C.3     1  UNL1        0.1332
     11 C         -28.5230   51.6494  -12.3512 C.3     1  UNL1        0.0709
     12 C         -30.0273   51.7605  -11.9393 C.3     1  UNL1        0.1375
     13 C         -30.5657   53.1787  -12.1713 C.3     1  UNL1        0.0439
     14 C         -30.8910   50.7318  -12.6814 C.3     1  UNL1        0.0439
     15 O         -30.0561   51.4732  -10.5405 O.3     1  UNL1       -0.4823
     16 C         -29.4870   50.8591   -7.6749 C.2     1  UNL1        0.2555
     17 O         -30.5375   50.2009   -7.9072 O.2     1  UNL1       -0.2696
     18 N         -29.3348   51.5427   -6.4203 N.am    1  UNL1       -0.2802
     19 H         -28.7332   52.3974   -6.4009 H       1  UNL1        0.1552
     20 C         -30.0570   51.1968   -5.2260 C.ar    1  UNL1        0.0505
     21 C         -30.8998   52.1473   -4.6330 C.ar    1  UNL1        0.0147
     22 C         -31.5831   51.8478   -3.4530 C.ar    1  UNL1        0.0012
     23 C         -31.4284   50.5981   -2.8496 C.ar    1  UNL1        0.0039
     24 C         -30.5926   49.6280   -3.4285 C.ar    1  UNL1        0.0726
     25 C         -29.8864   49.9467   -4.6026 C.ar    1  UNL1        0.0185
     26 C         -30.3708   48.3030   -2.7430 C.3     1  UNL1        0.4186
     27 F         -29.5054   48.4799   -1.6798 F       1  UNL1       -0.1659
     28 F         -31.5660   47.7886   -2.2709 F       1  UNL1       -0.1659
     29 F         -29.8233   47.3852   -3.6228 F       1  UNL1       -0.1659
     30 C         -26.2542   49.2573   -6.5765 C.3     1  UNL1        0.2525
     31 O         -26.6830   50.5235   -7.0655 O.3     1  UNL1       -0.4696
     32 N         -22.9931   51.1868  -11.0250 N.pl3   1  UNL1       -0.2814
     33 H         -22.5784   50.4419  -11.6261 H       1  UNL1        0.1551
     34 C         -22.2144   52.3680  -10.7725 C.ar    1  UNL1        0.0889
     35 C         -22.8432   53.5779  -10.4165 C.ar    1  UNL1        0.1543
     36 F         -24.1913   53.6427  -10.2755 F       1  UNL1       -0.2028
     37 C         -22.0792   54.7210  -10.1640 C.ar    1  UNL1        0.0310
     38 C         -20.6872   54.6684  -10.2522 C.ar    1  UNL1        0.0033
     39 C         -20.0527   53.4705  -10.5868 C.ar    1  UNL1        0.0128
     40 C         -20.8072   52.3192  -10.8419 C.ar    1  UNL1        0.0733
     41 CL        -19.9652   50.8401  -11.2865 Cl      1  UNL1       -0.0809
@<TRIPOS>BOND
     1    30    31    1
     2    31     1    1
     3     1     2   ar
     4     2    16    1
     5    16    17    2
     6    16    18   am
     7    18    20    1
     8    20    21   ar
     9    21    22   ar
    10    22    23   ar
    11    23    24   ar
    12    24    26    1
    13    26    27    1
    14    26    28    1
    15    26    29    1
    16    24    25   ar
    17     2     3   ar
    18     3     4   ar
    19     4     5   ar
    20     5     6   ar
    21     6     7   ar
    22     7     8   ar
    23     8    32    1
    24    32    34    1
    25    34    35   ar
    26    35    36    1
    27    35    37   ar
    28    37    38   ar
    29    38    39   ar
    30    39    40   ar
    31    40    41    1
    32     8     9   ar
    33     9    10    1
    34     4    11    1
    35    11    12    1
    36    12    13    1
    37    12    14    1
    38    12    15    1
    39     6     1   ar
    40    40    34   ar
    41    25    20   ar
    42    15     3    1
    43     9     5   ar
    44    18    19    1
    45    32    33    1
@<TRIPOS>MOLECULE
*****
 41 45 0 0 0
SMALL
GASTEIGER

@<TRIPOS>ATOM
      1 C         -26.5479   50.8014  -10.7107 C.ar    1  UNL1        0.1649
      2 C         -25.9836   51.0211   -9.4198 C.ar    1  UNL1        0.1226
      3 C         -26.7451   50.6605   -8.2831 C.ar    1  UNL1        0.1430
      4 C         -27.9884   50.0863   -8.3782 C.ar    1  UNL1        0.0329
      5 C         -28.5370   49.8692   -9.6421 C.ar    1  UNL1        0.0819
      6 C         -27.8402   50.2251  -10.7701 C.ar    1  UNL1        0.1337
      7 N         -28.5842   49.9722  -11.8622 N.ar    1  UNL1       -0.2104
      8 C         -29.7310   49.4523  -11.3555 C.ar    1  UNL1        0.2019
      9 N         -29.7349   49.3659   -9.9981 N.ar    1  UNL1       -0.2976
     10 C         -30.8132   48.8994   -9.1267 C.3     1  UNL1        0.1332
     11 C         -28.5425   49.8389   -7.0182 C.3     1  UNL1        0.0709
     12 C         -27.4236   50.4051   -6.0841 C.3     1  UNL1        0.1375
     13 C         -27.9337   51.5960   -5.2616 C.3     1  UNL1        0.0439
     14 C         -26.8597   49.3180   -5.1594 C.3     1  UNL1        0.0439
     15 O         -26.3910   50.8530   -6.9634 O.3     1  UNL1       -0.4823
     16 C         -24.6454   51.6365   -9.2550 C.2     1  UNL1        0.2555
     17 O         -23.8931   51.2574   -8.3163 O.2     1  UNL1       -0.2696
     18 N         -24.2170   52.6900  -10.1332 N.am    1  UNL1       -0.2802
     19 H         -24.9539   53.2805  -10.5815 H       1  UNL1        0.1552
     20 C         -22.8414   53.0588  -10.3313 C.ar    1  UNL1        0.0505
     21 C         -22.4929   54.4161  -10.3725 C.ar    1  UNL1        0.0147
     22 C         -21.1701   54.7996  -10.6004 C.ar    1  UNL1        0.0012
     23 C         -20.1818   53.8324  -10.7947 C.ar    1  UNL1        0.0039
     24 C         -20.5070   52.4659  -10.7531 C.ar    1  UNL1        0.0726
     25 C         -21.8466   52.0878  -10.5501 C.ar    1  UNL1        0.0185
     26 C         -19.4549   51.4214  -11.0301 C.3     1  UNL1        0.4186
     27 F         -18.8016   51.7345  -12.2073 F       1  UNL1       -0.1659
     28 F         -18.5306   51.3708  -10.0010 F       1  UNL1       -0.1659
     29 F         -20.0325   50.1694  -11.1537 F       1  UNL1       -0.1659
     30 C         -26.3558   51.5482  -13.1059 C.3     1  UNL1        0.2525
     31 O         -25.8069   51.1485  -11.8549 O.3     1  UNL1       -0.4696
     32 N         -30.8526   49.1076  -12.1836 N.pl3   1  UNL1       -0.2814
     33 H         -31.7316   49.6625  -12.0962 H       1  UNL1        0.1551
     34 C         -30.7469   48.1685  -13.2664 C.ar    1  UNL1        0.0889
     35 C         -30.3449   46.8395  -13.0251 C.ar    1  UNL1        0.1543
     36 F         -30.0802   46.4139  -11.7641 F       1  UNL1       -0.2028
     37 C         -30.2523   45.9289  -14.0816 C.ar    1  UNL1        0.0310
     38 C         -30.5684   46.3276  -15.3815 C.ar    1  UNL1        0.0033
     39 C         -30.9847   47.6370  -15.6293 C.ar    1  UNL1        0.0128
     40 C         -31.0812   48.5579  -14.5794 C.ar    1  UNL1        0.0733
     41 CL        -31.5840   50.2037  -14.9442 Cl      1  UNL1       -0.0809
@<TRIPOS>BOND
     1    30    31    1
     2    31     1    1
     3     1     2   ar
     4     2    16    1
     5    16    17    2
     6    16    18   am
     7    18    20    1
     8    20    21   ar
     9    21    22   ar
    10    22    23   ar
    11    23    24   ar
    12    24    26    1
    13    26    27    1
    14    26    28    1
    15    26    29    1
    16    24    25   ar
    17     2     3   ar
    18     3     4   ar
    19     4     5   ar
    20     5     6   ar
    21     6     7   ar
    22     7     8   ar
    23     8    32    1
    24    32    34    1
    25    34    35   ar
    26    35    36    1
    27    35    37   ar
    28    37    38   ar
    29    38    39   ar
    30    39    40   ar
    31    40    41    1
    32     8     9   ar
    33     9    10    1
    34     4    11    1
    35    11    12    1
    36    12    13    1
    37    12    14    1
    38    12    15    1
    39     6     1   ar
    40    40    34   ar
    41    25    20   ar
    42    15     3    1
    43     9     5   ar
    44    18    19    1
    45    32    33    1
@<TRIPOS>MOLECULE
*****
 41 45 0 0 0
SMALL
GASTEIGER

@<TRIPOS>ATOM
      1 C         -27.3897   50.0207   -7.4197 C.ar    1  UNL1        0.1649
      2 C         -27.6498   50.4230   -8.7627 C.ar    1  UNL1        0.1226
      3 C         -28.8622   50.0113   -9.3648 C.ar    1  UNL1        0.1430
      4 C         -29.8026   49.2657   -8.6984 C.ar    1  UNL1        0.0329
      5 C         -29.5475   48.8762   -7.3835 C.ar    1  UNL1        0.0819
      6 C         -28.3734   49.2360   -6.7698 C.ar    1  UNL1        0.1337
      7 N         -28.3261   48.7065   -5.5339 N.ar    1  UNL1       -0.2104
      8 C         -29.5001   48.0335   -5.4283 C.ar    1  UNL1        0.2019
      9 N         -30.2788   48.1221   -6.5399 N.ar    1  UNL1       -0.2976
     10 C         -31.5751   47.4907   -6.7863 C.3     1  UNL1        0.1332
     11 C         -30.9551   48.9760   -9.5959 C.3     1  UNL1        0.0709
     12 C         -30.5212   49.6492  -10.9389 C.3     1  UNL1        0.1375
     13 C         -30.3512   48.6091  -12.0544 C.3     1  UNL1        0.0439
     14 C         -31.5137   50.7379  -11.3685 C.3     1  UNL1        0.0439
     15 O         -29.2554   50.2517  -10.6655 O.3     1  UNL1       -0.4823
     16 C         -26.6724   51.2292   -9.5317 C.2     1  UNL1        0.2555
     17 O         -27.0754   52.1867  -10.2470 O.2     1  UNL1       -0.2696
     18 N         -25.2740   50.9006   -9.4992 N.am    1  UNL1       -0.2802
     19 H         -25.0110   49.9090   -9.2985 H       1  UNL1        0.1552
     20 C         -24.2260   51.8208   -9.8489 C.ar    1  UNL1        0.0505
     21 C         -24.5304   53.1798  -10.0105 C.ar    1  UNL1        0.0147
     22 C         -23.5376   54.0867  -10.3857 C.ar    1  UNL1        0.0012
     23 C         -22.2315   53.6461  -10.6087 C.ar    1  UNL1        0.0039
     24 C         -21.9021   52.2894  -10.4482 C.ar    1  UNL1        0.0726
     25 C         -22.9136   51.3773  -10.0965 C.ar    1  UNL1        0.0185
     26 C         -20.5088   51.7999  -10.7543 C.3     1  UNL1        0.4186
     27 F         -20.5716   50.4879  -11.1846 F       1  UNL1       -0.1659
     28 F         -19.9239   52.5715  -11.7436 F       1  UNL1       -0.1659
     29 F         -19.7102   51.8670   -9.6257 F       1  UNL1       -0.1659
     30 C         -26.0945   51.1020   -5.5528 C.3     1  UNL1        0.2525
     31 O         -26.1926   50.4221   -6.7996 O.3     1  UNL1       -0.4696
     32 N         -29.8343   47.2431   -4.2767 N.pl3   1  UNL1       -0.2814
     33 H         -29.7429   46.2056   -4.3351 H       1  UNL1        0.1551
     34 C         -30.0903   47.8313   -2.9906 C.ar    1  UNL1        0.0889
     35 C         -30.9393   48.9496   -2.8707 C.ar    1  UNL1        0.1543
     36 F         -31.5545   49.4725   -3.9613 F       1  UNL1       -0.2028
     37 C         -31.1907   49.5116   -1.6157 C.ar    1  UNL1        0.0310
     38 C         -30.6108   48.9613   -0.4714 C.ar    1  UNL1        0.0033
     39 C         -29.7821   47.8426   -0.5766 C.ar    1  UNL1        0.0128
     40 C         -29.5229   47.2711   -1.8279 C.ar    1  UNL1        0.0733
     41 CL        -28.4509   45.8790   -1.9140 Cl      1  UNL1       -0.0809
@<TRIPOS>BOND
     1    30    31    1
     2    31     1    1
     3     1     2   ar
     4     2    16    1
     5    16    17    2
     6    16    18   am
     7    18    20    1
     8    20    21   ar
     9    21    22   ar
    10    22    23   ar
    11    23    24   ar
    12    24    26    1
    13    26    27    1
    14    26    28    1
    15    26    29    1
    16    24    25   ar
    17     2     3   ar
    18     3     4   ar
    19     4     5   ar
    20     5     6   ar
    21     6     7   ar
    22     7     8   ar
    23     8    32    1
    24    32    34    1
    25    34    35   ar
    26    35    36    1
    27    35    37   ar
    28    37    38   ar
    29    38    39   ar
    30    39    40   ar
    31    40    41    1
    32     8     9   ar
    33     9    10    1
    34     4    11    1
    35    11    12    1
    36    12    13    1
    37    12    14    1
    38    12    15    1
    39     6     1   ar
    40    40    34   ar
    41    25    20   ar
    42    15     3    1
    43     9     5   ar
    44    18    19    1
    45    32    33    1
