@<TRIPOS>MOLECULE
*****
 41 45 0 0 0
SMALL
GASTEIGER

@<TRIPOS>ATOM
      1 C          -6.2960  -19.0294   22.1196 C.ar    1  UNL1        0.0888
      2 C          -5.5256  -20.0955   21.5787 C.ar    1  UNL1        0.0282
      3 C          -4.1493  -19.8950   21.3977 C.ar    1  UNL1        0.0997
      4 N          -3.2466  -20.7604   20.9021 N.ar    1  UNL1       -0.2137
      5 C          -2.0912  -20.0433   20.9486 C.ar    1  UNL1        0.1984
      6 N          -2.2394  -18.7829   21.4333 N.ar    1  UNL1       -0.3255
      7 C          -3.5442  -18.7134   21.7156 C.ar    1  UNL1        0.0755
      8 C          -4.2791  -17.6562   22.2325 C.ar    1  UNL1        0.0325
      9 C          -5.6288  -17.8153   22.4236 C.ar    1  UNL1        0.1401
     10 O          -6.1910  -16.6506   22.9035 O.3     1  UNL1       -0.4824
     11 C          -5.1988  -15.6322   23.0661 C.3     1  UNL1        0.1375
     12 C          -5.5632  -14.4318   22.1826 C.3     1  UNL1        0.0439
     13 C          -5.1452  -15.2149   24.5416 C.3     1  UNL1        0.0439
     14 C          -3.8511  -16.2862   22.6105 C.3     1  UNL1        0.0709
     15 H          -1.5187  -18.0358   21.5464 H       1  UNL1        0.1686
     16 N          -8.3779  -18.7281   23.5301 N.am    1  UNL1       -0.2808
     17 C          -7.7523  -19.1825   22.3214 C.2     1  UNL1        0.2525
     18 O          -8.4489  -19.7392   21.4290 O.2     1  UNL1       -0.2697
     19 H          -7.8089  -18.6828   24.4048 H       1  UNL1        0.1552
     20 C          -9.6020  -16.4115   22.3062 C.3     1  UNL1        0.0323
     21 C         -10.4190  -17.4400   23.0410 C.ar    1  UNL1       -0.0087
     22 C         -11.8098  -17.2806   23.1384 C.ar    1  UNL1        0.0008
     23 C         -12.5969  -18.2262   23.8123 C.ar    1  UNL1        0.0709
     24 C         -11.9738  -19.3284   24.4162 C.ar    1  UNL1        0.0008
     25 C         -10.5886  -19.5231   24.3057 C.ar    1  UNL1       -0.0087
     26 C          -9.9696  -20.7482   24.9255 C.3     1  UNL1        0.0323
     27 C          -9.8005  -18.5611   23.6337 C.ar    1  UNL1        0.0425
     28 C         -14.0825  -18.0110   23.9663 C.3     1  UNL1        0.4186
     29 F         -14.7731  -18.5902   22.9156 F       1  UNL1       -0.1659
     30 F         -14.3459  -16.6542   23.9844 F       1  UNL1       -0.1659
     31 F         -14.5398  -18.5748   25.1451 F       1  UNL1       -0.1659
     32 N          -0.8425  -20.5742   20.4878 N.pl3   1  UNL1       -0.2816
     33 H          -0.8673  -21.3581   19.7976 H       1  UNL1        0.1551
     34 C           0.4172  -19.9471   20.7640 C.ar    1  UNL1        0.0889
     35 C           0.5989  -18.5947   20.4335 C.ar    1  UNL1        0.1543
     36 F          -0.4150  -17.8850   19.8776 F       1  UNL1       -0.2028
     37 C           1.8189  -17.9635   20.6933 C.ar    1  UNL1        0.0310
     38 C           2.8695  -18.6798   21.2702 C.ar    1  UNL1        0.0033
     39 C           2.7075  -20.0324   21.5790 C.ar    1  UNL1        0.0128
     40 C           1.4897  -20.6743   21.3230 C.ar    1  UNL1        0.0733
     41 CL          1.3614  -22.3984   21.6509 Cl      1  UNL1       -0.0809
@<TRIPOS>BOND
     1    20    21    1
     2    21    22   ar
     3    22    23   ar
     4    23    28    1
     5    28    29    1
     6    28    30    1
     7    28    31    1
     8    23    24   ar
     9    24    25   ar
    10    25    26    1
    11    25    27   ar
    12    27    16    1
    13    16    17   am
    14    17    18    2
    15    17     1    1
    16     1     2   ar
    17     2     3   ar
    18     3     4   ar
    19     4     5   ar
    20     5    32    1
    21    32    34    1
    22    34    35   ar
    23    35    36    1
    24    35    37   ar
    25    37    38   ar
    26    38    39   ar
    27    39    40   ar
    28    40    41    1
    29     5     6   ar
    30     6     7   ar
    31     7     8   ar
    32     8     9   ar
    33     9    10    1
    34    10    11    1
    35    11    12    1
    36    11    13    1
    37    11    14    1
    38    27    21   ar
    39     9     1   ar
    40     7     3   ar
    41    14     8    1
    42    40    34   ar
    43    16    19    1
    44    32    33    1
    45     6    15    1
@<TRIPOS>MOLECULE
*****
 41 45 0 0 0
SMALL
GASTEIGER

@<TRIPOS>ATOM
      1 C          -6.0249  -16.2318   25.2145 C.ar    1  UNL1        0.0888
      2 C          -5.8639  -15.5512   26.4528 C.ar    1  UNL1        0.0282
      3 C          -7.0050  -15.0207   27.0723 C.ar    1  UNL1        0.0997
      4 N          -7.0757  -14.3434   28.2323 N.ar    1  UNL1       -0.2137
      5 C          -8.4047  -14.0708   28.3364 C.ar    1  UNL1        0.1984
      6 N          -9.1490  -14.5326   27.2980 N.ar    1  UNL1       -0.3255
      7 C          -8.2464  -15.1335   26.5160 C.ar    1  UNL1        0.0755
      8 C          -8.4241  -15.7822   25.3026 C.ar    1  UNL1        0.0325
      9 C          -7.3305  -16.3142   24.6666 C.ar    1  UNL1        0.1401
     10 O          -7.6972  -16.8797   23.4630 O.3     1  UNL1       -0.4824
     11 C          -9.1056  -16.7500   23.2443 C.3     1  UNL1        0.1375
     12 C          -9.3412  -15.9461   21.9589 C.3     1  UNL1        0.0439
     13 C          -9.7254  -18.1483   23.1230 C.3     1  UNL1        0.0439
     14 C          -9.6545  -15.9913   24.4991 C.3     1  UNL1        0.0709
     15 H         -10.1752  -14.4334   27.1326 H       1  UNL1        0.1686
     16 N          -4.8622  -16.9662   23.0876 N.am    1  UNL1       -0.2808
     17 C          -4.8549  -16.8010   24.5129 C.2     1  UNL1        0.2525
     18 O          -3.8472  -17.1657   25.1786 O.2     1  UNL1       -0.2697
     19 H          -5.7777  -17.0891   22.6001 H       1  UNL1        0.1552
     20 C          -4.1468  -19.6886   22.4246 C.3     1  UNL1        0.0323
     21 C          -3.2907  -18.5235   22.0062 C.ar    1  UNL1       -0.0087
     22 C          -2.1155  -18.7536   21.2746 C.ar    1  UNL1        0.0008
     23 C          -1.3014  -17.6867   20.8665 C.ar    1  UNL1        0.0709
     24 C          -1.6608  -16.3780   21.2219 C.ar    1  UNL1        0.0008
     25 C          -2.8467  -16.1226   21.9270 C.ar    1  UNL1       -0.0087
     26 C          -3.2192  -14.6977   22.2416 C.3     1  UNL1        0.0323
     27 C          -3.6571  -17.2034   22.3435 C.ar    1  UNL1        0.0425
     28 C          -0.0072  -17.9506   20.1368 C.3     1  UNL1        0.4186
     29 F          -0.1182  -19.0717   19.3323 F       1  UNL1       -0.1659
     30 F           1.0010  -18.1569   21.0595 F       1  UNL1       -0.1659
     31 F           0.3303  -16.8753   19.3329 F       1  UNL1       -0.1659
     32 N          -8.9493  -13.3277   29.4340 N.pl3   1  UNL1       -0.2816
     33 H          -9.3742  -13.8615   30.2252 H       1  UNL1        0.1551
     34 C          -8.7498  -11.9164   29.5915 C.ar    1  UNL1        0.0889
     35 C          -7.4417  -11.4096   29.6499 C.ar    1  UNL1        0.1543
     36 F          -6.3792  -12.2457   29.5377 F       1  UNL1       -0.2028
     37 C          -7.2239  -10.0373   29.8037 C.ar    1  UNL1        0.0310
     38 C          -8.3077   -9.1640   29.9150 C.ar    1  UNL1        0.0033
     39 C          -9.6128   -9.6611   29.8839 C.ar    1  UNL1        0.0128
     40 C          -9.8421  -11.0338   29.7302 C.ar    1  UNL1        0.0733
     41 CL        -11.4999  -11.6215   29.7816 Cl      1  UNL1       -0.0809
@<TRIPOS>BOND
     1    20    21    1
     2    21    22   ar
     3    22    23   ar
     4    23    28    1
     5    28    29    1
     6    28    30    1
     7    28    31    1
     8    23    24   ar
     9    24    25   ar
    10    25    26    1
    11    25    27   ar
    12    27    16    1
    13    16    17   am
    14    17    18    2
    15    17     1    1
    16     1     2   ar
    17     2     3   ar
    18     3     4   ar
    19     4     5   ar
    20     5    32    1
    21    32    34    1
    22    34    35   ar
    23    35    36    1
    24    35    37   ar
    25    37    38   ar
    26    38    39   ar
    27    39    40   ar
    28    40    41    1
    29     5     6   ar
    30     6     7   ar
    31     7     8   ar
    32     8     9   ar
    33     9    10    1
    34    10    11    1
    35    11    12    1
    36    11    13    1
    37    11    14    1
    38    27    21   ar
    39     9     1   ar
    40     7     3   ar
    41    14     8    1
    42    40    34   ar
    43    16    19    1
    44    32    33    1
    45     6    15    1
@<TRIPOS>MOLECULE
*****
 41 45 0 0 0
SMALL
GASTEIGER

@<TRIPOS>ATOM
      1 C          -6.1043  -16.2482   25.3070 C.ar    1  UNL1        0.0888
      2 C          -5.9805  -15.6088   26.5713 C.ar    1  UNL1        0.0282
      3 C          -7.1290  -15.0436   27.1448 C.ar    1  UNL1        0.0997
      4 N          -7.2324  -14.3948   28.3186 N.ar    1  UNL1       -0.2137
      5 C          -8.5517  -14.0648   28.3603 C.ar    1  UNL1        0.1984
      6 N          -9.2585  -14.4647   27.2712 N.ar    1  UNL1       -0.3255
      7 C          -8.3423  -15.0850   26.5208 C.ar    1  UNL1        0.0755
      8 C          -8.4827  -15.6924   25.2815 C.ar    1  UNL1        0.0325
      9 C          -7.3808  -16.2566   24.6889 C.ar    1  UNL1        0.1401
     10 O          -7.7065  -16.7726   23.4517 O.3     1  UNL1       -0.4824
     11 C          -9.0939  -16.5733   23.1630 C.3     1  UNL1        0.1375
     12 C          -9.2242  -15.7256   21.8907 C.3     1  UNL1        0.0439
     13 C          -9.7672  -17.9382   22.9686 C.3     1  UNL1        0.0439
     14 C          -9.6758  -15.8239   24.4085 C.3     1  UNL1        0.0709
     15 H         -10.2689  -14.3145   27.0549 H       1  UNL1        0.1686
     16 N          -4.8917  -17.0430   23.2303 N.am    1  UNL1       -0.2808
     17 C          -4.9243  -16.8512   24.6519 C.2     1  UNL1        0.2525
     18 O          -3.9440  -17.2211   25.3546 O.2     1  UNL1       -0.2697
     19 H          -5.7942  -17.1589   22.7175 H       1  UNL1        0.1552
     20 C          -3.2943  -14.8197   22.2987 C.3     1  UNL1        0.0323
     21 C          -2.8727  -16.2459   22.0673 C.ar    1  UNL1       -0.0087
     22 C          -1.6758  -16.5134   21.3854 C.ar    1  UNL1        0.0008
     23 C          -1.2552  -17.8326   21.1606 C.ar    1  UNL1        0.0709
     24 C          -2.0613  -18.8918   21.6035 C.ar    1  UNL1        0.0008
     25 C          -3.2466  -18.6473   22.3135 C.ar    1  UNL1       -0.0087
     26 C          -4.0538  -19.8156   22.8153 C.3     1  UNL1        0.0323
     27 C          -3.6692  -17.3156   22.5277 C.ar    1  UNL1        0.0425
     28 C           0.0001  -18.1085   20.3699 C.3     1  UNL1        0.4186
     29 F           0.5011  -16.9400   19.8224 F       1  UNL1       -0.1659
     30 F          -0.2907  -18.9949   19.3500 F       1  UNL1       -0.1659
     31 F           0.9786  -18.6587   21.1800 F       1  UNL1       -0.1659
     32 N          -9.1216  -13.3272   29.4487 N.pl3   1  UNL1       -0.2816
     33 H          -9.4156  -13.8569   30.2999 H       1  UNL1        0.1551
     34 C          -9.1102  -11.8944   29.5061 C.ar    1  UNL1        0.0889
     35 C         -10.3127  -11.1901   29.3355 C.ar    1  UNL1        0.1543
     36 F         -11.4755  -11.8609   29.1389 F       1  UNL1       -0.2028
     37 C         -10.3246   -9.7931   29.3870 C.ar    1  UNL1        0.0310
     38 C          -9.1365   -9.0895   29.5940 C.ar    1  UNL1        0.0033
     39 C          -7.9308   -9.7798   29.7392 C.ar    1  UNL1        0.0128
     40 C          -7.9077  -11.1789   29.6894 C.ar    1  UNL1        0.0733
     41 CL         -6.3546  -11.9996   29.7928 Cl      1  UNL1       -0.0809
@<TRIPOS>BOND
     1    20    21    1
     2    21    22   ar
     3    22    23   ar
     4    23    28    1
     5    28    29    1
     6    28    30    1
     7    28    31    1
     8    23    24   ar
     9    24    25   ar
    10    25    26    1
    11    25    27   ar
    12    27    16    1
    13    16    17   am
    14    17    18    2
    15    17     1    1
    16     1     2   ar
    17     2     3   ar
    18     3     4   ar
    19     4     5   ar
    20     5    32    1
    21    32    34    1
    22    34    35   ar
    23    35    36    1
    24    35    37   ar
    25    37    38   ar
    26    38    39   ar
    27    39    40   ar
    28    40    41    1
    29     5     6   ar
    30     6     7   ar
    31     7     8   ar
    32     8     9   ar
    33     9    10    1
    34    10    11    1
    35    11    12    1
    36    11    13    1
    37    11    14    1
    38    27    21   ar
    39     9     1   ar
    40     7     3   ar
    41    14     8    1
    42    40    34   ar
    43    16    19    1
    44    32    33    1
    45     6    15    1
@<TRIPOS>MOLECULE
*****
 41 45 0 0 0
SMALL
GASTEIGER

@<TRIPOS>ATOM
      1 C          -6.5939  -18.4290   22.2312 C.ar    1  UNL1        0.0888
      2 C          -5.9511  -19.3710   21.3815 C.ar    1  UNL1        0.0282
      3 C          -4.5504  -19.4395   21.4056 C.ar    1  UNL1        0.0997
      4 N          -3.7503  -20.2471   20.6866 N.ar    1  UNL1       -0.2137
      5 C          -2.5077  -19.8815   21.1032 C.ar    1  UNL1        0.1984
      6 N          -2.5028  -18.8862   22.0278 N.ar    1  UNL1       -0.3255
      7 C          -3.8019  -18.6273   22.2078 C.ar    1  UNL1        0.0755
      8 C          -4.4080  -17.6928   23.0349 C.ar    1  UNL1        0.0325
      9 C          -5.7771  -17.5966   23.0383 C.ar    1  UNL1        0.1401
     10 O          -6.1903  -16.5911   23.8875 O.3     1  UNL1       -0.4824
     11 C          -5.0705  -15.9584   24.5150 C.3     1  UNL1        0.1375
     12 C          -5.0633  -14.4696   24.1439 C.3     1  UNL1        0.0439
     13 C          -5.1835  -16.1312   26.0353 C.3     1  UNL1        0.0439
     14 C          -3.8071  -16.6917   23.9513 C.3     1  UNL1        0.0709
     15 H          -1.6873  -18.4182   22.4819 H       1  UNL1        0.1686
     16 N          -8.8787  -19.2507   22.9519 N.am    1  UNL1       -0.2808
     17 C          -8.0671  -18.3070   22.2381 C.2     1  UNL1        0.2525
     18 O          -8.6171  -17.3744   21.5905 O.2     1  UNL1       -0.2697
     19 H          -8.5106  -20.2159   23.1057 H       1  UNL1        0.1552
     20 C         -10.8452  -19.5745   20.8564 C.3     1  UNL1        0.0323
     21 C         -11.2357  -19.1474   22.2458 C.ar    1  UNL1       -0.0087
     22 C         -12.5848  -18.8998   22.5419 C.ar    1  UNL1        0.0008
     23 C         -12.9783  -18.5061   23.8295 C.ar    1  UNL1        0.0709
     24 C         -12.0004  -18.3347   24.8205 C.ar    1  UNL1        0.0008
     25 C         -10.6496  -18.6056   24.5546 C.ar    1  UNL1       -0.0087
     26 C          -9.6411  -18.4582   25.6634 C.3     1  UNL1        0.0323
     27 C         -10.2591  -18.9924   23.2522 C.ar    1  UNL1        0.0425
     28 C         -14.4230  -18.1799   24.1190 C.3     1  UNL1        0.4186
     29 F         -14.6206  -16.8101   24.1436 F       1  UNL1       -0.1659
     30 F         -14.7703  -18.7069   25.3488 F       1  UNL1       -0.1659
     31 F         -15.2508  -18.7172   23.1483 F       1  UNL1       -0.1659
     32 N          -1.3172  -20.4791   20.5748 N.pl3   1  UNL1       -0.2816
     33 H          -1.4229  -21.2707   19.9011 H       1  UNL1        0.1551
     34 C          -0.0141  -19.9104   20.7613 C.ar    1  UNL1        0.0889
     35 C           0.9893  -20.6775   21.3745 C.ar    1  UNL1        0.1543
     36 F           0.7323  -21.9504   21.7672 F       1  UNL1       -0.2028
     37 C           2.2665  -20.1427   21.5669 C.ar    1  UNL1        0.0310
     38 C           2.5472  -18.8360   21.1629 C.ar    1  UNL1        0.0033
     39 C           1.5486  -18.0557   20.5753 C.ar    1  UNL1        0.0128
     40 C           0.2660  -18.5815   20.3779 C.ar    1  UNL1        0.0733
     41 CL         -0.9804  -17.5332   19.7116 Cl      1  UNL1       -0.0809
@<TRIPOS>BOND
     1    20    21    1
     2    21    22   ar
     3    22    23   ar
     4    23    28    1
     5    28    29    1
     6    28    30    1
     7    28    31    1
     8    23    24   ar
     9    24    25   ar
    10    25    26    1
    11    25    27   ar
    12    27    16    1
    13    16    17   am
    14    17    18    2
    15    17     1    1
    16     1     2   ar
    17     2     3   ar
    18     3     4   ar
    19     4     5   ar
    20     5    32    1
    21    32    34    1
    22    34    35   ar
    23    35    36    1
    24    35    37   ar
    25    37    38   ar
    26    38    39   ar
    27    39    40   ar
    28    40    41    1
    29     5     6   ar
    30     6     7   ar
    31     7     8   ar
    32     8     9   ar
    33     9    10    1
    34    10    11    1
    35    11    12    1
    36    11    13    1
    37    11    14    1
    38    27    21   ar
    39     9     1   ar
    40     7     3   ar
    41    14     8    1
    42    40    34   ar
    43    16    19    1
    44    32    33    1
    45     6    15    1
@<TRIPOS>MOLECULE
*****
 41 45 0 0 0
SMALL
GASTEIGER

@<TRIPOS>ATOM
      1 C          -7.4902  -13.1597   28.4685 C.ar    1  UNL1        0.0888
      2 C          -8.7411  -13.6278   28.9568 C.ar    1  UNL1        0.0282
      3 C          -9.3164  -12.9661   30.0515 C.ar    1  UNL1        0.0997
      4 N         -10.4791  -13.2452   30.6676 N.ar    1  UNL1       -0.2137
      5 C         -10.5288  -12.3038   31.6487 C.ar    1  UNL1        0.1984
      6 N          -9.4547  -11.4724   31.6750 N.ar    1  UNL1       -0.3255
      7 C          -8.7061  -11.9048   30.6553 C.ar    1  UNL1        0.0755
      8 C          -7.4797  -11.4400   30.2031 C.ar    1  UNL1        0.0325
      9 C          -6.8859  -12.0625   29.1338 C.ar    1  UNL1        0.1401
     10 O          -5.6619  -11.4893   28.8576 O.3     1  UNL1       -0.4824
     11 C          -5.3842  -10.4147   29.7611 C.3     1  UNL1        0.1375
     12 C          -4.0981  -10.7309   30.5358 C.3     1  UNL1        0.0439
     13 C          -5.2220   -9.1156   28.9609 C.3     1  UNL1        0.0439
     14 C          -6.6219  -10.3432   30.7173 C.3     1  UNL1        0.0709
     15 H          -9.2464  -10.6923   32.3371 H       1  UNL1        0.1686
     16 N          -7.3899  -15.0186   26.7512 N.am    1  UNL1       -0.2808
     17 C          -6.8337  -13.8264   27.3242 C.2     1  UNL1        0.2525
     18 O          -5.7601  -13.3530   26.8607 O.2     1  UNL1       -0.2697
     19 H          -7.9763  -15.6394   27.3524 H       1  UNL1        0.1552
     20 C          -4.6600  -15.9066   26.4018 C.3     1  UNL1        0.0323
     21 C          -5.6539  -15.9478   25.2723 C.ar    1  UNL1       -0.0087
     22 C          -5.2561  -16.4291   24.0156 C.ar    1  UNL1        0.0008
     23 C          -6.1625  -16.4842   22.9464 C.ar    1  UNL1        0.0709
     24 C          -7.4742  -16.0255   23.1381 C.ar    1  UNL1        0.0008
     25 C          -7.9015  -15.5684   24.3940 C.ar    1  UNL1       -0.0087
     26 C          -9.3333  -15.1344   24.5669 C.3     1  UNL1        0.0323
     27 C          -6.9801  -15.5063   25.4641 C.ar    1  UNL1        0.0425
     28 C          -5.7064  -16.9426   21.5829 C.3     1  UNL1        0.4186
     29 F          -6.6742  -17.7284   20.9810 F       1  UNL1       -0.1659
     30 F          -4.5458  -17.6813   21.7163 F       1  UNL1       -0.1659
     31 F          -5.4584  -15.8582   20.7589 F       1  UNL1       -0.1659
     32 N         -11.6095  -12.2334   32.5872 N.pl3   1  UNL1       -0.2816
     33 H         -11.9976  -11.2914   32.8188 H       1  UNL1        0.1551
     34 C         -12.3110  -13.3943   33.0523 C.ar    1  UNL1        0.0889
     35 C         -13.5001  -13.7808   32.4136 C.ar    1  UNL1        0.1543
     36 F         -13.9678  -13.0735   31.3545 F       1  UNL1       -0.2028
     37 C         -14.2004  -14.9088   32.8509 C.ar    1  UNL1        0.0310
     38 C         -13.7282  -15.6496   33.9362 C.ar    1  UNL1        0.0033
     39 C         -12.5600  -15.2586   34.5948 C.ar    1  UNL1        0.0128
     40 C         -11.8508  -14.1305   34.1649 C.ar    1  UNL1        0.0733
     41 CL        -10.4326  -13.6291   35.0780 Cl      1  UNL1       -0.0809
@<TRIPOS>BOND
     1    20    21    1
     2    21    22   ar
     3    22    23   ar
     4    23    28    1
     5    28    29    1
     6    28    30    1
     7    28    31    1
     8    23    24   ar
     9    24    25   ar
    10    25    26    1
    11    25    27   ar
    12    27    16    1
    13    16    17   am
    14    17    18    2
    15    17     1    1
    16     1     2   ar
    17     2     3   ar
    18     3     4   ar
    19     4     5   ar
    20     5    32    1
    21    32    34    1
    22    34    35   ar
    23    35    36    1
    24    35    37   ar
    25    37    38   ar
    26    38    39   ar
    27    39    40   ar
    28    40    41    1
    29     5     6   ar
    30     6     7   ar
    31     7     8   ar
    32     8     9   ar
    33     9    10    1
    34    10    11    1
    35    11    12    1
    36    11    13    1
    37    11    14    1
    38    27    21   ar
    39     9     1   ar
    40     7     3   ar
    41    14     8    1
    42    40    34   ar
    43    16    19    1
    44    32    33    1
    45     6    15    1
@<TRIPOS>MOLECULE
*****
 41 45 0 0 0
SMALL
GASTEIGER

@<TRIPOS>ATOM
      1 C          -7.4834  -13.1712   28.4474 C.ar    1  UNL1        0.0888
      2 C          -8.7247  -13.6460   28.9536 C.ar    1  UNL1        0.0282
      3 C          -9.3003  -12.9717   30.0404 C.ar    1  UNL1        0.0997
      4 N         -10.4548  -13.2541   30.6703 N.ar    1  UNL1       -0.2137
      5 C         -10.5092  -12.2955   31.6344 C.ar    1  UNL1        0.1984
      6 N          -9.4457  -11.4503   31.6374 N.ar    1  UNL1       -0.3255
      7 C          -8.6992  -11.8918   30.6200 C.ar    1  UNL1        0.0755
      8 C          -7.4821  -11.4200   30.1502 C.ar    1  UNL1        0.0325
      9 C          -6.8883  -12.0544   29.0879 C.ar    1  UNL1        0.1401
     10 O          -5.6738  -11.4709   28.7920 O.3     1  UNL1       -0.4824
     11 C          -5.4032  -10.3765   29.6735 C.3     1  UNL1        0.1375
     12 C          -4.1075  -10.6622   30.4441 C.3     1  UNL1        0.0439
     13 C          -5.2635   -9.0905   28.8486 C.3     1  UNL1        0.0439
     14 C          -6.6347  -10.3032   30.6377 C.3     1  UNL1        0.0709
     15 H          -9.2425  -10.6556   32.2836 H       1  UNL1        0.1686
     16 N          -7.3856  -15.0463   26.7477 N.am    1  UNL1       -0.2808
     17 C          -6.8270  -13.8505   27.3104 C.2     1  UNL1        0.2525
     18 O          -5.7512  -13.3845   26.8443 O.2     1  UNL1       -0.2697
     19 H          -7.9748  -15.6599   27.3537 H       1  UNL1        0.1552
     20 C          -9.3169  -15.1203   24.5966 C.3     1  UNL1        0.0323
     21 C          -7.9001  -15.5891   24.4014 C.ar    1  UNL1       -0.0087
     22 C          -7.4964  -16.0740   23.1480 C.ar    1  UNL1        0.0008
     23 C          -6.1809  -16.5122   22.9357 C.ar    1  UNL1        0.0709
     24 C          -5.2712  -16.4864   24.0033 C.ar    1  UNL1        0.0008
     25 C          -5.6451  -15.9779   25.2565 C.ar    1  UNL1       -0.0087
     26 C          -4.6206  -15.9212   26.3590 C.3     1  UNL1        0.0323
     27 C          -6.9751  -15.5473   25.4659 C.ar    1  UNL1        0.0425
     28 C          -5.7759  -17.0917   21.6025 C.3     1  UNL1        0.4186
     29 F          -6.8266  -17.7895   21.0321 F       1  UNL1       -0.1659
     30 F          -4.7106  -17.9531   21.7861 F       1  UNL1       -0.1659
     31 F          -5.3988  -16.0886   20.7263 F       1  UNL1       -0.1659
     32 N         -11.5838  -12.2215   32.5796 N.pl3   1  UNL1       -0.2816
     33 H         -11.9701  -11.2787   32.8106 H       1  UNL1        0.1551
     34 C         -12.2826  -13.3807   33.0533 C.ar    1  UNL1        0.0889
     35 C         -13.4738  -13.7711   32.4210 C.ar    1  UNL1        0.1543
     36 F         -13.9461  -13.0695   31.3601 F       1  UNL1       -0.2028
     37 C         -14.1717  -14.8975   32.8666 C.ar    1  UNL1        0.0310
     38 C         -13.6948  -15.6325   33.9537 C.ar    1  UNL1        0.0033
     39 C         -12.5244  -15.2374   34.6059 C.ar    1  UNL1        0.0128
     40 C         -11.8176  -14.1109   34.1677 C.ar    1  UNL1        0.0733
     41 CL        -10.3963  -13.6040   35.0729 Cl      1  UNL1       -0.0809
@<TRIPOS>BOND
     1    20    21    1
     2    21    22   ar
     3    22    23   ar
     4    23    28    1
     5    28    29    1
     6    28    30    1
     7    28    31    1
     8    23    24   ar
     9    24    25   ar
    10    25    26    1
    11    25    27   ar
    12    27    16    1
    13    16    17   am
    14    17    18    2
    15    17     1    1
    16     1     2   ar
    17     2     3   ar
    18     3     4   ar
    19     4     5   ar
    20     5    32    1
    21    32    34    1
    22    34    35   ar
    23    35    36    1
    24    35    37   ar
    25    37    38   ar
    26    38    39   ar
    27    39    40   ar
    28    40    41    1
    29     5     6   ar
    30     6     7   ar
    31     7     8   ar
    32     8     9   ar
    33     9    10    1
    34    10    11    1
    35    11    12    1
    36    11    13    1
    37    11    14    1
    38    27    21   ar
    39     9     1   ar
    40     7     3   ar
    41    14     8    1
    42    40    34   ar
    43    16    19    1
    44    32    33    1
    45     6    15    1
@<TRIPOS>MOLECULE
*****
 41 45 0 0 0
SMALL
GASTEIGER

@<TRIPOS>ATOM
      1 C          -7.4125  -13.0842   28.5071 C.ar    1  UNL1        0.0888
      2 C          -8.6262  -13.5580   29.0771 C.ar    1  UNL1        0.0282
      3 C          -9.1535  -12.8723   30.1812 C.ar    1  UNL1        0.0997
      4 N         -10.2757  -13.1517   30.8682 N.ar    1  UNL1       -0.2137
      5 C         -10.2896  -12.1811   31.8216 C.ar    1  UNL1        0.1984
      6 N          -9.2313  -11.3312   31.7639 N.ar    1  UNL1       -0.3255
      7 C          -8.5312  -11.7824   30.7182 C.ar    1  UNL1        0.0755
      8 C          -7.3400  -11.3113   30.1857 C.ar    1  UNL1        0.0325
      9 C          -6.7936  -11.9567   29.1047 C.ar    1  UNL1        0.1401
     10 O          -5.5972  -11.3717   28.7447 O.3     1  UNL1       -0.4824
     11 C          -5.2911  -10.2649   29.5986 C.3     1  UNL1        0.1375
     12 C          -3.9592  -10.5349   30.3109 C.3     1  UNL1        0.0439
     13 C          -5.1968   -8.9889   28.7518 C.3     1  UNL1        0.0439
     14 C          -6.4762  -10.1846   30.6187 C.3     1  UNL1        0.0709
     15 H          -9.0020  -10.5274   32.3897 H       1  UNL1        0.1686
     16 N          -7.3989  -14.9673   26.8134 N.am    1  UNL1       -0.2808
     17 C          -6.8068  -13.7752   27.3492 C.2     1  UNL1        0.2525
     18 O          -5.7447  -13.3226   26.8406 O.2     1  UNL1       -0.2697
     19 H          -7.9711  -15.5721   27.4441 H       1  UNL1        0.1552
     20 C          -4.6890  -15.8749   26.3711 C.3     1  UNL1        0.0323
     21 C          -5.7269  -15.9292   25.2825 C.ar    1  UNL1       -0.0087
     22 C          -5.3813  -16.4328   24.0191 C.ar    1  UNL1        0.0008
     23 C          -6.3295  -16.5006   22.9876 C.ar    1  UNL1        0.0709
     24 C          -7.6306  -16.0321   23.2234 C.ar    1  UNL1        0.0008
     25 C          -8.0058  -15.5525   24.4875 C.ar    1  UNL1       -0.0087
     26 C          -9.4277  -15.1085   24.7098 C.3     1  UNL1        0.0323
     27 C          -7.0425  -15.4779   25.5193 C.ar    1  UNL1        0.0425
     28 C          -5.9298  -16.9832   21.6148 C.3     1  UNL1        0.4186
     29 F          -6.9297  -17.7627   21.0591 F       1  UNL1       -0.1659
     30 F          -4.7755  -17.7368   21.7162 F       1  UNL1       -0.1659
     31 F          -5.6967  -15.9134   20.7678 F       1  UNL1       -0.1659
     32 N         -11.3189  -12.0997   32.8153 N.pl3   1  UNL1       -0.2816
     33 H         -11.6007  -11.1522   33.1535 H       1  UNL1        0.1551
     34 C         -12.1142  -13.2279   33.2039 C.ar    1  UNL1        0.0889
     35 C         -11.6628  -14.0635   34.2380 C.ar    1  UNL1        0.1543
     36 F         -10.4962  -13.7926   34.8754 F       1  UNL1       -0.2028
     37 C         -12.4217  -15.1692   34.6325 C.ar    1  UNL1        0.0310
     38 C         -13.6271  -15.4573   33.9894 C.ar    1  UNL1        0.0033
     39 C         -14.0723  -14.6470   32.9422 C.ar    1  UNL1        0.0128
     40 C         -13.3200  -13.5371   32.5391 C.ar    1  UNL1        0.0733
     41 CL        -13.8790  -12.5965   31.1610 Cl      1  UNL1       -0.0809
@<TRIPOS>BOND
     1    20    21    1
     2    21    22   ar
     3    22    23   ar
     4    23    28    1
     5    28    29    1
     6    28    30    1
     7    28    31    1
     8    23    24   ar
     9    24    25   ar
    10    25    26    1
    11    25    27   ar
    12    27    16    1
    13    16    17   am
    14    17    18    2
    15    17     1    1
    16     1     2   ar
    17     2     3   ar
    18     3     4   ar
    19     4     5   ar
    20     5    32    1
    21    32    34    1
    22    34    35   ar
    23    35    36    1
    24    35    37   ar
    25    37    38   ar
    26    38    39   ar
    27    39    40   ar
    28    40    41    1
    29     5     6   ar
    30     6     7   ar
    31     7     8   ar
    32     8     9   ar
    33     9    10    1
    34    10    11    1
    35    11    12    1
    36    11    13    1
    37    11    14    1
    38    27    21   ar
    39     9     1   ar
    40     7     3   ar
    41    14     8    1
    42    40    34   ar
    43    16    19    1
    44    32    33    1
    45     6    15    1
