@<TRIPOS>MOLECULE
*****
 32 35 0 0 0
SMALL
GASTEIGER

@<TRIPOS>ATOM
      1 N         -24.1534  -10.1470  -11.5246 N.ar    1  UNL1       -0.3245
      2 C         -23.8535  -11.0007  -12.5421 C.ar    1  UNL1        0.0600
      3 C         -24.7003  -11.4712  -13.5568 C.ar    1  UNL1        0.0177
      4 C         -24.1674  -12.3470  -14.5194 C.ar    1  UNL1        0.0082
      5 C         -22.8123  -12.7359  -14.4638 C.ar    1  UNL1        0.0347
      6 BR        -22.1082  -13.9233  -15.7829 Br      1  UNL1       -0.0490
      7 C         -21.9766  -12.2486  -13.4449 C.ar    1  UNL1        0.0082
      8 C         -22.5333  -11.3832  -12.5033 C.ar    1  UNL1        0.0177
      9 C         -21.9756  -10.7403  -11.4285 C.ar    1  UNL1        0.0175
     10 C         -20.6678  -10.7748  -10.9598 C.ar    1  UNL1        0.0082
     11 C         -20.3548  -10.0120   -9.8331 C.ar    1  UNL1        0.0344
     12 BR        -18.5734  -10.0302   -9.1438 Br      1  UNL1       -0.0490
     13 C         -21.3433   -9.2377   -9.2000 C.ar    1  UNL1        0.0063
     14 C         -22.6789   -9.1930   -9.6830 C.ar    1  UNL1        0.0232
     15 C         -22.9770   -9.9801  -10.8348 C.ar    1  UNL1        0.0583
     16 C         -23.7185   -8.3864   -8.9305 C.3     1  UNL1        0.1650
     17 O         -23.4092   -8.2475   -7.5678 O.3     1  UNL1       -0.3772
     18 H         -23.8012   -9.0311   -7.1002 H       1  UNL1        0.2109
     19 C         -25.4550   -9.4848  -11.3499 C.3     1  UNL1        0.1429
     20 C         -25.6980   -8.4646  -12.4721 C.3     1  UNL1        0.2027
     21 F         -26.8946   -8.7519  -13.1072 F       1  UNL1       -0.2334
     22 C         -25.7536   -7.0377  -11.9127 C.3     1  UNL1        0.1259
     23 N         -24.6397   -6.2375  -12.4240 N.pl3   1  UNL1       -0.3157
     24 H         -24.8453   -5.2533  -12.7099 H       1  UNL1        0.1483
     25 C         -21.7652   -8.0789  -13.8079 C.ar    1  UNL1        0.2261
     26 C         -20.7118   -7.6846  -12.9804 C.ar    1  UNL1        0.0578
     27 C         -20.9568   -6.7850  -11.9431 C.ar    1  UNL1        0.0077
     28 C         -22.2457   -6.2899  -11.7386 C.ar    1  UNL1        0.0343
     29 C         -23.2906   -6.7113  -12.5812 C.ar    1  UNL1        0.1317
     30 N         -23.0164   -7.5849  -13.5895 N.ar    1  UNL1       -0.1969
     31 C         -22.4294   -9.1689  -15.9289 C.3     1  UNL1        0.2542
     32 O         -21.5210   -8.9768  -14.8510 O.3     1  UNL1       -0.4561
@<TRIPOS>BOND
     1    31    32    1
     2    32    25    1
     3    25    26   ar
     4    26    27   ar
     5    27    28   ar
     6    28    29   ar
     7    29    23    1
     8    23    22    1
     9    22    20    1
    10    20    21    1
    11    20    19    1
    12    19     1    1
    13     1     2   ar
    14     2     3   ar
    15     3     4   ar
    16     4     5   ar
    17     5     6    1
    18     5     7   ar
    19     7     8   ar
    20     8     9   ar
    21     9    10   ar
    22    10    11   ar
    23    11    12    1
    24    11    13   ar
    25    13    14   ar
    26    14    16    1
    27    16    17    1
    28    14    15   ar
    29    29    30   ar
    30    30    25   ar
    31    15     1   ar
    32     8     2   ar
    33    15     9   ar
    34    23    24    1
    35    17    18    1
@<TRIPOS>MOLECULE
*****
 32 35 0 0 0
SMALL
GASTEIGER

@<TRIPOS>ATOM
      1 N         -21.9145  -12.3811  -15.0058 N.ar    1  UNL1       -0.3245
      2 C         -21.5061  -11.9620  -13.7763 C.ar    1  UNL1        0.0600
      3 C         -21.0115  -12.7369  -12.7165 C.ar    1  UNL1        0.0177
      4 C         -20.6362  -12.0834  -11.5293 C.ar    1  UNL1        0.0082
      5 C         -20.7519  -10.6821  -11.4139 C.ar    1  UNL1        0.0347
      6 BR        -20.2333   -9.8145   -9.7940 Br      1  UNL1       -0.0490
      7 C         -21.2420   -9.9209  -12.4883 C.ar    1  UNL1        0.0082
      8 C         -21.6082  -10.5964  -13.6523 C.ar    1  UNL1        0.0177
      9 C         -22.0888  -10.1340  -14.8502 C.ar    1  UNL1        0.0175
     10 C         -22.3582   -8.8306  -15.2498 C.ar    1  UNL1        0.0082
     11 C         -22.8421   -8.6283  -16.5437 C.ar    1  UNL1        0.0344
     12 BR        -23.2355   -6.8568  -17.1402 Br      1  UNL1       -0.0490
     13 C         -23.0479   -9.7199  -17.4060 C.ar    1  UNL1        0.0063
     14 C         -22.7640  -11.0527  -17.0032 C.ar    1  UNL1        0.0232
     15 C         -22.2710  -11.2366  -15.6773 C.ar    1  UNL1        0.0583
     16 C         -23.0565  -12.1980  -17.9521 C.3     1  UNL1        0.1650
     17 O         -23.5746  -11.7595  -19.1815 O.3     1  UNL1       -0.3772
     18 H         -24.5607  -11.7050  -19.0775 H       1  UNL1        0.2109
     19 C         -21.8344  -13.7708  -15.4805 C.3     1  UNL1        0.1429
     20 C         -23.2387  -14.3775  -15.6180 C.3     1  UNL1        0.2027
     21 F         -23.1454  -15.6344  -16.1915 F       1  UNL1       -0.2334
     22 C         -23.9205  -14.4967  -14.2494 C.3     1  UNL1        0.1259
     23 N         -25.0952  -13.6261  -14.1787 N.pl3   1  UNL1       -0.3157
     24 H         -25.9991  -14.0069  -14.5398 H       1  UNL1        0.1483
     25 C         -24.5673  -10.8120  -11.8612 C.ar    1  UNL1        0.2261
     26 C         -25.0330   -9.7147  -12.5884 C.ar    1  UNL1        0.0578
     27 C         -25.5291   -9.9092  -13.8773 C.ar    1  UNL1        0.0077
     28 C         -25.5590  -11.1916  -14.4273 C.ar    1  UNL1        0.0343
     29 C         -25.0925  -12.2809  -13.6691 C.ar    1  UNL1        0.1317
     30 N         -24.6074  -12.0560  -12.4164 N.ar    1  UNL1       -0.1969
     31 C         -24.3464   -9.4550   -9.8026 C.3     1  UNL1        0.2542
     32 O         -24.0654  -10.6188  -10.5709 O.3     1  UNL1       -0.4561
@<TRIPOS>BOND
     1    31    32    1
     2    32    25    1
     3    25    26   ar
     4    26    27   ar
     5    27    28   ar
     6    28    29   ar
     7    29    23    1
     8    23    22    1
     9    22    20    1
    10    20    21    1
    11    20    19    1
    12    19     1    1
    13     1     2   ar
    14     2     3   ar
    15     3     4   ar
    16     4     5   ar
    17     5     6    1
    18     5     7   ar
    19     7     8   ar
    20     8     9   ar
    21     9    10   ar
    22    10    11   ar
    23    11    12    1
    24    11    13   ar
    25    13    14   ar
    26    14    16    1
    27    16    17    1
    28    14    15   ar
    29    29    30   ar
    30    30    25   ar
    31    15     1   ar
    32     8     2   ar
    33    15     9   ar
    34    23    24    1
    35    17    18    1
@<TRIPOS>MOLECULE
*****
 32 35 0 0 0
SMALL
GASTEIGER

@<TRIPOS>ATOM
      1 N         -23.9249   -8.0181  -11.8365 N.ar    1  UNL1       -0.3245
      2 C         -24.9104   -7.2678  -12.4020 C.ar    1  UNL1        0.0600
      3 C         -25.1437   -5.8920  -12.2570 C.ar    1  UNL1        0.0177
      4 C         -26.2253   -5.3208  -12.9509 C.ar    1  UNL1        0.0082
      5 C         -27.0496   -6.1157  -13.7750 C.ar    1  UNL1        0.0347
      6 BR        -28.5109   -5.3193  -14.7108 Br      1  UNL1       -0.0490
      7 C         -26.7965   -7.4907  -13.9146 C.ar    1  UNL1        0.0082
      8 C         -25.7181   -8.0296  -13.2130 C.ar    1  UNL1        0.0177
      9 C         -25.2194   -9.3058  -13.1669 C.ar    1  UNL1        0.0175
     10 C         -25.6619  -10.4511  -13.8179 C.ar    1  UNL1        0.0082
     11 C         -24.9628  -11.6400  -13.6010 C.ar    1  UNL1        0.0344
     12 BR        -25.5343  -13.2444  -14.4659 Br      1  UNL1       -0.0490
     13 C         -23.8469  -11.6643  -12.7456 C.ar    1  UNL1        0.0063
     14 C         -23.3865  -10.4927  -12.0864 C.ar    1  UNL1        0.0232
     15 C         -24.1156   -9.2893  -12.3217 C.ar    1  UNL1        0.0583
     16 C         -22.2130  -10.5853  -11.1314 C.3     1  UNL1        0.1650
     17 O         -20.9991  -10.8326  -11.7928 O.3     1  UNL1       -0.3772
     18 H         -20.9063  -11.8184  -11.8692 H       1  UNL1        0.2109
     19 C         -22.8442   -7.4774  -10.9981 C.3     1  UNL1        0.1429
     20 C         -21.8652   -6.6500  -11.8442 C.3     1  UNL1        0.2027
     21 F         -21.3502   -5.6176  -11.0784 F       1  UNL1       -0.2334
     22 C         -20.7121   -7.5215  -12.3569 C.3     1  UNL1        0.1259
     23 N         -20.6670   -7.5121  -13.8200 N.pl3   1  UNL1       -0.3157
     24 H         -20.0198   -6.8305  -14.2773 H       1  UNL1        0.1483
     25 C         -21.9350  -10.5644  -15.4461 C.ar    1  UNL1        0.2261
     26 C         -22.9458  -10.0798  -16.2788 C.ar    1  UNL1        0.0578
     27 C         -23.2177   -8.7120  -16.2997 C.ar    1  UNL1        0.0077
     28 C         -22.4805   -7.8417  -15.4952 C.ar    1  UNL1        0.0343
     29 C         -21.4612   -8.3554  -14.6729 C.ar    1  UNL1        0.1317
     30 N         -21.2259   -9.6970  -14.6702 N.ar    1  UNL1       -0.1969
     31 C         -22.1956  -12.8429  -16.3780 C.3     1  UNL1        0.2542
     32 O         -21.6639  -11.9355  -15.4201 O.3     1  UNL1       -0.4561
@<TRIPOS>BOND
     1    31    32    1
     2    32    25    1
     3    25    26   ar
     4    26    27   ar
     5    27    28   ar
     6    28    29   ar
     7    29    23    1
     8    23    22    1
     9    22    20    1
    10    20    21    1
    11    20    19    1
    12    19     1    1
    13     1     2   ar
    14     2     3   ar
    15     3     4   ar
    16     4     5   ar
    17     5     6    1
    18     5     7   ar
    19     7     8   ar
    20     8     9   ar
    21     9    10   ar
    22    10    11   ar
    23    11    12    1
    24    11    13   ar
    25    13    14   ar
    26    14    16    1
    27    16    17    1
    28    14    15   ar
    29    29    30   ar
    30    30    25   ar
    31    15     1   ar
    32     8     2   ar
    33    15     9   ar
    34    23    24    1
    35    17    18    1
@<TRIPOS>MOLECULE
*****
 32 35 0 0 0
SMALL
GASTEIGER

@<TRIPOS>ATOM
      1 N         -24.4261   -9.9741  -11.5526 N.ar    1  UNL1       -0.3245
      2 C         -24.1447  -10.7246  -12.6533 C.ar    1  UNL1        0.0600
      3 C         -25.0111  -11.1001  -13.6910 C.ar    1  UNL1        0.0177
      4 C         -24.4955  -11.8766  -14.7439 C.ar    1  UNL1        0.0082
      5 C         -23.1383  -12.2619  -14.7537 C.ar    1  UNL1        0.0347
      6 BR        -22.4580  -13.3135  -16.1949 Br      1  UNL1       -0.0490
      7 C         -22.2831  -11.8703  -13.7100 C.ar    1  UNL1        0.0082
      8 C         -22.8229  -11.1021  -12.6785 C.ar    1  UNL1        0.0177
      9 C         -22.2449  -10.5624  -11.5585 C.ar    1  UNL1        0.0175
     10 C         -20.9275  -10.6349  -11.1223 C.ar    1  UNL1        0.0082
     11 C         -20.5934   -9.9821   -9.9341 C.ar    1  UNL1        0.0344
     12 BR        -18.7980  -10.0569   -9.2864 Br      1  UNL1       -0.0490
     13 C         -21.5710   -9.2773   -9.2095 C.ar    1  UNL1        0.0063
     14 C         -22.9166   -9.1935   -9.6584 C.ar    1  UNL1        0.0232
     15 C         -23.2361   -9.8679  -10.8742 C.ar    1  UNL1        0.0583
     16 C         -23.9429   -8.4682   -8.8108 C.3     1  UNL1        0.1650
     17 O         -23.4644   -8.1692   -7.5249 O.3     1  UNL1       -0.3772
     18 H         -23.6680   -8.9532   -6.9503 H       1  UNL1        0.2109
     19 C         -25.7260   -9.3386  -11.2885 C.3     1  UNL1        0.1429
     20 C         -26.1905   -8.5294  -12.5085 C.3     1  UNL1        0.2027
     21 F         -27.5744   -8.5150  -12.5543 F       1  UNL1       -0.2334
     22 C         -25.6730   -7.0873  -12.4389 C.3     1  UNL1        0.1259
     23 N         -24.6017   -6.8742  -13.4134 N.pl3   1  UNL1       -0.3157
     24 H         -24.8788   -6.5732  -14.3753 H       1  UNL1        0.1483
     25 C         -21.3515   -6.6811  -11.6909 C.ar    1  UNL1        0.2261
     26 C         -20.5024   -7.3912  -12.5420 C.ar    1  UNL1        0.0578
     27 C         -21.0175   -7.9512  -13.7108 C.ar    1  UNL1        0.0077
     28 C         -22.3695   -7.7967  -14.0215 C.ar    1  UNL1        0.0343
     29 C         -23.2007   -7.0681  -13.1512 C.ar    1  UNL1        0.1317
     30 N         -22.6679   -6.5404  -12.0142 N.ar    1  UNL1       -0.1969
     31 C         -21.6347   -5.3666   -9.6124 C.3     1  UNL1        0.2542
     32 O         -20.8383   -6.1229  -10.5165 O.3     1  UNL1       -0.4561
@<TRIPOS>BOND
     1    31    32    1
     2    32    25    1
     3    25    26   ar
     4    26    27   ar
     5    27    28   ar
     6    28    29   ar
     7    29    23    1
     8    23    22    1
     9    22    20    1
    10    20    21    1
    11    20    19    1
    12    19     1    1
    13     1     2   ar
    14     2     3   ar
    15     3     4   ar
    16     4     5   ar
    17     5     6    1
    18     5     7   ar
    19     7     8   ar
    20     8     9   ar
    21     9    10   ar
    22    10    11   ar
    23    11    12    1
    24    11    13   ar
    25    13    14   ar
    26    14    16    1
    27    16    17    1
    28    14    15   ar
    29    29    30   ar
    30    30    25   ar
    31    15     1   ar
    32     8     2   ar
    33    15     9   ar
    34    23    24    1
    35    17    18    1
@<TRIPOS>MOLECULE
*****
 32 35 0 0 0
SMALL
GASTEIGER

@<TRIPOS>ATOM
      1 N         -22.9050  -12.0219  -13.2643 N.ar    1  UNL1       -0.3245
      2 C         -21.9742  -11.6433  -12.3454 C.ar    1  UNL1        0.0600
      3 C         -20.7694  -12.2832  -12.0179 C.ar    1  UNL1        0.0177
      4 C         -19.9493  -11.7010  -11.0350 C.ar    1  UNL1        0.0082
      5 C         -20.3316  -10.5004  -10.4003 C.ar    1  UNL1        0.0347
      6 BR        -19.2016   -9.7252   -9.0707 Br      1  UNL1       -0.0490
      7 C         -21.5381   -9.8691  -10.7464 C.ar    1  UNL1        0.0082
      8 C         -22.3317  -10.4705  -11.7231 C.ar    1  UNL1        0.0177
      9 C         -23.5268  -10.0880  -12.2756 C.ar    1  UNL1        0.0175
     10 C         -24.3057   -8.9688  -12.0076 C.ar    1  UNL1        0.0082
     11 C         -25.4929   -8.8093  -12.7248 C.ar    1  UNL1        0.0344
     12 BR        -26.6039   -7.2921  -12.3894 Br      1  UNL1       -0.0490
     13 C         -25.8780   -9.7611  -13.6857 C.ar    1  UNL1        0.0063
     14 C         -25.0785  -10.9013  -13.9685 C.ar    1  UNL1        0.0232
     15 C         -23.8702  -11.0449  -13.2240 C.ar    1  UNL1        0.0583
     16 C         -25.5672  -11.9254  -14.9736 C.3     1  UNL1        0.1650
     17 O         -25.2018  -11.6037  -16.2908 O.3     1  UNL1       -0.3772
     18 H         -25.9205  -11.0249  -16.6578 H       1  UNL1        0.2109
     19 C         -22.7655  -13.1779  -14.1628 C.3     1  UNL1        0.1429
     20 C         -21.5782  -12.9814  -15.1170 C.3     1  UNL1        0.2027
     21 F         -20.9515  -14.1974  -15.3322 F       1  UNL1       -0.2334
     22 C         -22.0445  -12.4094  -16.4614 C.3     1  UNL1        0.1259
     23 N         -21.4481  -11.0939  -16.6991 N.pl3   1  UNL1       -0.3157
     24 H         -20.6386  -11.0444  -17.3586 H       1  UNL1        0.1483
     25 C         -21.5181   -8.2413  -14.3697 C.ar    1  UNL1        0.2261
     26 C         -22.6233   -7.5074  -14.8051 C.ar    1  UNL1        0.0578
     27 C         -23.3602   -7.9640  -15.8977 C.ar    1  UNL1        0.0077
     28 C         -22.9919   -9.1456  -16.5430 C.ar    1  UNL1        0.0343
     29 C         -21.8798   -9.8706  -16.0775 C.ar    1  UNL1        0.1317
     30 N         -21.1770   -9.3934  -15.0128 N.ar    1  UNL1       -0.1969
     31 C         -21.2525   -6.7793  -12.3898 C.3     1  UNL1        0.2542
     32 O         -20.7754   -7.7831  -13.2777 O.3     1  UNL1       -0.4561
@<TRIPOS>BOND
     1    31    32    1
     2    32    25    1
     3    25    26   ar
     4    26    27   ar
     5    27    28   ar
     6    28    29   ar
     7    29    23    1
     8    23    22    1
     9    22    20    1
    10    20    21    1
    11    20    19    1
    12    19     1    1
    13     1     2   ar
    14     2     3   ar
    15     3     4   ar
    16     4     5   ar
    17     5     6    1
    18     5     7   ar
    19     7     8   ar
    20     8     9   ar
    21     9    10   ar
    22    10    11   ar
    23    11    12    1
    24    11    13   ar
    25    13    14   ar
    26    14    16    1
    27    16    17    1
    28    14    15   ar
    29    29    30   ar
    30    30    25   ar
    31    15     1   ar
    32     8     2   ar
    33    15     9   ar
    34    23    24    1
    35    17    18    1
@<TRIPOS>MOLECULE
*****
 32 35 0 0 0
SMALL
GASTEIGER

@<TRIPOS>ATOM
      1 N         -21.9319  -11.0000  -12.4042 N.ar    1  UNL1       -0.3245
      2 C         -20.8658  -11.3427  -11.6297 C.ar    1  UNL1        0.0600
      3 C         -20.3262  -12.6197  -11.4137 C.ar    1  UNL1        0.0177
      4 C         -19.2042  -12.7378  -10.5744 C.ar    1  UNL1        0.0082
      5 C         -18.6360  -11.5961   -9.9707 C.ar    1  UNL1        0.0347
      6 BR        -17.1104  -11.7786   -8.8372 Br      1  UNL1       -0.0490
      7 C         -19.1847  -10.3240  -10.2044 C.ar    1  UNL1        0.0082
      8 C         -20.2985  -10.2379  -11.0396 C.ar    1  UNL1        0.0177
      9 C         -21.0259   -9.1561  -11.4644 C.ar    1  UNL1        0.0175
     10 C         -20.8574   -7.8083  -11.1708 C.ar    1  UNL1        0.0082
     11 C         -21.7440   -6.8962  -11.7465 C.ar    1  UNL1        0.0344
     12 BR        -21.5609   -5.0326  -11.3695 Br      1  UNL1       -0.0490
     13 C         -22.7733   -7.3417  -12.5948 C.ar    1  UNL1        0.0063
     14 C         -22.9417   -8.7183  -12.9043 C.ar    1  UNL1        0.0232
     15 C         -22.0253   -9.6328  -12.3052 C.ar    1  UNL1        0.0583
     16 C         -24.1014   -9.1506  -13.7795 C.3     1  UNL1        0.1650
     17 O         -25.2785   -9.3669  -13.0450 O.3     1  UNL1       -0.3772
     18 H         -25.2627  -10.3132  -12.7441 H       1  UNL1        0.2109
     19 C         -22.6890  -11.9420  -13.2424 C.3     1  UNL1        0.1429
     20 C         -21.9110  -12.2705  -14.5253 C.3     1  UNL1        0.2027
     21 F         -21.2208  -13.4590  -14.3562 F       1  UNL1       -0.2334
     22 C         -22.8602  -12.4043  -15.7226 C.3     1  UNL1        0.1259
     23 N         -22.4057  -11.5735  -16.8388 N.pl3   1  UNL1       -0.3157
     24 H         -22.1868  -12.0557  -17.7400 H       1  UNL1        0.1483
     25 C         -23.0300   -7.9835  -17.3782 C.ar    1  UNL1        0.2261
     26 C         -21.9575   -7.3762  -16.7220 C.ar    1  UNL1        0.0578
     27 C         -21.0078   -8.1723  -16.0820 C.ar    1  UNL1        0.0077
     28 C         -21.1335   -9.5622  -16.1039 C.ar    1  UNL1        0.0343
     29 C         -22.2186  -10.1484  -16.7807 C.ar    1  UNL1        0.1317
     30 N         -23.1326   -9.3424  -17.3891 N.ar    1  UNL1       -0.1969
     31 C         -24.3362   -5.8881  -17.5552 C.3     1  UNL1        0.2542
     32 O         -23.9855   -7.1874  -18.0164 O.3     1  UNL1       -0.4561
@<TRIPOS>BOND
     1    31    32    1
     2    32    25    1
     3    25    26   ar
     4    26    27   ar
     5    27    28   ar
     6    28    29   ar
     7    29    23    1
     8    23    22    1
     9    22    20    1
    10    20    21    1
    11    20    19    1
    12    19     1    1
    13     1     2   ar
    14     2     3   ar
    15     3     4   ar
    16     4     5   ar
    17     5     6    1
    18     5     7   ar
    19     7     8   ar
    20     8     9   ar
    21     9    10   ar
    22    10    11   ar
    23    11    12    1
    24    11    13   ar
    25    13    14   ar
    26    14    16    1
    27    16    17    1
    28    14    15   ar
    29    29    30   ar
    30    30    25   ar
    31    15     1   ar
    32     8     2   ar
    33    15     9   ar
    34    23    24    1
    35    17    18    1
@<TRIPOS>MOLECULE
*****
 32 35 0 0 0
SMALL
GASTEIGER

@<TRIPOS>ATOM
      1 N         -21.4244  -11.8842  -14.3635 N.ar    1  UNL1       -0.3245
      2 C         -21.8987  -10.8795  -15.1507 C.ar    1  UNL1        0.0600
      3 C         -22.3281  -10.9524  -16.4843 C.ar    1  UNL1        0.0177
      4 C         -22.7938   -9.7778  -17.1016 C.ar    1  UNL1        0.0082
      5 C         -22.8305   -8.5596  -16.3909 C.ar    1  UNL1        0.0347
      6 BR        -23.4697   -6.9772  -17.2471 Br      1  UNL1       -0.0490
      7 C         -22.4038   -8.5067  -15.0533 C.ar    1  UNL1        0.0082
      8 C         -21.9454   -9.6869  -14.4681 C.ar    1  UNL1        0.0177
      9 C         -21.4939   -9.9487  -13.2003 C.ar    1  UNL1        0.0175
     10 C         -21.3575   -9.0899  -12.1163 C.ar    1  UNL1        0.0082
     11 C         -20.8732   -9.6183  -10.9182 C.ar    1  UNL1        0.0344
     12 BR        -20.6597   -8.4788   -9.4000 Br      1  UNL1       -0.0490
     13 C         -20.5356  -10.9802  -10.8252 C.ar    1  UNL1        0.0063
     14 C         -20.6833  -11.8625  -11.9292 C.ar    1  UNL1        0.0232
     15 C         -21.1793  -11.3018  -13.1435 C.ar    1  UNL1        0.0583
     16 C         -20.2521  -13.3092  -11.7919 C.3     1  UNL1        0.1650
     17 O         -19.1241  -13.4588  -10.9690 O.3     1  UNL1       -0.3772
     18 H         -18.3255  -13.3641  -11.5518 H       1  UNL1        0.2109
     19 C         -21.3466  -13.2951  -14.7714 C.3     1  UNL1        0.1429
     20 C         -22.6835  -13.7607  -15.3673 C.3     1  UNL1        0.2027
     21 F         -22.4685  -14.8573  -16.1851 F       1  UNL1       -0.2334
     22 C         -23.6733  -14.1434  -14.2600 C.3     1  UNL1        0.1259
     23 N         -24.8474  -13.2698  -14.2906 N.pl3   1  UNL1       -0.3157
     24 H         -25.6792  -13.5999  -14.8309 H       1  UNL1        0.1483
     25 C         -24.5308  -10.6768  -11.6935 C.ar    1  UNL1        0.2261
     26 C         -25.0445   -9.5399  -12.3206 C.ar    1  UNL1        0.0578
     27 C         -25.5022   -9.6316  -13.6349 C.ar    1  UNL1        0.0077
     28 C         -25.4466  -10.8522  -14.3095 C.ar    1  UNL1        0.0343
     29 C         -24.9331  -11.9843  -13.6507 C.ar    1  UNL1        0.1317
     30 N         -24.4875  -11.8593  -12.3698 N.ar    1  UNL1       -0.1969
     31 C         -24.4842   -9.5606   -9.4845 C.3     1  UNL1        0.2542
     32 O         -24.0672  -10.5861  -10.3779 O.3     1  UNL1       -0.4561
@<TRIPOS>BOND
     1    31    32    1
     2    32    25    1
     3    25    26   ar
     4    26    27   ar
     5    27    28   ar
     6    28    29   ar
     7    29    23    1
     8    23    22    1
     9    22    20    1
    10    20    21    1
    11    20    19    1
    12    19     1    1
    13     1     2   ar
    14     2     3   ar
    15     3     4   ar
    16     4     5   ar
    17     5     6    1
    18     5     7   ar
    19     7     8   ar
    20     8     9   ar
    21     9    10   ar
    22    10    11   ar
    23    11    12    1
    24    11    13   ar
    25    13    14   ar
    26    14    16    1
    27    16    17    1
    28    14    15   ar
    29    29    30   ar
    30    30    25   ar
    31    15     1   ar
    32     8     2   ar
    33    15     9   ar
    34    23    24    1
    35    17    18    1
@<TRIPOS>MOLECULE
*****
 32 35 0 0 0
SMALL
GASTEIGER

@<TRIPOS>ATOM
      1 N         -25.1228   -7.9711  -10.7464 N.ar    1  UNL1       -0.3245
      2 C         -25.8014   -7.3942  -11.7762 C.ar    1  UNL1        0.0600
      3 C         -27.0416   -7.7687  -12.3148 C.ar    1  UNL1        0.0177
      4 C         -27.5625   -7.0140  -13.3808 C.ar    1  UNL1        0.0082
      5 C         -26.8533   -5.9054  -13.8893 C.ar    1  UNL1        0.0347
      6 BR        -27.5805   -4.8922  -15.3351 Br      1  UNL1       -0.0490
      7 C         -25.6162   -5.5399  -13.3325 C.ar    1  UNL1        0.0082
      8 C         -25.1237   -6.3080  -12.2776 C.ar    1  UNL1        0.0177
      9 C         -23.9800   -6.1873  -11.5313 C.ar    1  UNL1        0.0175
     10 C         -22.9617   -5.2460  -11.6215 C.ar    1  UNL1        0.0082
     11 C         -21.8961   -5.3449  -10.7248 C.ar    1  UNL1        0.0344
     12 BR        -20.4669   -4.0805  -10.8112 Br      1  UNL1       -0.0490
     13 C         -21.8657   -6.3724   -9.7651 C.ar    1  UNL1        0.0063
     14 C         -22.9104   -7.3303   -9.6645 C.ar    1  UNL1        0.0232
     15 C         -23.9889   -7.2110  -10.5905 C.ar    1  UNL1        0.0583
     16 C         -22.8012   -8.4505   -8.6490 C.3     1  UNL1        0.1650
     17 O         -23.5100   -8.1772   -7.4680 O.3     1  UNL1       -0.3772
     18 H         -22.8919   -7.6851   -6.8662 H       1  UNL1        0.2109
     19 C         -25.6303   -9.0903   -9.9383 C.3     1  UNL1        0.1429
     20 C         -24.8206  -10.3664  -10.2121 C.3     1  UNL1        0.2027
     21 F         -25.2898  -11.3930   -9.4099 F       1  UNL1       -0.2334
     22 C         -24.9355  -10.7831  -11.6836 C.3     1  UNL1        0.1259
     23 N         -23.6090  -10.9426  -12.2816 N.pl3   1  UNL1       -0.3157
     24 H         -23.2695  -11.9172  -12.4472 H       1  UNL1        0.1483
     25 C         -20.7274   -8.6510  -12.1657 C.ar    1  UNL1        0.2261
     26 C         -20.9614   -7.7973  -13.2456 C.ar    1  UNL1        0.0578
     27 C         -22.0965   -7.9866  -14.0336 C.ar    1  UNL1        0.0077
     28 C         -22.9868   -9.0200  -13.7378 C.ar    1  UNL1        0.0343
     29 C         -22.7319   -9.8595  -12.6381 C.ar    1  UNL1        0.1317
     30 N         -21.6106   -9.6525  -11.8932 N.ar    1  UNL1       -0.1969
     31 C         -19.3206   -9.2448  -10.2173 C.3     1  UNL1        0.2542
     32 O         -19.5880   -8.4659  -11.3773 O.3     1  UNL1       -0.4561
@<TRIPOS>BOND
     1    31    32    1
     2    32    25    1
     3    25    26   ar
     4    26    27   ar
     5    27    28   ar
     6    28    29   ar
     7    29    23    1
     8    23    22    1
     9    22    20    1
    10    20    21    1
    11    20    19    1
    12    19     1    1
    13     1     2   ar
    14     2     3   ar
    15     3     4   ar
    16     4     5   ar
    17     5     6    1
    18     5     7   ar
    19     7     8   ar
    20     8     9   ar
    21     9    10   ar
    22    10    11   ar
    23    11    12    1
    24    11    13   ar
    25    13    14   ar
    26    14    16    1
    27    16    17    1
    28    14    15   ar
    29    29    30   ar
    30    30    25   ar
    31    15     1   ar
    32     8     2   ar
    33    15     9   ar
    34    23    24    1
    35    17    18    1
@<TRIPOS>MOLECULE
*****
 32 35 0 0 0
SMALL
GASTEIGER

@<TRIPOS>ATOM
      1 N         -21.9518   -8.4519  -11.6198 N.ar    1  UNL1       -0.3245
      2 C         -22.0210   -8.2525  -12.9649 C.ar    1  UNL1        0.0600
      3 C         -20.9707   -8.2429  -13.8950 C.ar    1  UNL1        0.0177
      4 C         -21.2795   -8.0257  -15.2495 C.ar    1  UNL1        0.0082
      5 C         -22.6152   -7.8274  -15.6584 C.ar    1  UNL1        0.0347
      6 BR        -23.0127   -7.5374  -17.5032 Br      1  UNL1       -0.0490
      7 C         -23.6554   -7.8479  -14.7142 C.ar    1  UNL1        0.0082
      8 C         -23.3188   -8.0636  -13.3779 C.ar    1  UNL1        0.0177
      9 C         -24.0998   -8.1572  -12.2550 C.ar    1  UNL1        0.0175
     10 C         -25.4799   -8.0556  -12.1279 C.ar    1  UNL1        0.0082
     11 C         -26.0332   -8.1973  -10.8539 C.ar    1  UNL1        0.0344
     12 BR        -27.9243   -8.0588  -10.6234 Br      1  UNL1       -0.0490
     13 C         -25.2070   -8.4339   -9.7408 C.ar    1  UNL1        0.0063
     14 C         -23.7965   -8.5479   -9.8694 C.ar    1  UNL1        0.0232
     15 C         -23.2523   -8.3994  -11.1797 C.ar    1  UNL1        0.0583
     16 C         -22.9472   -8.7474   -8.6298 C.3     1  UNL1        0.1650
     17 O         -23.5172   -8.1630   -7.4871 O.3     1  UNL1       -0.3772
     18 H         -23.1976   -7.2233   -7.4521 H       1  UNL1        0.2109
     19 C         -20.7180   -8.7792  -10.8892 C.3     1  UNL1        0.1429
     20 C         -20.2193  -10.1811  -11.2700 C.3     1  UNL1        0.2027
     21 F         -19.1404  -10.5210  -10.4713 F       1  UNL1       -0.2334
     22 C         -21.3286  -11.2248  -11.0903 C.3     1  UNL1        0.1259
     23 N         -21.6140  -11.9003  -12.3572 N.pl3   1  UNL1       -0.3157
     24 H         -20.8931  -12.5632  -12.7224 H       1  UNL1        0.1483
     25 C         -23.7450  -11.2918  -15.2995 C.ar    1  UNL1        0.2261
     26 C         -25.0344  -11.3191  -14.7644 C.ar    1  UNL1        0.0578
     27 C         -25.2036  -11.5487  -13.3992 C.ar    1  UNL1        0.0077
     28 C         -24.0898  -11.7458  -12.5814 C.ar    1  UNL1        0.0343
     29 C         -22.8014  -11.7036  -13.1449 C.ar    1  UNL1        0.1317
     30 N         -22.6710  -11.4847  -14.4829 N.ar    1  UNL1       -0.1969
     31 C         -22.5841  -11.7372  -17.4401 C.3     1  UNL1        0.2542
     32 O         -23.5732  -11.0665  -16.6684 O.3     1  UNL1       -0.4561
@<TRIPOS>BOND
     1    31    32    1
     2    32    25    1
     3    25    26   ar
     4    26    27   ar
     5    27    28   ar
     6    28    29   ar
     7    29    23    1
     8    23    22    1
     9    22    20    1
    10    20    21    1
    11    20    19    1
    12    19     1    1
    13     1     2   ar
    14     2     3   ar
    15     3     4   ar
    16     4     5   ar
    17     5     6    1
    18     5     7   ar
    19     7     8   ar
    20     8     9   ar
    21     9    10   ar
    22    10    11   ar
    23    11    12    1
    24    11    13   ar
    25    13    14   ar
    26    14    16    1
    27    16    17    1
    28    14    15   ar
    29    29    30   ar
    30    30    25   ar
    31    15     1   ar
    32     8     2   ar
    33    15     9   ar
    34    23    24    1
    35    17    18    1
