@<TRIPOS>MOLECULE
*****
 37 41 0 0 0
SMALL
GASTEIGER

@<TRIPOS>ATOM
      1 C          -9.6233  -17.8338   23.6638 C.ar    1  UNL1        0.1317
      2 C         -10.9010  -18.3849   23.4381 C.ar    1  UNL1        0.0286
      3 C         -11.1217  -19.2524   22.3523 C.ar    1  UNL1        0.0777
      4 C         -10.0600  -19.5726   21.4956 C.ar    1  UNL1        0.2970
      5 N          -8.8433  -19.0231   21.7462 N.ar    1  UNL1       -0.1224
      6 C          -7.6674  -19.1866   21.1199 C.ar    1  UNL1        0.2715
      7 S          -7.3903  -20.3155   19.7511 S.3     1  UNL1       -0.0718
      8 C          -6.7207  -18.4314   21.8078 C.ar    1  UNL1        0.1320
      9 N          -7.3104  -17.8147   22.8611 N.ar    1  UNL1       -0.2938
     10 C          -8.6027  -18.1935   22.7763 C.ar    1  UNL1        0.3126
     11 H          -7.1142  -21.3845   20.6234 H       1  UNL1        0.1129
     12 H          -6.8930  -17.2273   23.5319 H       1  UNL1        0.1718
     13 N          -8.5469  -15.2962   26.9089 N.3     1  UNL1       -0.2647
     14 C          -8.2580  -14.9070   25.5105 C.3     1  UNL1        0.0941
     15 C          -9.3002  -15.5079   24.5672 C.3     1  UNL1        0.1084
     16 N          -9.3726  -16.9559   24.7750 N.pl3   1  UNL1       -0.2988
     17 C          -9.5240  -17.4383   26.1492 C.3     1  UNL1        0.1084
     18 C          -8.4830  -16.7665   27.0488 C.3     1  UNL1        0.0941
     19 C          -7.5859  -14.6632   27.8349 C.3     1  UNL1        0.1200
     20 N          -8.7015  -11.8369   29.8899 N.ar    1  UNL1       -0.3128
     21 C          -9.8208  -12.5616   29.6888 C.ar    1  UNL1        0.1780
     22 N          -9.5999  -13.6693   28.9500 N.ar    1  UNL1       -0.2273
     23 C          -8.2759  -13.6414   28.6931 C.ar    1  UNL1        0.0885
     24 C          -7.7118  -12.5223   29.2814 C.ar    1  UNL1        0.0537
     25 C          -6.2763  -12.0914   29.1880 C.3     1  UNL1        0.0514
     26 C          -8.2974  -10.9048   32.1230 C.3     1  UNL1        0.0265
     27 C          -8.6118  -10.5978   30.6635 C.3     1  UNL1        0.1073
     28 C          -5.2750  -18.3142   21.5198 C.ar    1  UNL1        0.0221
     29 C          -4.3935  -19.2951   21.9910 C.ar    1  UNL1        0.0013
     30 C          -3.0225  -19.1964   21.7437 C.ar    1  UNL1       -0.0042
     31 C          -2.4855  -18.1047   21.0266 C.ar    1  UNL1       -0.0228
     32 C          -3.3846  -17.1089   20.5781 C.ar    1  UNL1       -0.0042
     33 C          -4.7560  -17.2124   20.8269 C.ar    1  UNL1        0.0013
     34 C          -0.9652  -18.0324   20.7744 C.3     1  UNL1        0.0189
     35 C          -0.4721  -16.5888   21.0132 C.3     1  UNL1        0.0044
     36 C          -0.2363  -18.9901   21.7423 C.3     1  UNL1        0.0044
     37 C          -0.5694  -18.4324   19.3326 C.3     1  UNL1        0.0044
@<TRIPOS>BOND
     1    26    27    1
     2    27    20    1
     3    20    21   ar
     4    21    22   ar
     5    22    23   ar
     6    23    19    1
     7    19    13    1
     8    13    14    1
     9    14    15    1
    10    15    16    1
    11    16     1    1
    12     1     2   ar
    13     2     3   ar
    14     3     4   ar
    15     4     5   ar
    16     5     6   ar
    17     6     7    1
    18     6     8   ar
    19     8    28    1
    20    28    29   ar
    21    29    30   ar
    22    30    31   ar
    23    31    34    1
    24    34    35    1
    25    34    36    1
    26    34    37    1
    27    31    32   ar
    28    32    33   ar
    29     8     9   ar
    30     9    10   ar
    31    16    17    1
    32    17    18    1
    33    23    24   ar
    34    24    25    1
    35    24    20   ar
    36    18    13    1
    37    10     1   ar
    38    10     5   ar
    39    33    28   ar
    40     7    11    1
    41     9    12    1
@<TRIPOS>MOLECULE
*****
 37 41 0 0 0
SMALL
GASTEIGER

@<TRIPOS>ATOM
      1 C          -7.3527  -11.8290   29.5088 C.ar    1  UNL1        0.1317
      2 C          -6.2338  -10.9935   29.7010 C.ar    1  UNL1        0.0286
      3 C          -5.0350  -11.2356   29.0050 C.ar    1  UNL1        0.0777
      4 C          -4.9593  -12.3121   28.1111 C.ar    1  UNL1        0.2970
      5 N          -6.0586  -13.0940   27.9516 N.ar    1  UNL1       -0.1224
      6 C          -6.2696  -14.1473   27.1467 C.ar    1  UNL1        0.2715
      7 S          -5.0859  -14.7655   25.9460 S.3     1  UNL1       -0.0718
      8 C          -7.5869  -14.5584   27.3354 C.ar    1  UNL1        0.1320
      9 N          -8.1877  -13.7526   28.2450 N.ar    1  UNL1       -0.2938
     10 C          -7.2170  -12.8856   28.6010 C.ar    1  UNL1        0.3126
     11 H          -5.5464  -13.8745   24.9590 H       1  UNL1        0.1129
     12 H          -9.1161  -13.7910   28.5702 H       1  UNL1        0.1718
     13 N         -10.8626  -11.2240   31.8419 N.3     1  UNL1       -0.2647
     14 C          -9.6950  -10.3244   31.9767 C.3     1  UNL1        0.0941
     15 C          -8.9344  -10.2418   30.6531 C.3     1  UNL1        0.1084
     16 N          -8.5915  -11.5917   30.1996 N.pl3   1  UNL1       -0.2988
     17 C          -9.6633  -12.5886   30.1626 C.3     1  UNL1        0.1084
     18 C         -10.4126  -12.5895   31.4978 C.3     1  UNL1        0.0941
     19 C         -11.6433  -11.2554   33.0955 C.3     1  UNL1        0.1200
     20 N         -12.7644  -14.7125   33.5927 N.ar    1  UNL1       -0.3128
     21 C         -11.7143  -14.5819   34.4288 C.ar    1  UNL1        0.1780
     22 N         -11.1689  -13.3479   34.3931 N.ar    1  UNL1       -0.2273
     23 C         -11.9267  -12.6728   33.5044 C.ar    1  UNL1        0.0885
     24 C         -12.9218  -13.5027   33.0170 C.ar    1  UNL1        0.0537
     25 C         -13.9402  -13.1568   31.9690 C.3     1  UNL1        0.0514
     26 C         -13.0166  -16.7743   32.2874 C.3     1  UNL1        0.0265
     27 C         -13.5747  -15.9187   33.4186 C.3     1  UNL1        0.1073
     28 C          -8.2973  -15.6593   26.6501 C.ar    1  UNL1        0.0221
     29 C          -8.6567  -15.5192   25.3038 C.ar    1  UNL1        0.0013
     30 C          -9.3414  -16.5402   24.6411 C.ar    1  UNL1       -0.0042
     31 C          -9.7015  -17.7318   25.3080 C.ar    1  UNL1       -0.0228
     32 C          -9.3540  -17.8493   26.6742 C.ar    1  UNL1       -0.0042
     33 C          -8.6675  -16.8255   27.3330 C.ar    1  UNL1        0.0013
     34 C         -10.4578  -18.8359   24.5405 C.3     1  UNL1        0.0189
     35 C         -11.9782  -18.6477   24.7335 C.3     1  UNL1        0.0044
     36 C         -10.1165  -18.7444   23.0370 C.3     1  UNL1        0.0044
     37 C         -10.0961  -20.2633   25.0171 C.3     1  UNL1        0.0044
@<TRIPOS>BOND
     1    26    27    1
     2    27    20    1
     3    20    21   ar
     4    21    22   ar
     5    22    23   ar
     6    23    19    1
     7    19    13    1
     8    13    14    1
     9    14    15    1
    10    15    16    1
    11    16     1    1
    12     1     2   ar
    13     2     3   ar
    14     3     4   ar
    15     4     5   ar
    16     5     6   ar
    17     6     7    1
    18     6     8   ar
    19     8    28    1
    20    28    29   ar
    21    29    30   ar
    22    30    31   ar
    23    31    34    1
    24    34    35    1
    25    34    36    1
    26    34    37    1
    27    31    32   ar
    28    32    33   ar
    29     8     9   ar
    30     9    10   ar
    31    16    17    1
    32    17    18    1
    33    23    24   ar
    34    24    25    1
    35    24    20   ar
    36    18    13    1
    37    10     1   ar
    38    10     5   ar
    39    33    28   ar
    40     7    11    1
    41     9    12    1
@<TRIPOS>MOLECULE
*****
 37 41 0 0 0
SMALL
GASTEIGER

@<TRIPOS>ATOM
      1 C          -7.1195  -11.7970   29.4714 C.ar    1  UNL1        0.1317
      2 C          -5.9823  -10.9773   29.6190 C.ar    1  UNL1        0.0286
      3 C          -4.8164  -11.2343   28.8741 C.ar    1  UNL1        0.0777
      4 C          -4.7921  -12.3099   27.9763 C.ar    1  UNL1        0.2970
      5 N          -5.9076  -13.0764   27.8607 N.ar    1  UNL1       -0.1224
      6 C          -6.1658  -14.1250   27.0636 C.ar    1  UNL1        0.2715
      7 S          -5.0409  -14.7569   25.8145 S.3     1  UNL1       -0.0718
      8 C          -7.4798  -14.5184   27.3054 C.ar    1  UNL1        0.1320
      9 N          -8.0318  -13.7064   28.2400 N.ar    1  UNL1       -0.2938
     10 C          -7.0356  -12.8535   28.5572 C.ar    1  UNL1        0.3126
     11 H          -5.5290  -13.8577   24.8485 H       1  UNL1        0.1129
     12 H          -8.9466  -13.7328   28.6028 H       1  UNL1        0.1718
     13 N         -10.5679  -11.2558   31.9095 N.3     1  UNL1       -0.2647
     14 C          -9.2623  -10.6777   32.2992 C.3     1  UNL1        0.0941
     15 C          -8.4351  -10.3514   31.0557 C.3     1  UNL1        0.1084
     16 N          -8.3256  -11.5442   30.2127 N.pl3   1  UNL1       -0.2988
     17 C          -9.5601  -12.2607   29.8859 C.3     1  UNL1        0.1084
     18 C         -10.3616  -12.5163   31.1652 C.3     1  UNL1        0.0941
     19 C         -11.4018  -11.5095   33.1020 C.3     1  UNL1        0.1200
     20 N         -13.4294  -14.5649   33.0053 N.ar    1  UNL1       -0.3128
     21 C         -14.0157  -13.7503   32.1044 C.ar    1  UNL1        0.1780
     22 N         -13.3883  -12.5608   31.9901 N.ar    1  UNL1       -0.2273
     23 C         -12.3514  -12.6457   32.8489 C.ar    1  UNL1        0.0885
     24 C         -12.3611  -13.8838   33.4683 C.ar    1  UNL1        0.0537
     25 C         -11.4129  -14.3584   34.5317 C.3     1  UNL1        0.0514
     26 C         -13.1885  -16.9354   32.4209 C.3     1  UNL1        0.0265
     27 C         -13.8615  -15.9225   33.3399 C.3     1  UNL1        0.1073
     28 C          -8.2328  -15.6082   26.6480 C.ar    1  UNL1        0.0221
     29 C          -8.6155  -15.4746   25.3075 C.ar    1  UNL1        0.0013
     30 C          -9.3402  -16.4847   24.6713 C.ar    1  UNL1       -0.0042
     31 C          -9.7180  -17.6584   25.3600 C.ar    1  UNL1       -0.0228
     32 C          -9.3461  -17.7689   26.7204 C.ar    1  UNL1       -0.0042
     33 C          -8.6197  -16.7559   27.3526 C.ar    1  UNL1        0.0013
     34 C         -10.5184  -18.7511   24.6214 C.3     1  UNL1        0.0189
     35 C         -10.3071  -18.6034   23.0990 C.3     1  UNL1        0.0044
     36 C         -10.0282  -20.1438   25.0746 C.3     1  UNL1        0.0044
     37 C         -12.0401  -18.6780   24.8945 C.3     1  UNL1        0.0044
@<TRIPOS>BOND
     1    26    27    1
     2    27    20    1
     3    20    21   ar
     4    21    22   ar
     5    22    23   ar
     6    23    19    1
     7    19    13    1
     8    13    14    1
     9    14    15    1
    10    15    16    1
    11    16     1    1
    12     1     2   ar
    13     2     3   ar
    14     3     4   ar
    15     4     5   ar
    16     5     6   ar
    17     6     7    1
    18     6     8   ar
    19     8    28    1
    20    28    29   ar
    21    29    30   ar
    22    30    31   ar
    23    31    34    1
    24    34    35    1
    25    34    36    1
    26    34    37    1
    27    31    32   ar
    28    32    33   ar
    29     8     9   ar
    30     9    10   ar
    31    16    17    1
    32    17    18    1
    33    23    24   ar
    34    24    25    1
    35    24    20   ar
    36    18    13    1
    37    10     1   ar
    38    10     5   ar
    39    33    28   ar
    40     7    11    1
    41     9    12    1
@<TRIPOS>MOLECULE
*****
 37 41 0 0 0
SMALL
GASTEIGER

@<TRIPOS>ATOM
      1 C          -9.1410   -6.2062   30.7156 C.ar    1  UNL1        0.1317
      2 C          -9.4465   -4.8635   30.4140 C.ar    1  UNL1        0.0286
      3 C         -10.7849   -4.4332   30.3523 C.ar    1  UNL1        0.0777
      4 C         -11.8177   -5.3476   30.5990 C.ar    1  UNL1        0.2970
      5 N         -11.4838   -6.6323   30.8876 N.ar    1  UNL1       -0.1224
      6 C         -12.2567   -7.6852   31.1971 C.ar    1  UNL1        0.2715
      7 S         -14.0404   -7.6169   31.3942 S.3     1  UNL1       -0.0718
      8 C         -11.4110   -8.7620   31.4520 C.ar    1  UNL1        0.1320
      9 N         -10.1212   -8.3692   31.3112 N.ar    1  UNL1       -0.2938
     10 C         -10.2149   -7.0710   30.9555 C.ar    1  UNL1        0.3126
     11 H         -13.9269   -7.2572   32.7498 H       1  UNL1        0.1129
     12 H          -9.3059   -8.9061   31.4388 H       1  UNL1        0.1718
     13 N          -5.2268   -7.8741   30.8765 N.3     1  UNL1       -0.2647
     14 C          -5.9337   -7.7153   29.5858 C.3     1  UNL1        0.0941
     15 C          -6.8851   -6.5202   29.6465 C.3     1  UNL1        0.1084
     16 N          -7.7801   -6.6640   30.7970 N.pl3   1  UNL1       -0.2988
     17 C          -7.1735   -6.9572   32.0971 C.3     1  UNL1        0.1084
     18 C          -6.2005   -8.1312   31.9587 C.3     1  UNL1        0.0941
     19 C          -4.2542   -8.9835   30.8044 C.3     1  UNL1        0.1200
     20 N          -6.0504  -11.7964   29.2824 N.ar    1  UNL1       -0.3128
     21 C          -5.1759  -11.4092   28.3317 C.ar    1  UNL1        0.1780
     22 N          -4.4036  -10.3738   28.7231 N.ar    1  UNL1       -0.2273
     23 C          -4.8054  -10.1152   29.9847 C.ar    1  UNL1        0.0885
     24 C          -5.8105  -10.9973   30.3424 C.ar    1  UNL1        0.0537
     25 C          -6.5671  -11.0116   31.6396 C.3     1  UNL1        0.0514
     26 C          -8.4201  -12.4072   29.4564 C.3     1  UNL1        0.0265
     27 C          -7.0064  -12.8986   29.1680 C.3     1  UNL1        0.1073
     28 C         -11.7893  -10.1310   31.8637 C.ar    1  UNL1        0.0221
     29 C         -11.1278  -10.7385   32.9382 C.ar    1  UNL1        0.0013
     30 C         -11.4585  -12.0362   33.3343 C.ar    1  UNL1       -0.0042
     31 C         -12.4547  -12.7753   32.6593 C.ar    1  UNL1       -0.0228
     32 C         -13.0972  -12.1584   31.5603 C.ar    1  UNL1       -0.0042
     33 C         -12.7639  -10.8589   31.1683 C.ar    1  UNL1        0.0013
     34 C         -12.7908  -14.2063   33.1277 C.3     1  UNL1        0.0189
     35 C         -12.0678  -15.2272   32.2224 C.3     1  UNL1        0.0044
     36 C         -12.3228  -14.3937   34.5875 C.3     1  UNL1        0.0044
     37 C         -14.3051  -14.5219   33.0768 C.3     1  UNL1        0.0044
@<TRIPOS>BOND
     1    26    27    1
     2    27    20    1
     3    20    21   ar
     4    21    22   ar
     5    22    23   ar
     6    23    19    1
     7    19    13    1
     8    13    14    1
     9    14    15    1
    10    15    16    1
    11    16     1    1
    12     1     2   ar
    13     2     3   ar
    14     3     4   ar
    15     4     5   ar
    16     5     6   ar
    17     6     7    1
    18     6     8   ar
    19     8    28    1
    20    28    29   ar
    21    29    30   ar
    22    30    31   ar
    23    31    34    1
    24    34    35    1
    25    34    36    1
    26    34    37    1
    27    31    32   ar
    28    32    33   ar
    29     8     9   ar
    30     9    10   ar
    31    16    17    1
    32    17    18    1
    33    23    24   ar
    34    24    25    1
    35    24    20   ar
    36    18    13    1
    37    10     1   ar
    38    10     5   ar
    39    33    28   ar
    40     7    11    1
    41     9    12    1
@<TRIPOS>MOLECULE
*****
 37 41 0 0 0
SMALL
GASTEIGER

@<TRIPOS>ATOM
      1 C          -7.5721  -11.9531   29.6701 C.ar    1  UNL1        0.1317
      2 C          -6.4681  -11.1184   29.9374 C.ar    1  UNL1        0.0286
      3 C          -5.2379  -11.3336   29.2890 C.ar    1  UNL1        0.0777
      4 C          -5.1155  -12.3822   28.3676 C.ar    1  UNL1        0.2970
      5 N          -6.2017  -13.1642   28.1354 N.ar    1  UNL1       -0.1224
      6 C          -6.3699  -14.1937   27.2907 C.ar    1  UNL1        0.2715
      7 S          -5.1298  -14.7695   26.1264 S.3     1  UNL1       -0.0718
      8 C          -7.6917  -14.6166   27.4075 C.ar    1  UNL1        0.1320
      9 N          -8.3377  -13.8416   28.3129 N.ar    1  UNL1       -0.2938
     10 C          -7.3893  -12.9811   28.7380 C.ar    1  UNL1        0.3126
     11 H          -5.5511  -13.8514   25.1468 H       1  UNL1        0.1129
     12 H          -9.2795  -13.8943   28.5947 H       1  UNL1        0.1718
     13 N         -11.3719  -11.0552   31.3682 N.3     1  UNL1       -0.2647
     14 C         -11.2582  -11.5572   29.9806 C.3     1  UNL1        0.0941
     15 C         -10.0309  -12.4581   29.8420 C.3     1  UNL1        0.1084
     16 N          -8.8420  -11.7428   30.3112 N.pl3   1  UNL1       -0.2988
     17 C          -8.9115  -11.0973   31.6237 C.3     1  UNL1        0.1084
     18 C         -10.1825  -10.2482   31.7138 C.3     1  UNL1        0.0941
     19 C         -12.5934  -10.2403   31.5288 C.3     1  UNL1        0.1200
     20 N         -11.5821   -6.8039   30.7390 N.ar    1  UNL1       -0.3128
     21 C         -12.2267   -6.6960   31.9187 C.ar    1  UNL1        0.1780
     22 N         -12.6680   -7.8840   32.3830 N.ar    1  UNL1       -0.2273
     23 C         -12.2637   -8.7765   31.4558 C.ar    1  UNL1        0.0885
     24 C         -11.5807   -8.1206   30.4459 C.ar    1  UNL1        0.0537
     25 C         -11.0165   -8.7404   29.1999 C.3     1  UNL1        0.0514
     26 C          -9.5051   -5.5514   30.3700 C.3     1  UNL1        0.0265
     27 C         -10.9741   -5.7018   29.9922 C.3     1  UNL1        0.1073
     28 C          -8.3640  -15.6998   26.6582 C.ar    1  UNL1        0.0221
     29 C          -8.6836  -15.5123   25.3076 C.ar    1  UNL1        0.0013
     30 C          -9.3320  -16.5160   24.5849 C.ar    1  UNL1       -0.0042
     31 C          -9.6945  -17.7377   25.1936 C.ar    1  UNL1       -0.0228
     32 C          -9.3876  -17.9035   26.5646 C.ar    1  UNL1       -0.0042
     33 C          -8.7374  -16.8967   27.2836 C.ar    1  UNL1        0.0013
     34 C         -10.4099  -18.8214   24.3607 C.3     1  UNL1        0.0189
     35 C         -10.0913  -20.2143   24.9462 C.3     1  UNL1        0.0044
     36 C         -11.9351  -18.5827   24.4059 C.3     1  UNL1        0.0044
     37 C          -9.9801  -18.8266   22.8738 C.3     1  UNL1        0.0044
@<TRIPOS>BOND
     1    26    27    1
     2    27    20    1
     3    20    21   ar
     4    21    22   ar
     5    22    23   ar
     6    23    19    1
     7    19    13    1
     8    13    14    1
     9    14    15    1
    10    15    16    1
    11    16     1    1
    12     1     2   ar
    13     2     3   ar
    14     3     4   ar
    15     4     5   ar
    16     5     6   ar
    17     6     7    1
    18     6     8   ar
    19     8    28    1
    20    28    29   ar
    21    29    30   ar
    22    30    31   ar
    23    31    34    1
    24    34    35    1
    25    34    36    1
    26    34    37    1
    27    31    32   ar
    28    32    33   ar
    29     8     9   ar
    30     9    10   ar
    31    16    17    1
    32    17    18    1
    33    23    24   ar
    34    24    25    1
    35    24    20   ar
    36    18    13    1
    37    10     1   ar
    38    10     5   ar
    39    33    28   ar
    40     7    11    1
    41     9    12    1
@<TRIPOS>MOLECULE
*****
 37 41 0 0 0
SMALL
GASTEIGER

@<TRIPOS>ATOM
      1 C          -7.7923   -9.6284   32.2539 C.ar    1  UNL1        0.1317
      2 C          -7.0109   -8.5626   32.7441 C.ar    1  UNL1        0.0286
      3 C          -5.7353   -8.3076   32.2072 C.ar    1  UNL1        0.0777
      4 C          -5.2449   -9.1176   31.1743 C.ar    1  UNL1        0.2970
      5 N          -6.0275  -10.1341   30.7275 N.ar    1  UNL1       -0.1224
      6 C          -5.8240  -11.0222   29.7418 C.ar    1  UNL1        0.2715
      7 S          -4.3981  -11.0240   28.6501 S.3     1  UNL1       -0.0718
      8 C          -6.9609  -11.8227   29.6612 C.ar    1  UNL1        0.1320
      9 N          -7.8657  -11.4201   30.5869 N.ar    1  UNL1       -0.2938
     10 C          -7.2500  -10.3998   31.2195 C.ar    1  UNL1        0.3126
     11 H          -5.0154  -10.1253   27.7606 H       1  UNL1        0.1129
     12 H          -8.7632  -11.7869   30.7578 H       1  UNL1        0.1718
     13 N         -11.7038  -10.6734   33.5716 N.3     1  UNL1       -0.2647
     14 C         -10.5559  -11.5786   33.8030 C.3     1  UNL1        0.0941
     15 C          -9.2649  -10.7718   33.9433 C.3     1  UNL1        0.1084
     16 N          -9.1037   -9.8982   32.7788 N.pl3   1  UNL1       -0.2988
     17 C         -10.2422   -9.0616   32.3943 C.3     1  UNL1        0.1084
     18 C         -11.5084   -9.9189   32.3155 C.3     1  UNL1        0.0941
     19 C         -12.9653  -11.4389   33.5044 C.3     1  UNL1        0.1200
     20 N         -12.5249  -14.9842   32.6724 N.ar    1  UNL1       -0.3128
     21 C         -12.4522  -14.3539   31.4825 C.ar    1  UNL1        0.1780
     22 N         -12.5818  -13.0149   31.5922 N.ar    1  UNL1       -0.2273
     23 C         -12.7250  -12.8002   32.9163 C.ar    1  UNL1        0.0885
     24 C         -12.6765  -14.0080   33.5910 C.ar    1  UNL1        0.0537
     25 C         -12.8518  -14.2142   35.0681 C.3     1  UNL1        0.0514
     26 C         -12.7951  -17.1853   31.6230 C.3     1  UNL1        0.0265
     27 C         -12.4021  -16.4270   32.8855 C.3     1  UNL1        0.1073
     28 C          -7.2266  -12.9224   28.7091 C.ar    1  UNL1        0.0221
     29 C          -8.5020  -13.4985   28.6551 C.ar    1  UNL1        0.0013
     30 C          -8.7709  -14.5483   27.7742 C.ar    1  UNL1       -0.0042
     31 C          -7.7677  -15.0661   26.9258 C.ar    1  UNL1       -0.0228
     32 C          -6.4778  -14.4912   27.0087 C.ar    1  UNL1       -0.0042
     33 C          -6.2136  -13.4398   27.8909 C.ar    1  UNL1        0.0013
     34 C          -8.1049  -16.2266   25.9668 C.3     1  UNL1        0.0189
     35 C          -6.8083  -16.7390   25.3030 C.3     1  UNL1        0.0044
     36 C          -8.7635  -17.3761   26.7607 C.3     1  UNL1        0.0044
     37 C          -9.0813  -15.8171   24.8379 C.3     1  UNL1        0.0044
@<TRIPOS>BOND
     1    26    27    1
     2    27    20    1
     3    20    21   ar
     4    21    22   ar
     5    22    23   ar
     6    23    19    1
     7    19    13    1
     8    13    14    1
     9    14    15    1
    10    15    16    1
    11    16     1    1
    12     1     2   ar
    13     2     3   ar
    14     3     4   ar
    15     4     5   ar
    16     5     6   ar
    17     6     7    1
    18     6     8   ar
    19     8    28    1
    20    28    29   ar
    21    29    30   ar
    22    30    31   ar
    23    31    34    1
    24    34    35    1
    25    34    36    1
    26    34    37    1
    27    31    32   ar
    28    32    33   ar
    29     8     9   ar
    30     9    10   ar
    31    16    17    1
    32    17    18    1
    33    23    24   ar
    34    24    25    1
    35    24    20   ar
    36    18    13    1
    37    10     1   ar
    38    10     5   ar
    39    33    28   ar
    40     7    11    1
    41     9    12    1
@<TRIPOS>MOLECULE
*****
 37 41 0 0 0
SMALL
GASTEIGER

@<TRIPOS>ATOM
      1 C          -5.7384  -12.0750   28.0909 C.ar    1  UNL1        0.1317
      2 C          -4.7006  -11.1562   27.8344 C.ar    1  UNL1        0.0286
      3 C          -4.6211   -9.9505   28.5557 C.ar    1  UNL1        0.0777
      4 C          -5.5787   -9.6681   29.5390 C.ar    1  UNL1        0.2970
      5 N          -6.5628  -10.5784   29.7585 N.ar    1  UNL1       -0.1224
      6 C          -7.5668  -10.5789   30.6494 C.ar    1  UNL1        0.2715
      7 S          -7.8148   -9.3198   31.9057 S.3     1  UNL1       -0.0718
      8 C          -8.2656  -11.7729   30.4888 C.ar    1  UNL1        0.1320
      9 N          -7.6856  -12.5099   29.5099 N.ar    1  UNL1       -0.2938
     10 C          -6.6626  -11.7386   29.0867 C.ar    1  UNL1        0.3126
     11 H          -6.9655   -9.9838   32.8099 H       1  UNL1        0.1129
     12 H          -7.9494  -13.4005   29.1837 H       1  UNL1        0.1718
     13 N          -6.2024  -15.5935   25.7387 N.3     1  UNL1       -0.2647
     14 C          -5.3663  -14.4674   25.2663 C.3     1  UNL1        0.0941
     15 C          -4.7633  -13.7199   26.4558 C.3     1  UNL1        0.1084
     16 N          -5.8308  -13.3188   27.3750 N.pl3   1  UNL1       -0.2988
     17 C          -6.7893  -14.3442   27.7918 C.3     1  UNL1        0.1084
     18 C          -7.3203  -15.0840   26.5610 C.3     1  UNL1        0.0941
     19 C          -6.7328  -16.3639   24.5953 C.3     1  UNL1        0.1200
     20 N          -4.4967  -16.1446   21.6958 N.ar    1  UNL1       -0.3128
     21 C          -5.4338  -15.2031   21.4627 C.ar    1  UNL1        0.1780
     22 N          -6.3528  -15.1260   22.4481 N.ar    1  UNL1       -0.2273
     23 C          -5.9590  -16.0526   23.3459 C.ar    1  UNL1        0.0885
     24 C          -4.8070  -16.6752   22.8965 C.ar    1  UNL1        0.0537
     25 C          -4.0785  -17.8016   23.5715 C.3     1  UNL1        0.0514
     26 C          -3.8043  -17.3465   19.6722 C.3     1  UNL1        0.0265
     27 C          -3.3611  -16.4552   20.8265 C.3     1  UNL1        0.1073
     28 C          -9.4332  -12.2480   31.2618 C.ar    1  UNL1        0.0221
     29 C          -9.4034  -12.1993   32.6611 C.ar    1  UNL1        0.0013
     30 C         -10.4889  -12.6568   33.4113 C.ar    1  UNL1       -0.0042
     31 C         -11.6369  -13.1911   32.7858 C.ar    1  UNL1       -0.0228
     32 C         -11.6429  -13.2570   31.3727 C.ar    1  UNL1       -0.0042
     33 C         -10.5548  -12.7968   30.6260 C.ar    1  UNL1        0.0013
     34 C         -12.8150  -13.6860   33.6502 C.3     1  UNL1        0.0189
     35 C         -13.7700  -12.5081   33.9414 C.3     1  UNL1        0.0044
     36 C         -13.5812  -14.7921   32.8920 C.3     1  UNL1        0.0044
     37 C         -12.3656  -14.2745   35.0093 C.3     1  UNL1        0.0044
@<TRIPOS>BOND
     1    26    27    1
     2    27    20    1
     3    20    21   ar
     4    21    22   ar
     5    22    23   ar
     6    23    19    1
     7    19    13    1
     8    13    14    1
     9    14    15    1
    10    15    16    1
    11    16     1    1
    12     1     2   ar
    13     2     3   ar
    14     3     4   ar
    15     4     5   ar
    16     5     6   ar
    17     6     7    1
    18     6     8   ar
    19     8    28    1
    20    28    29   ar
    21    29    30   ar
    22    30    31   ar
    23    31    34    1
    24    34    35    1
    25    34    36    1
    26    34    37    1
    27    31    32   ar
    28    32    33   ar
    29     8     9   ar
    30     9    10   ar
    31    16    17    1
    32    17    18    1
    33    23    24   ar
    34    24    25    1
    35    24    20   ar
    36    18    13    1
    37    10     1   ar
    38    10     5   ar
    39    33    28   ar
    40     7    11    1
    41     9    12    1
@<TRIPOS>MOLECULE
*****
 37 41 0 0 0
SMALL
GASTEIGER

@<TRIPOS>ATOM
      1 C          -7.6839   -8.7203   29.7951 C.ar    1  UNL1        0.1317
      2 C          -7.4790   -7.3305   29.6786 C.ar    1  UNL1        0.0286
      3 C          -8.4480   -6.4249   30.1489 C.ar    1  UNL1        0.0777
      4 C          -9.6204   -6.9122   30.7419 C.ar    1  UNL1        0.2970
      5 N          -9.7814   -8.2576   30.8375 N.ar    1  UNL1       -0.1224
      6 C         -10.7716   -8.9803   31.3843 C.ar    1  UNL1        0.2715
      7 S         -12.1815   -8.2844   32.2521 S.3     1  UNL1       -0.0718
      8 C         -10.4249  -10.3234   31.2596 C.ar    1  UNL1        0.1320
      9 N          -9.2193  -10.4258   30.6484 N.ar    1  UNL1       -0.2938
     10 C          -8.8725   -9.1459   30.3993 C.ar    1  UNL1        0.3126
     11 H         -11.4805   -8.2570   33.4719 H       1  UNL1        0.1129
     12 H          -8.7142  -11.2438   30.4358 H       1  UNL1        0.1718
     13 N          -5.0075  -11.6251   28.2054 N.3     1  UNL1       -0.2647
     14 C          -5.4039  -10.4407   27.4113 C.3     1  UNL1        0.0941
     15 C          -5.7074   -9.2610   28.3352 C.3     1  UNL1        0.1084
     16 N          -6.7009   -9.6630   29.3335 N.pl3   1  UNL1       -0.2988
     17 C          -6.4552  -10.9008   30.0762 C.3     1  UNL1        0.1084
     18 C          -6.1137  -12.0290   29.0990 C.3     1  UNL1        0.0941
     19 C          -4.6449  -12.7492   27.3184 C.3     1  UNL1        0.1200
     20 N          -7.1232  -15.3172   26.4702 N.ar    1  UNL1       -0.3128
     21 C          -7.5262  -14.8522   27.6702 C.ar    1  UNL1        0.1780
     22 N          -6.7285  -13.8727   28.1453 N.ar    1  UNL1       -0.2273
     23 C          -5.7935  -13.7084   27.1869 C.ar    1  UNL1        0.0885
     24 C          -6.0381  -14.5852   26.1438 C.ar    1  UNL1        0.0537
     25 C          -5.2007  -14.7618   24.9098 C.3     1  UNL1        0.0514
     26 C          -8.9072  -15.7636   24.8464 C.3     1  UNL1        0.0265
     27 C          -7.7877  -16.3621   25.6901 C.3     1  UNL1        0.1073
     28 C         -11.1808  -11.5005   31.7389 C.ar    1  UNL1        0.0221
     29 C         -10.5878  -12.3779   32.6552 C.ar    1  UNL1        0.0013
     30 C         -11.2777  -13.5039   33.1096 C.ar    1  UNL1       -0.0042
     31 C         -12.5811  -13.7971   32.6517 C.ar    1  UNL1       -0.0228
     32 C         -13.1580  -12.9156   31.7075 C.ar    1  UNL1       -0.0042
     33 C         -12.4643  -11.7892   31.2566 C.ar    1  UNL1        0.0013
     34 C         -13.3096  -15.0510   33.1779 C.3     1  UNL1        0.0189
     35 C         -13.0038  -15.2312   34.6807 C.3     1  UNL1        0.0044
     36 C         -14.8322  -14.8828   32.9810 C.3     1  UNL1        0.0044
     37 C         -12.8838  -16.3499   32.4520 C.3     1  UNL1        0.0044
@<TRIPOS>BOND
     1    26    27    1
     2    27    20    1
     3    20    21   ar
     4    21    22   ar
     5    22    23   ar
     6    23    19    1
     7    19    13    1
     8    13    14    1
     9    14    15    1
    10    15    16    1
    11    16     1    1
    12     1     2   ar
    13     2     3   ar
    14     3     4   ar
    15     4     5   ar
    16     5     6   ar
    17     6     7    1
    18     6     8   ar
    19     8    28    1
    20    28    29   ar
    21    29    30   ar
    22    30    31   ar
    23    31    34    1
    24    34    35    1
    25    34    36    1
    26    34    37    1
    27    31    32   ar
    28    32    33   ar
    29     8     9   ar
    30     9    10   ar
    31    16    17    1
    32    17    18    1
    33    23    24   ar
    34    24    25    1
    35    24    20   ar
    36    18    13    1
    37    10     1   ar
    38    10     5   ar
    39    33    28   ar
    40     7    11    1
    41     9    12    1
@<TRIPOS>MOLECULE
*****
 37 41 0 0 0
SMALL
GASTEIGER

@<TRIPOS>ATOM
      1 C         -11.5288   -9.4773   31.4435 C.ar    1  UNL1        0.1317
      2 C         -12.4972   -9.3959   32.4645 C.ar    1  UNL1        0.0286
      3 C         -13.0411  -10.5658   33.0264 C.ar    1  UNL1        0.0777
      4 C         -12.6099  -11.8182   32.5692 C.ar    1  UNL1        0.2970
      5 N         -11.6744  -11.8561   31.5850 N.ar    1  UNL1       -0.1224
      6 C         -11.0678  -12.9003   30.9989 C.ar    1  UNL1        0.2715
      7 S         -11.3117  -14.6161   31.4696 S.3     1  UNL1       -0.0718
      8 C         -10.1525  -12.3893   30.0819 C.ar    1  UNL1        0.1320
      9 N         -10.1878  -11.0345   30.1126 N.ar    1  UNL1       -0.2938
     10 C         -11.1359  -10.7559   31.0313 C.ar    1  UNL1        0.3126
     11 H         -10.3087  -14.5408   32.4537 H       1  UNL1        0.1129
     12 H          -9.6475  -10.4013   29.5869 H       1  UNL1        0.1718
     13 N          -9.5921   -5.9752   29.9900 N.3     1  UNL1       -0.2647
     14 C          -8.9205   -7.2931   29.9380 C.3     1  UNL1        0.0941
     15 C          -9.9551   -8.4096   29.7961 C.3     1  UNL1        0.1084
     16 N         -10.9501   -8.2948   30.8648 N.pl3   1  UNL1       -0.2988
     17 C         -11.5714   -6.9859   31.0767 C.3     1  UNL1        0.1084
     18 C         -10.4868   -5.9088   31.1649 C.3     1  UNL1        0.0941
     19 C          -8.5969   -4.8857   30.0567 C.3     1  UNL1        0.1200
     20 N          -5.5657   -6.3382   31.5256 N.ar    1  UNL1       -0.3128
     21 C          -5.2605   -6.1857   30.2209 C.ar    1  UNL1        0.1780
     22 N          -6.2696   -5.6415   29.5088 N.ar    1  UNL1       -0.2273
     23 C          -7.2438   -5.4294   30.4176 C.ar    1  UNL1        0.0885
     24 C          -6.8125   -5.8428   31.6664 C.ar    1  UNL1        0.0537
     25 C          -7.6126   -5.8315   32.9371 C.3     1  UNL1        0.0514
     26 C          -4.9501   -8.3658   32.7619 C.3     1  UNL1        0.0265
     27 C          -4.6774   -6.8806   32.5545 C.3     1  UNL1        0.1073
     28 C          -9.2229  -13.1453   29.2153 C.ar    1  UNL1        0.0221
     29 C          -9.7084  -14.2023   28.4353 C.ar    1  UNL1        0.0013
     30 C          -8.8456  -14.9394   27.6213 C.ar    1  UNL1       -0.0042
     31 C          -7.4640  -14.6515   27.5704 C.ar    1  UNL1       -0.0228
     32 C          -6.9836  -13.5973   28.3822 C.ar    1  UNL1       -0.0042
     33 C          -7.8510  -12.8614   29.1943 C.ar    1  UNL1        0.0013
     34 C          -6.5440  -15.4893   26.6584 C.3     1  UNL1        0.0189
     35 C          -6.0588  -16.7387   27.4252 C.3     1  UNL1        0.0044
     36 C          -7.3270  -15.9304   25.4024 C.3     1  UNL1        0.0044
     37 C          -5.2921  -14.7140   26.1820 C.3     1  UNL1        0.0044
@<TRIPOS>BOND
     1    26    27    1
     2    27    20    1
     3    20    21   ar
     4    21    22   ar
     5    22    23   ar
     6    23    19    1
     7    19    13    1
     8    13    14    1
     9    14    15    1
    10    15    16    1
    11    16     1    1
    12     1     2   ar
    13     2     3   ar
    14     3     4   ar
    15     4     5   ar
    16     5     6   ar
    17     6     7    1
    18     6     8   ar
    19     8    28    1
    20    28    29   ar
    21    29    30   ar
    22    30    31   ar
    23    31    34    1
    24    34    35    1
    25    34    36    1
    26    34    37    1
    27    31    32   ar
    28    32    33   ar
    29     8     9   ar
    30     9    10   ar
    31    16    17    1
    32    17    18    1
    33    23    24   ar
    34    24    25    1
    35    24    20   ar
    36    18    13    1
    37    10     1   ar
    38    10     5   ar
    39    33    28   ar
    40     7    11    1
    41     9    12    1
