@<TRIPOS>MOLECULE
*****
 38 41 0 0 0
SMALL
GASTEIGER

@<TRIPOS>ATOM
      1 N         -30.2695   49.9866   -8.7532 N.am    1  UNL1       -0.2685
      2 C         -30.3906   50.1346   -7.3279 C.2     1  UNL1        0.2674
      3 O         -31.3601   50.7951   -6.8678 O.2     1  UNL1       -0.2682
      4 C         -29.4497   49.4296   -6.4201 C.ar    1  UNL1        0.1409
      5 N         -29.4611   48.0705   -6.4502 N.ar    1  UNL1       -0.2390
      6 C         -28.7033   47.3056   -5.6306 C.ar    1  UNL1        0.0990
      7 C         -27.8548   47.9054   -4.7004 C.ar    1  UNL1        0.0194
      8 C         -27.0676   47.1138   -3.8498 C.ar    1  UNL1        0.0015
      9 C         -26.1982   47.7135   -2.9391 C.ar    1  UNL1        0.0000
     10 C         -26.1018   49.1031   -2.8760 C.ar    1  UNL1        0.0000
     11 C         -26.8808   49.9031   -3.7162 C.ar    1  UNL1        0.0003
     12 C         -27.7837   49.3192   -4.6340 C.ar    1  UNL1        0.0094
     13 C         -28.5936   50.0987   -5.5043 C.ar    1  UNL1        0.0976
     14 C         -28.5183   51.5756   -5.4852 C.2     1  UNL1        0.3397
     15 O         -27.4183   52.1568   -5.6871 O.2     1  UNL1       -0.2450
     16 O         -29.6623   52.3258   -5.2314 O.3     1  UNL1       -0.4771
     17 H         -29.6259   53.3377   -5.2049 H       1  UNL1        0.2954
     18 C         -29.5669   50.6785  -11.0384 C.3     1  UNL1        0.0265
     19 C         -29.3465   50.8390   -9.5268 C.3     1  UNL1        0.1007
     20 C         -27.9078   50.5955   -9.0952 C.ar    1  UNL1        0.0234
     21 C         -27.4408   49.3005   -8.7879 C.ar    1  UNL1        0.0019
     22 C         -26.1315   49.1039   -8.3415 C.ar    1  UNL1        0.0295
     23 C         -25.2739   50.1933   -8.1826 C.ar    1  UNL1        0.1424
     24 F         -24.0047   49.9997   -7.7467 F       1  UNL1       -0.2041
     25 C         -25.7276   51.4838   -8.4612 C.ar    1  UNL1        0.0590
     26 C         -27.0377   51.6897   -8.9062 C.ar    1  UNL1        0.1399
     27 F         -27.4565   52.9591   -9.1421 F       1  UNL1       -0.2044
     28 C         -31.2087   49.0889   -9.4379 C.3     1  UNL1        0.1207
     29 C         -30.7397   47.6666   -9.3091 C.ar    1  UNL1       -0.0021
     30 C         -31.5836   46.6996   -8.7446 C.ar    1  UNL1       -0.0026
     31 C         -31.1894   45.3612   -8.7033 C.ar    1  UNL1       -0.0001
     32 C         -29.9575   44.9746   -9.2366 C.ar    1  UNL1        0.0064
     33 C         -29.1031   45.9280   -9.8189 C.ar    1  UNL1        0.0752
     34 C         -29.5029   47.2758   -9.8483 C.ar    1  UNL1        0.0038
     35 C         -27.8094   45.5203  -10.4095 C.2     1  UNL1        0.3380
     36 O         -26.8615   45.1394   -9.6703 O.2     1  UNL1       -0.2451
     37 O         -27.6270   45.5509  -11.7897 O.3     1  UNL1       -0.4771
     38 H         -26.7459   45.2718  -12.2045 H       1  UNL1        0.2954
@<TRIPOS>BOND
     1    18    19    1
     2    19    20    1
     3    20    21   ar
     4    21    22   ar
     5    22    23   ar
     6    23    24    1
     7    23    25   ar
     8    25    26   ar
     9    26    27    1
    10    19     1    1
    11     1    28    1
    12    28    29    1
    13    29    30   ar
    14    30    31   ar
    15    31    32   ar
    16    32    33   ar
    17    33    35    1
    18    35    36    2
    19    35    37    1
    20    33    34   ar
    21     1     2   am
    22     2     3    2
    23     2     4    1
    24     4     5   ar
    25     5     6   ar
    26     6     7   ar
    27     7     8   ar
    28     8     9   ar
    29     9    10   ar
    30    10    11   ar
    31    11    12   ar
    32    12    13   ar
    33    13    14    1
    34    14    15    2
    35    14    16    1
    36    26    20   ar
    37    34    29   ar
    38    13     4   ar
    39    12     7   ar
    40    37    38    1
    41    16    17    1
@<TRIPOS>MOLECULE
*****
 38 41 0 0 0
SMALL
GASTEIGER

@<TRIPOS>ATOM
      1 N         -30.0495   49.5132   -5.3289 N.am    1  UNL1       -0.2685
      2 C         -30.0810   48.5030   -4.3058 C.2     1  UNL1        0.2674
      3 O         -31.1316   48.3643   -3.6238 O.2     1  UNL1       -0.2682
      4 C         -28.9341   47.5747   -4.1357 C.ar    1  UNL1        0.1409
      5 N         -28.1960   47.2926   -5.2422 N.ar    1  UNL1       -0.2390
      6 C         -27.1665   46.4146   -5.2411 C.ar    1  UNL1        0.0990
      7 C         -26.8141   45.7511   -4.0661 C.ar    1  UNL1        0.0194
      8 C         -25.7463   44.8404   -4.0628 C.ar    1  UNL1        0.0015
      9 C         -25.3757   44.1982   -2.8816 C.ar    1  UNL1        0.0000
     10 C         -26.0605   44.4651   -1.6967 C.ar    1  UNL1        0.0000
     11 C         -27.1264   45.3687   -1.6861 C.ar    1  UNL1        0.0003
     12 C         -27.5333   46.0175   -2.8744 C.ar    1  UNL1        0.0094
     13 C         -28.6129   46.9418   -2.9046 C.ar    1  UNL1        0.0976
     14 C         -29.3619   47.2687   -1.6720 C.2     1  UNL1        0.3397
     15 O         -28.8748   48.0672   -0.8273 O.2     1  UNL1       -0.2450
     16 O         -30.6025   46.6839   -1.4378 O.3     1  UNL1       -0.4771
     17 H         -31.1239   46.8893   -0.5940 H       1  UNL1        0.2954
     18 C         -30.4283   51.9658   -5.1400 C.3     1  UNL1        0.0265
     19 C         -29.4080   50.8189   -5.0835 C.3     1  UNL1        0.1007
     20 C         -28.2238   51.0152   -6.0186 C.ar    1  UNL1        0.0234
     21 C         -28.3708   51.6517   -7.2687 C.ar    1  UNL1        0.0019
     22 C         -27.2827   51.7746   -8.1367 C.ar    1  UNL1        0.0295
     23 C         -26.0381   51.2549   -7.7786 C.ar    1  UNL1        0.1424
     24 F         -24.9848   51.3734   -8.6240 F       1  UNL1       -0.2041
     25 C         -25.8814   50.6024   -6.5544 C.ar    1  UNL1        0.0590
     26 C         -26.9660   50.4730   -5.6807 C.ar    1  UNL1        0.1399
     27 F         -26.7875   49.8092   -4.5102 F       1  UNL1       -0.2044
     28 C         -30.8185   49.2776   -6.5576 C.3     1  UNL1        0.1207
     29 C         -30.2161   48.1336   -7.3242 C.ar    1  UNL1       -0.0021
     30 C         -31.0008   47.0178   -7.6484 C.ar    1  UNL1       -0.0026
     31 C         -30.4734   45.9930   -8.4358 C.ar    1  UNL1       -0.0001
     32 C         -29.1649   46.0791   -8.9174 C.ar    1  UNL1        0.0064
     33 C         -28.3668   47.1967   -8.6140 C.ar    1  UNL1        0.0752
     34 C         -28.9018   48.2205   -7.8123 C.ar    1  UNL1        0.0038
     35 C         -26.9897   47.3060   -9.1437 C.2     1  UNL1        0.3380
     36 O         -26.5997   48.3715   -9.6937 O.2     1  UNL1       -0.2451
     37 O         -26.1092   46.2324   -9.0370 O.3     1  UNL1       -0.4771
     38 H         -25.1635   46.2976   -9.3944 H       1  UNL1        0.2954
@<TRIPOS>BOND
     1    18    19    1
     2    19    20    1
     3    20    21   ar
     4    21    22   ar
     5    22    23   ar
     6    23    24    1
     7    23    25   ar
     8    25    26   ar
     9    26    27    1
    10    19     1    1
    11     1    28    1
    12    28    29    1
    13    29    30   ar
    14    30    31   ar
    15    31    32   ar
    16    32    33   ar
    17    33    35    1
    18    35    36    2
    19    35    37    1
    20    33    34   ar
    21     1     2   am
    22     2     3    2
    23     2     4    1
    24     4     5   ar
    25     5     6   ar
    26     6     7   ar
    27     7     8   ar
    28     8     9   ar
    29     9    10   ar
    30    10    11   ar
    31    11    12   ar
    32    12    13   ar
    33    13    14    1
    34    14    15    2
    35    14    16    1
    36    26    20   ar
    37    34    29   ar
    38    13     4   ar
    39    12     7   ar
    40    37    38    1
    41    16    17    1
@<TRIPOS>MOLECULE
*****
 38 41 0 0 0
SMALL
GASTEIGER

@<TRIPOS>ATOM
      1 N         -29.3574   46.8939   -6.0805 N.am    1  UNL1       -0.2685
      2 C         -28.8765   47.0146   -7.4304 C.2     1  UNL1        0.2674
      3 O         -29.4571   46.3645   -8.3405 O.2     1  UNL1       -0.2682
      4 C         -27.7871   47.9710   -7.7536 C.ar    1  UNL1        0.1409
      5 N         -26.5772   47.7509   -7.1738 N.ar    1  UNL1       -0.2390
      6 C         -25.5194   48.5800   -7.3307 C.ar    1  UNL1        0.0990
      7 C         -25.6374   49.7228   -8.1213 C.ar    1  UNL1        0.0194
      8 C         -24.5413   50.5836   -8.2857 C.ar    1  UNL1        0.0015
      9 C         -24.6508   51.7113   -9.0990 C.ar    1  UNL1        0.0000
     10 C         -25.8486   51.9832   -9.7589 C.ar    1  UNL1        0.0000
     11 C         -26.9482   51.1351   -9.6029 C.ar    1  UNL1        0.0003
     12 C         -26.8680   49.9967   -8.7686 C.ar    1  UNL1        0.0094
     13 C         -27.9643   49.1109   -8.5835 C.ar    1  UNL1        0.0976
     14 C         -29.2516   49.3483   -9.2718 C.2     1  UNL1        0.3397
     15 O         -30.0023   50.2917   -8.9045 O.2     1  UNL1       -0.2450
     16 O         -29.6415   48.5203  -10.3200 O.3     1  UNL1       -0.4771
     17 H         -30.5244   48.6630  -10.7953 H       1  UNL1        0.2954
     18 C         -29.6895   45.0634   -4.4272 C.3     1  UNL1        0.0265
     19 C         -28.6870   46.0020   -5.1153 C.3     1  UNL1        0.1007
     20 C         -27.8450   46.8098   -4.1387 C.ar    1  UNL1        0.0234
     21 C         -28.4344   47.7210   -3.2376 C.ar    1  UNL1        0.0019
     22 C         -27.6405   48.4933   -2.3858 C.ar    1  UNL1        0.0295
     23 C         -26.2503   48.3791   -2.4279 C.ar    1  UNL1        0.1424
     24 F         -25.4825   49.1318   -1.6019 F       1  UNL1       -0.2041
     25 C         -25.6505   47.4982   -3.3296 C.ar    1  UNL1        0.0590
     26 C         -26.4378   46.7231   -4.1876 C.ar    1  UNL1        0.1399
     27 F         -25.8230   45.8965   -5.0714 F       1  UNL1       -0.2044
     28 C         -30.6283   47.5453   -5.7380 C.3     1  UNL1        0.1207
     29 C         -30.4568   49.0385   -5.7569 C.ar    1  UNL1       -0.0021
     30 C         -31.5836   49.8722   -5.7898 C.ar    1  UNL1       -0.0026
     31 C         -31.4343   51.2582   -5.7177 C.ar    1  UNL1       -0.0001
     32 C         -30.1620   51.8227   -5.5982 C.ar    1  UNL1        0.0064
     33 C         -29.0208   51.0023   -5.5500 C.ar    1  UNL1        0.0752
     34 C         -29.1784   49.6074   -5.6329 C.ar    1  UNL1        0.0038
     35 C         -27.6732   51.5931   -5.3962 C.2     1  UNL1        0.3380
     36 O         -26.8218   51.0535   -4.6387 O.2     1  UNL1       -0.2451
     37 O         -27.3310   52.7511   -6.0899 O.3     1  UNL1       -0.4771
     38 H         -26.4104   53.1627   -5.9934 H       1  UNL1        0.2954
@<TRIPOS>BOND
     1    18    19    1
     2    19    20    1
     3    20    21   ar
     4    21    22   ar
     5    22    23   ar
     6    23    24    1
     7    23    25   ar
     8    25    26   ar
     9    26    27    1
    10    19     1    1
    11     1    28    1
    12    28    29    1
    13    29    30   ar
    14    30    31   ar
    15    31    32   ar
    16    32    33   ar
    17    33    35    1
    18    35    36    2
    19    35    37    1
    20    33    34   ar
    21     1     2   am
    22     2     3    2
    23     2     4    1
    24     4     5   ar
    25     5     6   ar
    26     6     7   ar
    27     7     8   ar
    28     8     9   ar
    29     9    10   ar
    30    10    11   ar
    31    11    12   ar
    32    12    13   ar
    33    13    14    1
    34    14    15    2
    35    14    16    1
    36    26    20   ar
    37    34    29   ar
    38    13     4   ar
    39    12     7   ar
    40    37    38    1
    41    16    17    1
@<TRIPOS>MOLECULE
*****
 38 41 0 0 0
SMALL
GASTEIGER

@<TRIPOS>ATOM
      1 N         -29.6043   48.3488   -5.7698 N.am    1  UNL1       -0.2685
      2 C         -30.3742   47.4876   -4.9132 C.2     1  UNL1        0.2674
      3 O         -30.8441   46.4207   -5.3915 O.2     1  UNL1       -0.2682
      4 C         -30.5164   47.8026   -3.4686 C.ar    1  UNL1        0.1409
      5 N         -30.8181   49.0872   -3.1415 N.ar    1  UNL1       -0.2390
      6 C         -30.9119   49.5231   -1.8639 C.ar    1  UNL1        0.0990
      7 C         -30.6992   48.6398   -0.8059 C.ar    1  UNL1        0.0194
      8 C         -30.7966   49.0898    0.5199 C.ar    1  UNL1        0.0015
      9 C         -30.6119   48.2003    1.5780 C.ar    1  UNL1        0.0000
     10 C         -30.3376   46.8573    1.3221 C.ar    1  UNL1        0.0000
     11 C         -30.2367   46.3962    0.0068 C.ar    1  UNL1        0.0003
     12 C         -30.4005   47.2823   -1.0824 C.ar    1  UNL1        0.0094
     13 C         -30.3043   46.8519   -2.4339 C.ar    1  UNL1        0.0976
     14 C         -30.0285   45.4355   -2.7576 C.2     1  UNL1        0.3397
     15 O         -28.8787   44.9547   -2.5698 O.2     1  UNL1       -0.2450
     16 O         -31.0376   44.6341   -3.2827 O.3     1  UNL1       -0.4771
     17 H         -30.8626   43.6649   -3.5192 H       1  UNL1        0.2954
     18 C         -31.3578   49.1557   -7.3409 C.3     1  UNL1        0.0265
     19 C         -30.2141   49.5403   -6.3904 C.3     1  UNL1        0.1007
     20 C         -29.1472   50.4053   -7.0454 C.ar    1  UNL1        0.0234
     21 C         -28.7106   50.1624   -8.3644 C.ar    1  UNL1        0.0019
     22 C         -27.6917   50.9337   -8.9298 C.ar    1  UNL1        0.0295
     23 C         -27.0852   51.9473   -8.1867 C.ar    1  UNL1        0.1424
     24 F         -26.0950   52.6922   -8.7370 F       1  UNL1       -0.2041
     25 C         -27.4906   52.1857   -6.8722 C.ar    1  UNL1        0.0590
     26 C         -28.5082   51.4167   -6.2979 C.ar    1  UNL1        0.1399
     27 F         -28.8603   51.6554   -5.0089 F       1  UNL1       -0.2044
     28 C         -28.2514   47.9196   -6.1469 C.3     1  UNL1        0.1207
     29 C         -27.3758   47.8641   -4.9263 C.ar    1  UNL1       -0.0021
     30 C         -27.2045   49.0088   -4.1350 C.ar    1  UNL1       -0.0026
     31 C         -26.4655   48.9413   -2.9528 C.ar    1  UNL1       -0.0001
     32 C         -25.9036   47.7296   -2.5434 C.ar    1  UNL1        0.0064
     33 C         -26.0757   46.5677   -3.3169 C.ar    1  UNL1        0.0752
     34 C         -26.8133   46.6456   -4.5115 C.ar    1  UNL1        0.0038
     35 C         -25.5059   45.2760   -2.8745 C.2     1  UNL1        0.3380
     36 O         -24.2720   45.1697   -2.6381 O.2     1  UNL1       -0.2451
     37 O         -26.3290   44.1645   -2.7121 O.3     1  UNL1       -0.4771
     38 H         -25.9494   43.2760   -2.4076 H       1  UNL1        0.2954
@<TRIPOS>BOND
     1    18    19    1
     2    19    20    1
     3    20    21   ar
     4    21    22   ar
     5    22    23   ar
     6    23    24    1
     7    23    25   ar
     8    25    26   ar
     9    26    27    1
    10    19     1    1
    11     1    28    1
    12    28    29    1
    13    29    30   ar
    14    30    31   ar
    15    31    32   ar
    16    32    33   ar
    17    33    35    1
    18    35    36    2
    19    35    37    1
    20    33    34   ar
    21     1     2   am
    22     2     3    2
    23     2     4    1
    24     4     5   ar
    25     5     6   ar
    26     6     7   ar
    27     7     8   ar
    28     8     9   ar
    29     9    10   ar
    30    10    11   ar
    31    11    12   ar
    32    12    13   ar
    33    13    14    1
    34    14    15    2
    35    14    16    1
    36    26    20   ar
    37    34    29   ar
    38    13     4   ar
    39    12     7   ar
    40    37    38    1
    41    16    17    1
@<TRIPOS>MOLECULE
*****
 38 41 0 0 0
SMALL
GASTEIGER

@<TRIPOS>ATOM
      1 N         -26.6859   48.6774   -6.7578 N.am    1  UNL1       -0.2685
      2 C         -26.5348   49.3810   -8.0029 C.2     1  UNL1        0.2674
      3 O         -25.3835   49.4836   -8.5048 O.2     1  UNL1       -0.2682
      4 C         -27.7302   49.8794   -8.7302 C.ar    1  UNL1        0.1409
      5 N         -28.9183   49.2788   -8.4542 N.ar    1  UNL1       -0.2390
      6 C         -30.0707   49.5905   -9.0911 C.ar    1  UNL1        0.0990
      7 C         -30.0794   50.5727  -10.0811 C.ar    1  UNL1        0.0194
      8 C         -31.2738   50.8977  -10.7425 C.ar    1  UNL1        0.0015
      9 C         -31.2882   51.8997  -11.7125 C.ar    1  UNL1        0.0000
     10 C         -30.1163   52.5883  -12.0233 C.ar    1  UNL1        0.0000
     11 C         -28.9199   52.2738  -11.3733 C.ar    1  UNL1        0.0003
     12 C         -28.8757   51.2491  -10.4004 C.ar    1  UNL1        0.0094
     13 C         -27.6785   50.8992   -9.7184 C.ar    1  UNL1        0.0976
     14 C         -26.4125   51.6090  -10.0026 C.2     1  UNL1        0.3397
     15 O         -26.1961   52.7446   -9.5007 O.2     1  UNL1       -0.2450
     16 O         -25.4625   51.0272  -10.8363 O.3     1  UNL1       -0.4771
     17 H         -24.5947   51.5043  -11.0491 H       1  UNL1        0.2954
     18 C         -26.6338   48.4707   -4.2781 C.3     1  UNL1        0.0265
     19 C         -26.7926   49.4110   -5.4822 C.3     1  UNL1        0.1007
     20 C         -28.0732   50.2320   -5.4448 C.ar    1  UNL1        0.0234
     21 C         -29.3144   49.6450   -5.1218 C.ar    1  UNL1        0.0019
     22 C         -30.4876   50.4036   -5.1453 C.ar    1  UNL1        0.0295
     23 C         -30.4436   51.7519   -5.5028 C.ar    1  UNL1        0.1424
     24 F         -31.5840   52.4848   -5.5272 F       1  UNL1       -0.2041
     25 C         -29.2262   52.3423   -5.8468 C.ar    1  UNL1        0.0590
     26 C         -28.0475   51.5894   -5.8282 C.ar    1  UNL1        0.1399
     27 F         -26.8845   52.1858   -6.1944 F       1  UNL1       -0.2044
     28 C         -26.5587   47.2144   -6.7700 C.3     1  UNL1        0.1207
     29 C         -27.7239   46.6078   -7.5006 C.ar    1  UNL1       -0.0021
     30 C         -28.9074   46.3134   -6.8088 C.ar    1  UNL1       -0.0026
     31 C         -30.0226   45.8333   -7.4974 C.ar    1  UNL1       -0.0001
     32 C         -29.9711   45.6564   -8.8822 C.ar    1  UNL1        0.0064
     33 C         -28.7973   45.9588   -9.5953 C.ar    1  UNL1        0.0752
     34 C         -27.6748   46.4329   -8.8935 C.ar    1  UNL1        0.0038
     35 C         -28.7456   45.7992  -11.0652 C.2     1  UNL1        0.3380
     36 O         -29.8098   45.7152  -11.7364 O.2     1  UNL1       -0.2451
     37 O         -27.5193   45.7429  -11.7226 O.3     1  UNL1       -0.4771
     38 H         -27.4728   45.6360  -12.7290 H       1  UNL1        0.2954
@<TRIPOS>BOND
     1    18    19    1
     2    19    20    1
     3    20    21   ar
     4    21    22   ar
     5    22    23   ar
     6    23    24    1
     7    23    25   ar
     8    25    26   ar
     9    26    27    1
    10    19     1    1
    11     1    28    1
    12    28    29    1
    13    29    30   ar
    14    30    31   ar
    15    31    32   ar
    16    32    33   ar
    17    33    35    1
    18    35    36    2
    19    35    37    1
    20    33    34   ar
    21     1     2   am
    22     2     3    2
    23     2     4    1
    24     4     5   ar
    25     5     6   ar
    26     6     7   ar
    27     7     8   ar
    28     8     9   ar
    29     9    10   ar
    30    10    11   ar
    31    11    12   ar
    32    12    13   ar
    33    13    14    1
    34    14    15    2
    35    14    16    1
    36    26    20   ar
    37    34    29   ar
    38    13     4   ar
    39    12     7   ar
    40    37    38    1
    41    16    17    1
@<TRIPOS>MOLECULE
*****
 38 41 0 0 0
SMALL
GASTEIGER

@<TRIPOS>ATOM
      1 N         -28.4171   47.5371   -6.9861 N.am    1  UNL1       -0.2685
      2 C         -29.4083   46.7936   -7.7161 C.2     1  UNL1        0.2674
      3 O         -30.0566   45.8959   -7.1146 O.2     1  UNL1       -0.2682
      4 C         -29.7310   47.1556   -9.1200 C.ar    1  UNL1        0.1409
      5 N         -30.3929   48.3260   -9.3215 N.ar    1  UNL1       -0.2390
      6 C         -30.8045   48.7431  -10.5412 C.ar    1  UNL1        0.0990
      7 C         -30.5519   47.9631  -11.6693 C.ar    1  UNL1        0.0194
      8 C         -30.9775   48.3942  -12.9353 C.ar    1  UNL1        0.0015
      9 C         -30.7001   47.6280  -14.0671 C.ar    1  UNL1        0.0000
     10 C         -29.9910   46.4336  -13.9458 C.ar    1  UNL1        0.0000
     11 C         -29.5625   45.9920  -12.6911 C.ar    1  UNL1        0.0003
     12 C         -29.8483   46.7412  -11.5268 C.ar    1  UNL1        0.0094
     13 C         -29.4307   46.3250  -10.2333 C.ar    1  UNL1        0.0976
     14 C         -28.6644   45.0729  -10.0535 C.2     1  UNL1        0.3397
     15 O         -29.1534   44.1205   -9.3886 O.2     1  UNL1       -0.2450
     16 O         -27.3947   44.9501  -10.6093 O.3     1  UNL1       -0.4771
     17 H         -26.8527   44.1033  -10.4871 H       1  UNL1        0.2954
     18 C         -26.4056   46.7721   -5.7360 C.3     1  UNL1        0.0265
     19 C         -26.9854   47.1974   -7.0933 C.3     1  UNL1        0.1007
     20 C         -26.2158   48.3330   -7.7516 C.ar    1  UNL1        0.0234
     21 C         -25.4502   49.2411   -6.9910 C.ar    1  UNL1        0.0019
     22 C         -24.7942   50.3096   -7.6078 C.ar    1  UNL1        0.0295
     23 C         -24.9016   50.4963   -8.9866 C.ar    1  UNL1        0.1424
     24 F         -24.2661   51.5355   -9.5820 F       1  UNL1       -0.2041
     25 C         -25.6737   49.6194   -9.7506 C.ar    1  UNL1        0.0590
     26 C         -26.3356   48.5486   -9.1406 C.ar    1  UNL1        0.1399
     27 F         -27.1004   47.7302   -9.9073 F       1  UNL1       -0.2044
     28 C         -28.8788   48.5261   -6.0036 C.3     1  UNL1        0.1207
     29 C         -28.5345   49.9114   -6.4747 C.ar    1  UNL1       -0.0021
     30 C         -27.9361   50.8223   -5.5925 C.ar    1  UNL1       -0.0026
     31 C         -27.5329   52.0789   -6.0471 C.ar    1  UNL1       -0.0001
     32 C         -27.7103   52.4317   -7.3872 C.ar    1  UNL1        0.0064
     33 C         -28.2963   51.5266   -8.2901 C.ar    1  UNL1        0.0752
     34 C         -28.7087   50.2662   -7.8226 C.ar    1  UNL1        0.0038
     35 C         -28.4619   51.8845   -9.7159 C.2     1  UNL1        0.3380
     36 O         -27.5008   52.3771  -10.3667 O.2     1  UNL1       -0.2451
     37 O         -29.6821   51.6779  -10.3545 O.3     1  UNL1       -0.4771
     38 H         -29.8055   51.9175  -11.3311 H       1  UNL1        0.2954
@<TRIPOS>BOND
     1    18    19    1
     2    19    20    1
     3    20    21   ar
     4    21    22   ar
     5    22    23   ar
     6    23    24    1
     7    23    25   ar
     8    25    26   ar
     9    26    27    1
    10    19     1    1
    11     1    28    1
    12    28    29    1
    13    29    30   ar
    14    30    31   ar
    15    31    32   ar
    16    32    33   ar
    17    33    35    1
    18    35    36    2
    19    35    37    1
    20    33    34   ar
    21     1     2   am
    22     2     3    2
    23     2     4    1
    24     4     5   ar
    25     5     6   ar
    26     6     7   ar
    27     7     8   ar
    28     8     9   ar
    29     9    10   ar
    30    10    11   ar
    31    11    12   ar
    32    12    13   ar
    33    13    14    1
    34    14    15    2
    35    14    16    1
    36    26    20   ar
    37    34    29   ar
    38    13     4   ar
    39    12     7   ar
    40    37    38    1
    41    16    17    1
@<TRIPOS>MOLECULE
*****
 38 41 0 0 0
SMALL
GASTEIGER

@<TRIPOS>ATOM
      1 N         -26.8029   50.9263   -6.6501 N.am    1  UNL1       -0.2685
      2 C         -27.1009   51.0274   -5.2469 C.2     1  UNL1        0.2674
      3 O         -26.4668   51.8658   -4.5519 O.2     1  UNL1       -0.2682
      4 C         -28.2097   50.2331   -4.6586 C.ar    1  UNL1        0.1409
      5 N         -29.4768   50.5986   -4.9891 N.ar    1  UNL1       -0.2390
      6 C         -30.5771   50.0031   -4.4740 C.ar    1  UNL1        0.0990
      7 C         -30.4440   48.9580   -3.5602 C.ar    1  UNL1        0.0194
      8 C         -31.5840   48.3386   -3.0251 C.ar    1  UNL1        0.0015
      9 C         -31.4509   47.2748   -2.1331 C.ar    1  UNL1        0.0000
     10 C         -30.1833   46.8170   -1.7756 C.ar    1  UNL1        0.0000
     11 C         -29.0398   47.4255   -2.2999 C.ar    1  UNL1        0.0003
     12 C         -29.1485   48.5179   -3.1907 C.ar    1  UNL1        0.0094
     13 C         -28.0096   49.1638   -3.7443 C.ar    1  UNL1        0.0976
     14 C         -26.6440   48.7072   -3.4069 C.2     1  UNL1        0.3397
     15 O         -26.1569   47.6922   -3.9736 O.2     1  UNL1       -0.2450
     16 O         -25.8988   49.3923   -2.4522 O.3     1  UNL1       -0.4771
     17 H         -24.9660   49.0867   -2.2024 H       1  UNL1        0.2954
     18 C         -24.8410   50.4268   -8.0977 C.3     1  UNL1        0.0265
     19 C         -25.9191   49.8612   -7.1612 C.3     1  UNL1        0.1007
     20 C         -26.7391   48.7427   -7.7873 C.ar    1  UNL1        0.0234
     21 C         -27.4475   47.8167   -6.9935 C.ar    1  UNL1        0.0019
     22 C         -28.1510   46.7643   -7.5852 C.ar    1  UNL1        0.0295
     23 C         -28.1483   46.6116   -8.9724 C.ar    1  UNL1        0.1424
     24 F         -28.8297   45.5879   -9.5434 F       1  UNL1       -0.2041
     25 C         -27.4338   47.5066   -9.7706 C.ar    1  UNL1        0.0590
     26 C         -26.7250   48.5615   -9.1862 C.ar    1  UNL1        0.1399
     27 F         -26.0181   49.3981   -9.9880 F       1  UNL1       -0.2044
     28 C         -27.2591   52.0069   -7.5338 C.3     1  UNL1        0.1207
     29 C         -28.2979   51.4825   -8.4854 C.ar    1  UNL1       -0.0021
     30 C         -29.3938   50.7580   -7.9956 C.ar    1  UNL1       -0.0026
     31 C         -30.4070   50.3453   -8.8624 C.ar    1  UNL1       -0.0001
     32 C         -30.3424   50.6635  -10.2212 C.ar    1  UNL1        0.0064
     33 C         -29.2578   51.4009  -10.7288 C.ar    1  UNL1        0.0752
     34 C         -28.2362   51.8050   -9.8511 C.ar    1  UNL1        0.0038
     35 C         -29.1976   51.7641  -12.1617 C.2     1  UNL1        0.3380
     36 O         -29.0865   50.8695  -13.0433 O.2     1  UNL1       -0.2451
     37 O         -29.2659   53.0994  -12.5510 O.3     1  UNL1       -0.4771
     38 H         -29.2277   53.3588  -13.5296 H       1  UNL1        0.2954
@<TRIPOS>BOND
     1    18    19    1
     2    19    20    1
     3    20    21   ar
     4    21    22   ar
     5    22    23   ar
     6    23    24    1
     7    23    25   ar
     8    25    26   ar
     9    26    27    1
    10    19     1    1
    11     1    28    1
    12    28    29    1
    13    29    30   ar
    14    30    31   ar
    15    31    32   ar
    16    32    33   ar
    17    33    35    1
    18    35    36    2
    19    35    37    1
    20    33    34   ar
    21     1     2   am
    22     2     3    2
    23     2     4    1
    24     4     5   ar
    25     5     6   ar
    26     6     7   ar
    27     7     8   ar
    28     8     9   ar
    29     9    10   ar
    30    10    11   ar
    31    11    12   ar
    32    12    13   ar
    33    13    14    1
    34    14    15    2
    35    14    16    1
    36    26    20   ar
    37    34    29   ar
    38    13     4   ar
    39    12     7   ar
    40    37    38    1
    41    16    17    1
@<TRIPOS>MOLECULE
*****
 38 41 0 0 0
SMALL
GASTEIGER

@<TRIPOS>ATOM
      1 N         -27.2593   50.3847   -6.6982 N.am    1  UNL1       -0.2685
      2 C         -27.1988   50.2532   -5.2674 C.2     1  UNL1        0.2674
      3 O         -26.3465   50.9302   -4.6325 O.2     1  UNL1       -0.2682
      4 C         -28.1953   49.4171   -4.5504 C.ar    1  UNL1        0.1409
      5 N         -29.4750   49.4490   -5.0083 N.ar    1  UNL1       -0.2390
      6 C         -30.4922   48.7875   -4.4094 C.ar    1  UNL1        0.0990
      7 C         -30.2534   48.0230   -3.2677 C.ar    1  UNL1        0.0194
      8 C         -31.3070   47.3357   -2.6453 C.ar    1  UNL1        0.0015
      9 C         -31.0632   46.5484   -1.5203 C.ar    1  UNL1        0.0000
     10 C         -29.7690   46.4347   -1.0141 C.ar    1  UNL1        0.0000
     11 C         -28.7110   47.1146   -1.6233 C.ar    1  UNL1        0.0003
     12 C         -28.9360   47.9342   -2.7530 C.ar    1  UNL1        0.0094
     13 C         -27.8867   48.6423   -3.3997 C.ar    1  UNL1        0.0976
     14 C         -26.4949   48.5438   -2.9095 C.2     1  UNL1        0.3397
     15 O         -25.8008   47.5251   -3.1726 O.2     1  UNL1       -0.2450
     16 O         -25.9535   49.5727   -2.1450 O.3     1  UNL1       -0.4771
     17 H         -25.0054   49.5163   -1.7932 H       1  UNL1        0.2954
     18 C         -25.9863   48.2472   -6.7665 C.3     1  UNL1        0.0265
     19 C         -26.6193   49.3878   -7.5775 C.3     1  UNL1        0.1007
     20 C         -25.6465   50.0649   -8.5317 C.ar    1  UNL1        0.0234
     21 C         -24.5302   50.7843   -8.0566 C.ar    1  UNL1        0.0019
     22 C         -23.6784   51.4445   -8.9460 C.ar    1  UNL1        0.0295
     23 C         -23.9329   51.4088  -10.3177 C.ar    1  UNL1        0.1424
     24 F         -23.1061   52.0526  -11.1780 F       1  UNL1       -0.2041
     25 C         -25.0462   50.7198  -10.8022 C.ar    1  UNL1        0.0590
     26 C         -25.9053   50.0582   -9.9185 C.ar    1  UNL1        0.1399
     27 F         -26.9940   49.4204  -10.4189 F       1  UNL1       -0.2044
     28 C         -27.8226   51.6209   -7.2561 C.3     1  UNL1        0.1207
     29 C         -28.7957   51.2879   -8.3523 C.ar    1  UNL1       -0.0021
     30 C         -29.8790   50.4366   -8.0921 C.ar    1  UNL1       -0.0026
     31 C         -30.8350   50.1944   -9.0799 C.ar    1  UNL1       -0.0001
     32 C         -30.7261   50.8096  -10.3294 C.ar    1  UNL1        0.0064
     33 C         -29.6540   51.6771  -10.6047 C.ar    1  UNL1        0.0752
     34 C         -28.6896   51.9088   -9.6079 C.ar    1  UNL1        0.0038
     35 C         -29.5482   52.3525  -11.9167 C.2     1  UNL1        0.3380
     36 O         -29.3455   51.6826  -12.9655 O.2     1  UNL1       -0.2451
     37 O         -29.6744   53.7365  -12.0061 O.3     1  UNL1       -0.4771
     38 H         -29.6058   54.2087  -12.8998 H       1  UNL1        0.2954
@<TRIPOS>BOND
     1    18    19    1
     2    19    20    1
     3    20    21   ar
     4    21    22   ar
     5    22    23   ar
     6    23    24    1
     7    23    25   ar
     8    25    26   ar
     9    26    27    1
    10    19     1    1
    11     1    28    1
    12    28    29    1
    13    29    30   ar
    14    30    31   ar
    15    31    32   ar
    16    32    33   ar
    17    33    35    1
    18    35    36    2
    19    35    37    1
    20    33    34   ar
    21     1     2   am
    22     2     3    2
    23     2     4    1
    24     4     5   ar
    25     5     6   ar
    26     6     7   ar
    27     7     8   ar
    28     8     9   ar
    29     9    10   ar
    30    10    11   ar
    31    11    12   ar
    32    12    13   ar
    33    13    14    1
    34    14    15    2
    35    14    16    1
    36    26    20   ar
    37    34    29   ar
    38    13     4   ar
    39    12     7   ar
    40    37    38    1
    41    16    17    1
@<TRIPOS>MOLECULE
*****
 38 41 0 0 0
SMALL
GASTEIGER

@<TRIPOS>ATOM
      1 N         -28.7833   50.0361   -6.3122 N.am    1  UNL1       -0.2685
      2 C         -29.0503   49.2852   -5.1152 C.2     1  UNL1        0.2674
      3 O         -29.9827   49.6649   -4.3574 O.2     1  UNL1       -0.2682
      4 C         -28.3094   48.0275   -4.8404 C.ar    1  UNL1        0.1409
      5 N         -28.7541   46.8996   -5.4555 N.ar    1  UNL1       -0.2390
      6 C         -28.2125   45.6779   -5.2428 C.ar    1  UNL1        0.0990
      7 C         -27.1430   45.5308   -4.3599 C.ar    1  UNL1        0.0194
      8 C         -26.5796   44.2647   -4.1384 C.ar    1  UNL1        0.0015
      9 C         -25.4919   44.1219   -3.2772 C.ar    1  UNL1        0.0000
     10 C         -24.9546   45.2391   -2.6389 C.ar    1  UNL1        0.0000
     11 C         -25.5068   46.5054   -2.8496 C.ar    1  UNL1        0.0003
     12 C         -26.6216   46.6730   -3.7027 C.ar    1  UNL1        0.0094
     13 C         -27.2119   47.9439   -3.9416 C.ar    1  UNL1        0.0976
     14 C         -26.6705   49.1609   -3.2990 C.2     1  UNL1        0.3397
     15 O         -26.1945   50.0913   -4.0035 O.2     1  UNL1       -0.2450
     16 O         -26.6749   49.2744   -1.9122 O.3     1  UNL1       -0.4771
     17 H         -26.2988   50.0968   -1.4561 H       1  UNL1        0.2954
     18 C         -28.1869   52.4395   -6.0622 C.3     1  UNL1        0.0265
     19 C         -27.6839   51.0189   -6.3596 C.3     1  UNL1        0.1007
     20 C         -26.9256   50.9077   -7.6741 C.ar    1  UNL1        0.0234
     21 C         -27.1422   51.8196   -8.7281 C.ar    1  UNL1        0.0019
     22 C         -26.4759   51.6692   -9.9470 C.ar    1  UNL1        0.0295
     23 C         -25.5960   50.6030  -10.1381 C.ar    1  UNL1        0.1424
     24 F         -24.9530   50.4582  -11.3230 F       1  UNL1       -0.2041
     25 C         -25.3876   49.6791   -9.1126 C.ar    1  UNL1        0.0590
     26 C         -26.0524   49.8210   -7.8901 C.ar    1  UNL1        0.1399
     27 F         -25.8489   48.8904   -6.9230 F       1  UNL1       -0.2044
     28 C         -29.7353   49.9258   -7.4249 C.3     1  UNL1        0.1207
     29 C         -29.7693   48.5096   -7.9279 C.ar    1  UNL1       -0.0021
     30 C         -30.9879   47.8193   -7.9941 C.ar    1  UNL1       -0.0026
     31 C         -31.0397   46.5369   -8.5428 C.ar    1  UNL1       -0.0001
     32 C         -29.8802   45.9386   -9.0420 C.ar    1  UNL1        0.0064
     33 C         -28.6510   46.6205   -8.9965 C.ar    1  UNL1        0.0752
     34 C         -28.6049   47.9083   -8.4336 C.ar    1  UNL1        0.0038
     35 C         -27.4251   46.0029   -9.5482 C.2     1  UNL1        0.3380
     36 O         -26.3133   46.1696   -8.9772 O.2     1  UNL1       -0.2451
     37 O         -27.4882   45.2281  -10.7036 O.3     1  UNL1       -0.4771
     38 H         -26.6551   44.7989  -11.0885 H       1  UNL1        0.2954
@<TRIPOS>BOND
     1    18    19    1
     2    19    20    1
     3    20    21   ar
     4    21    22   ar
     5    22    23   ar
     6    23    24    1
     7    23    25   ar
     8    25    26   ar
     9    26    27    1
    10    19     1    1
    11     1    28    1
    12    28    29    1
    13    29    30   ar
    14    30    31   ar
    15    31    32   ar
    16    32    33   ar
    17    33    35    1
    18    35    36    2
    19    35    37    1
    20    33    34   ar
    21     1     2   am
    22     2     3    2
    23     2     4    1
    24     4     5   ar
    25     5     6   ar
    26     6     7   ar
    27     7     8   ar
    28     8     9   ar
    29     9    10   ar
    30    10    11   ar
    31    11    12   ar
    32    12    13   ar
    33    13    14    1
    34    14    15    2
    35    14    16    1
    36    26    20   ar
    37    34    29   ar
    38    13     4   ar
    39    12     7   ar
    40    37    38    1
    41    16    17    1
