@<TRIPOS>MOLECULE
*****
 76 78 0 0 0
SMALL
GASTEIGER

@<TRIPOS>ATOM
      1 C          -8.3136  -11.4804   31.1682 C.ar    1  UNL1        0.1694
      2 C          -9.6311  -11.9883   31.0693 C.ar    1  UNL1        0.1811
      3 C          -9.9333  -12.9207   30.0697 C.ar    1  UNL1        0.1358
      4 C          -8.9802  -13.3119   29.1361 C.ar    1  UNL1        0.2879
      5 O          -9.3452  -14.1620   28.1874 O.3     1  UNL1       -0.5462
      6 C          -8.5165  -14.6248   27.2645 C.ar    1  UNL1        0.2910
      7 C          -9.0091  -15.5150   26.3134 C.ar    1  UNL1        0.1326
      8 C          -8.1708  -16.0508   25.3246 C.ar    1  UNL1        0.1469
      9 C          -6.8049  -15.7057   25.3153 C.ar    1  UNL1        0.0504
     10 C          -6.2927  -14.8107   26.2824 C.ar    1  UNL1        0.1441
     11 O          -4.9116  -14.5822   26.2848 O.3     1  UNL1       -0.5053
     12 C          -7.1674  -14.2177   27.2386 C.ar    1  UNL1        0.1601
     13 C          -6.7771  -13.2102   28.1543 C.2     1  UNL1        0.2146
     14 O          -5.6750  -12.6243   27.9984 O.2     1  UNL1       -0.2859
     15 C          -7.6642  -12.8049   29.1898 C.ar    1  UNL1        0.1263
     16 C          -7.3144  -11.9202   30.2604 C.ar    1  UNL1        0.0304
     17 H          -4.3874  -14.2877   27.0963 H       1  UNL1        0.2922
     18 H         -10.2365  -14.4506   28.1688 H       1  UNL1        0.5634
     19 C          -8.0362  -10.6527   33.5527 C.3     1  UNL1        0.2526
     20 O          -7.9363  -10.5272   32.1385 O.3     1  UNL1       -0.4687
     21 O          -8.6577  -16.9337   24.3435 O.3     1  UNL1       -0.4655
     22 C          -9.2155  -18.2246   24.5876 C.3     1  UNL1        0.2893
     23 C          -8.8662  -19.1695   23.4768 C.2     1  UNL1        0.2673
     24 O          -9.0081  -20.4100   23.6532 O.2     1  UNL1       -0.2711
     25 N          -8.3558  -18.6667   22.2332 N.am    1  UNL1       -0.2953
     26 H          -8.2048  -17.6359   22.1504 H       1  UNL1        0.1499
     27 C          -8.2467  -19.5111   21.0359 C.3     1  UNL1        0.1485
     28 C          -6.8452  -19.5009   20.4758 C.2     1  UNL1        0.2372
     29 N          -6.3685  -18.3558   19.7690 N.am    1  UNL1       -0.3275
     30 O          -6.0688  -20.4758   20.6669 O.2     1  UNL1       -0.2736
     31 H          -5.3931  -18.3349   19.3968 H       1  UNL1        0.1450
     32 H          -6.9820  -17.5231   19.6266 H       1  UNL1        0.1450
     33 C          -9.2965  -19.1005   19.9798 C.3     1  UNL1        0.0325
     34 C         -10.7461  -19.0263   20.5072 C.3     1  UNL1        0.0450
     35 C         -11.3462  -17.6183   20.3897 C.3     1  UNL1        0.1740
     36 N         -10.2905  -16.6135   20.2643 N.pl3   1  UNL1       -0.2625
     37 H          -9.7636  -16.5358   19.3648 H       1  UNL1        0.2587
     38 C          -9.9634  -15.6942   21.3170 C.cat   1  UNL1        0.3769
     39 N          -9.0579  -14.7923   21.1068 N.pl3   1  UNL1       -0.1298
     40 N         -10.6217  -15.7581   22.5888 N.pl3   1  UNL1       -0.2892
     41 H          -8.7861  -14.1022   21.8420 H       1  UNL1        0.3062
     42 H         -10.3757  -15.0834   23.3469 H       1  UNL1        0.2546
     43 H         -11.3551  -16.4710   22.7926 H       1  UNL1        0.2546
     44 C          -5.8761  -16.3052   24.2789 C.3     1  UNL1        0.0578
     45 C          -6.0563  -15.6098   22.9509 C.2     1  UNL1       -0.0297
     46 C          -5.1564  -15.6125   21.9424 C.2     1  UNL1       -0.0475
     47 C          -3.8270  -16.3194   22.0507 C.3     1  UNL1        0.0260
     48 C          -5.5057  -14.8847   20.6696 C.3     1  UNL1        0.0260
     49 O         -10.6191  -11.5638   31.9741 O.3     1  UNL1       -0.4623
     50 C         -11.8801  -10.9948   31.6208 C.3     1  UNL1        0.2895
     51 C         -11.7891   -9.4986   31.6427 C.2     1  UNL1        0.2673
     52 O         -12.4422   -8.8559   32.5086 O.2     1  UNL1       -0.2711
     53 N         -10.9308   -8.8088   30.7239 N.am    1  UNL1       -0.2953
     54 H         -10.5110   -9.3579   29.9412 H       1  UNL1        0.1499
     55 C         -10.3465   -7.5036   31.0423 C.3     1  UNL1        0.1485
     56 C         -10.5030   -6.5774   29.8621 C.2     1  UNL1        0.2372
     57 N         -11.3834   -5.4553   29.9327 N.am    1  UNL1       -0.3275
     58 O          -9.8441   -6.7831   28.8071 O.2     1  UNL1       -0.2736
     59 H         -11.9301   -5.2549   30.7993 H       1  UNL1        0.1450
     60 H         -11.4846   -4.8148   29.1144 H       1  UNL1        0.1450
     61 C          -8.8638   -7.6886   31.4126 C.3     1  UNL1        0.0325
     62 C          -8.1297   -6.3507   31.5844 C.3     1  UNL1        0.0450
     63 C          -7.2809   -6.3362   32.8625 C.3     1  UNL1        0.1740
     64 N          -6.3666   -7.4793   32.9084 N.pl3   1  UNL1       -0.2625
     65 H          -6.7073   -8.4314   32.6434 H       1  UNL1        0.2587
     66 C          -4.9782   -7.3254   33.2278 C.cat   1  UNL1        0.3769
     67 N          -4.4954   -7.8478   34.3112 N.pl3   1  UNL1       -0.1298
     68 N          -4.1290   -6.5858   32.3475 N.pl3   1  UNL1       -0.2892
     69 H          -3.4885   -7.7486   34.5676 H       1  UNL1        0.3062
     70 H          -3.1196   -6.4430   32.5692 H       1  UNL1        0.2546
     71 H          -4.5093   -6.1775   31.4654 H       1  UNL1        0.2546
     72 C          -5.8943  -11.4174   30.4720 C.3     1  UNL1        0.0552
     73 C          -5.8476   -9.9083   30.4454 C.2     1  UNL1       -0.0298
     74 C          -5.4459   -9.2000   29.3694 C.2     1  UNL1       -0.0475
     75 C          -5.0067   -9.8801   28.0945 C.3     1  UNL1        0.0260
     76 C          -5.4433   -7.6959   29.4536 C.3     1  UNL1        0.0260
@<TRIPOS>BOND
     1    19    20    1
     2    20     1    1
     3     1     2   ar
     4     2    49    1
     5    49    50    1
     6    50    51    1
     7    51    52    2
     8    51    53   am
     9    53    55    1
    10    55    61    1
    11    61    62    1
    12    62    63    1
    13    63    64    1
    14    64    66    1
    15    66    67    2
    16    66    68    1
    17    55    56    1
    18    56    57   am
    19    56    58    2
    20     2     3   ar
    21     3     4   ar
    22     4     5    1
    23     5     6    1
    24     6     7   ar
    25     7     8   ar
    26     8    21    1
    27    21    22    1
    28    22    23    1
    29    23    24    2
    30    23    25   am
    31    25    27    1
    32    27    33    1
    33    33    34    1
    34    34    35    1
    35    35    36    1
    36    36    38    1
    37    38    39    2
    38    38    40    1
    39    27    28    1
    40    28    29   am
    41    28    30    2
    42     8     9   ar
    43     9    44    1
    44    44    45    1
    45    45    46    2
    46    46    47    1
    47    46    48    1
    48     9    10   ar
    49    10    11    1
    50    10    12   ar
    51    12    13    1
    52    13    14    2
    53    13    15    1
    54    15    16   ar
    55    16    72    1
    56    72    73    1
    57    73    74    2
    58    74    75    1
    59    74    76    1
    60    16     1   ar
    61    15     4   ar
    62    12     6   ar
    63    53    54    1
    64    64    65    1
    65    67    69    1
    66    68    70    1
    67    68    71    1
    68    57    59    1
    69    57    60    1
    70    25    26    1
    71    36    37    1
    72    39    41    1
    73    40    42    1
    74    40    43    1
    75    29    31    1
    76    29    32    1
    77    11    17    1
    78     5    18    1
@<TRIPOS>MOLECULE
*****
 76 78 0 0 0
SMALL
GASTEIGER

@<TRIPOS>ATOM
      1 C          -8.1463  -11.0597   31.2111 C.ar    1  UNL1        0.1694
      2 C          -6.7680  -10.8177   30.9983 C.ar    1  UNL1        0.1811
      3 C          -6.1006  -11.5057   29.9779 C.ar    1  UNL1        0.1358
      4 C          -6.7507  -12.4649   29.2096 C.ar    1  UNL1        0.2879
      5 O          -6.0484  -13.1132   28.2919 O.3     1  UNL1       -0.5462
      6 C          -6.5684  -14.0248   27.4848 C.ar    1  UNL1        0.2910
      7 C          -5.7357  -14.6450   26.5565 C.ar    1  UNL1        0.1326
      8 C          -6.2380  -15.6040   25.6646 C.ar    1  UNL1        0.1469
      9 C          -7.6110  -15.9192   25.6899 C.ar    1  UNL1        0.0504
     10 C          -8.4667  -15.2881   26.6217 C.ar    1  UNL1        0.1441
     11 O          -9.8357  -15.5673   26.5347 O.3     1  UNL1       -0.5053
     12 C          -7.9328  -14.3677   27.5699 C.ar    1  UNL1        0.1601
     13 C          -8.6808  -13.7923   28.6258 C.2     1  UNL1        0.2146
     14 O          -9.8127  -14.2612   28.9108 O.2     1  UNL1       -0.2859
     15 C          -8.1180  -12.7497   29.4131 C.ar    1  UNL1        0.1263
     16 C          -8.8375  -11.9903   30.3913 C.ar    1  UNL1        0.0304
     17 H         -10.5625  -14.9457   26.8596 H       1  UNL1        0.2922
     18 H          -5.1361  -12.9161   28.2098 H       1  UNL1        0.5634
     19 C          -8.7273  -10.5740   33.6349 C.3     1  UNL1        0.2526
     20 O          -8.8834  -10.4170   32.2289 O.3     1  UNL1       -0.4687
     21 O          -5.4059  -16.2556   24.7361 O.3     1  UNL1       -0.4655
     22 C          -4.7883  -15.6484   23.6016 C.3     1  UNL1        0.2893
     23 C          -5.0014  -16.4835   22.3743 C.2     1  UNL1        0.2673
     24 O          -4.2175  -16.3540   21.3951 O.2     1  UNL1       -0.2711
     25 N          -6.0995  -17.4052   22.3084 N.am    1  UNL1       -0.2953
     26 H          -6.7544  -17.4409   23.1221 H       1  UNL1        0.1499
     27 C          -6.2021  -18.4227   21.2536 C.3     1  UNL1        0.1485
     28 C          -7.6320  -18.8538   21.0358 C.2     1  UNL1        0.2372
     29 N          -8.1950  -18.8195   19.7244 N.am    1  UNL1       -0.3275
     30 O          -8.3247  -19.2925   21.9937 O.2     1  UNL1       -0.2736
     31 H          -9.1772  -19.1357   19.5644 H       1  UNL1        0.1450
     32 H          -7.6304  -18.4913   18.9098 H       1  UNL1        0.1450
     33 C          -5.2751  -19.6204   21.5573 C.3     1  UNL1        0.0325
     34 C          -4.5003  -20.1614   20.3358 C.3     1  UNL1        0.0450
     35 C          -3.1323  -19.4879   20.1584 C.3     1  UNL1        0.1740
     36 N          -2.3095  -19.6620   21.3553 N.pl3   1  UNL1       -0.2625
     37 H          -2.4454  -20.5113   21.9493 H       1  UNL1        0.2587
     38 C          -1.2876  -18.7296   21.7385 C.cat   1  UNL1        0.3769
     39 N          -1.6298  -17.5352   22.1039 N.pl3   1  UNL1       -0.1298
     40 N           0.0972  -19.0998   21.7247 N.pl3   1  UNL1       -0.2892
     41 H          -0.9224  -16.8225   22.3910 H       1  UNL1        0.3062
     42 H           0.8317  -18.4129   22.0062 H       1  UNL1        0.2546
     43 H           0.4084  -20.0524   21.4361 H       1  UNL1        0.2546
     44 C          -8.1788  -16.9238   24.7079 C.3     1  UNL1        0.0578
     45 C          -9.1538  -16.2481   23.7737 C.2     1  UNL1       -0.0297
     46 C         -10.3636  -16.7385   23.4235 C.2     1  UNL1       -0.0475
     47 C         -10.8736  -18.0648   23.9331 C.3     1  UNL1        0.0260
     48 C         -11.2254  -15.9219   22.4951 C.3     1  UNL1        0.0260
     49 O          -6.0842   -9.8882   31.8005 O.3     1  UNL1       -0.4623
     50 C          -5.4721   -8.6837   31.3388 C.3     1  UNL1        0.2895
     51 C          -6.5213   -7.7373   30.8380 C.2     1  UNL1        0.2673
     52 O          -6.2216   -6.9085   29.9367 O.2     1  UNL1       -0.2711
     53 N          -7.8628   -7.8070   31.3405 N.am    1  UNL1       -0.2953
     54 H          -8.0417   -8.4104   32.1737 H       1  UNL1        0.1499
     55 C          -9.0120   -7.3779   30.5396 C.3     1  UNL1        0.1485
     56 C          -9.2521   -8.3682   29.4275 C.2     1  UNL1        0.2372
     57 N         -10.5821   -8.7182   29.0428 N.am    1  UNL1       -0.3275
     58 O          -8.2751   -8.8845   28.8205 O.2     1  UNL1       -0.2736
     59 H         -11.4085   -8.2950   29.5202 H       1  UNL1        0.1450
     60 H         -10.7427   -9.4009   28.2693 H       1  UNL1        0.1450
     61 C          -8.7434   -5.9683   29.9820 C.3     1  UNL1        0.0325
     62 C         -10.0334   -5.1586   29.7854 C.3     1  UNL1        0.0450
     63 C         -11.0226   -5.3906   30.9351 C.3     1  UNL1        0.1740
     64 N         -12.1510   -6.2209   30.5083 N.pl3   1  UNL1       -0.2625
     65 H         -12.5417   -6.1154   29.5444 H       1  UNL1        0.2587
     66 C         -12.6949   -7.2475   31.3470 C.cat   1  UNL1        0.3769
     67 N         -12.6270   -8.4903   30.9858 N.pl3   1  UNL1       -0.1298
     68 N         -13.3198   -6.8924   32.5826 N.pl3   1  UNL1       -0.2892
     69 H         -13.0171   -9.2566   31.5775 H       1  UNL1        0.3062
     70 H         -13.7410   -7.6202   33.2000 H       1  UNL1        0.2546
     71 H         -13.3621   -5.8946   32.8859 H       1  UNL1        0.2546
     72 C         -10.3371  -12.1400   30.5987 C.3     1  UNL1        0.0552
     73 C         -10.6309  -12.9628   31.8304 C.2     1  UNL1       -0.0298
     74 C         -11.8626  -13.0705   32.3709 C.2     1  UNL1       -0.0475
     75 C         -13.0537  -12.3621   31.7709 C.3     1  UNL1        0.0260
     76 C         -12.0409  -13.9231   33.6001 C.3     1  UNL1        0.0260
@<TRIPOS>BOND
     1    19    20    1
     2    20     1    1
     3     1     2   ar
     4     2    49    1
     5    49    50    1
     6    50    51    1
     7    51    52    2
     8    51    53   am
     9    53    55    1
    10    55    61    1
    11    61    62    1
    12    62    63    1
    13    63    64    1
    14    64    66    1
    15    66    67    2
    16    66    68    1
    17    55    56    1
    18    56    57   am
    19    56    58    2
    20     2     3   ar
    21     3     4   ar
    22     4     5    1
    23     5     6    1
    24     6     7   ar
    25     7     8   ar
    26     8    21    1
    27    21    22    1
    28    22    23    1
    29    23    24    2
    30    23    25   am
    31    25    27    1
    32    27    33    1
    33    33    34    1
    34    34    35    1
    35    35    36    1
    36    36    38    1
    37    38    39    2
    38    38    40    1
    39    27    28    1
    40    28    29   am
    41    28    30    2
    42     8     9   ar
    43     9    44    1
    44    44    45    1
    45    45    46    2
    46    46    47    1
    47    46    48    1
    48     9    10   ar
    49    10    11    1
    50    10    12   ar
    51    12    13    1
    52    13    14    2
    53    13    15    1
    54    15    16   ar
    55    16    72    1
    56    72    73    1
    57    73    74    2
    58    74    75    1
    59    74    76    1
    60    16     1   ar
    61    15     4   ar
    62    12     6   ar
    63    53    54    1
    64    64    65    1
    65    67    69    1
    66    68    70    1
    67    68    71    1
    68    57    59    1
    69    57    60    1
    70    25    26    1
    71    36    37    1
    72    39    41    1
    73    40    42    1
    74    40    43    1
    75    29    31    1
    76    29    32    1
    77    11    17    1
    78     5    18    1
@<TRIPOS>MOLECULE
*****
 76 78 0 0 0
SMALL
GASTEIGER

@<TRIPOS>ATOM
      1 C          -8.5198  -11.4609   31.1631 C.ar    1  UNL1        0.1694
      2 C          -9.8149  -12.0245   31.0690 C.ar    1  UNL1        0.1811
      3 C         -10.0662  -13.0085   30.1053 C.ar    1  UNL1        0.1358
      4 C          -9.0854  -13.3993   29.2006 C.ar    1  UNL1        0.2879
      5 O          -9.4034  -14.3015   28.2837 O.3     1  UNL1       -0.5462
      6 C          -8.5442  -14.7684   27.3912 C.ar    1  UNL1        0.2910
      7 C          -8.9881  -15.7158   26.4718 C.ar    1  UNL1        0.1326
      8 C          -8.1156  -16.2579   25.5166 C.ar    1  UNL1        0.1469
      9 C          -6.7643  -15.8594   25.5100 C.ar    1  UNL1        0.0504
     10 C          -6.3013  -14.9057   26.4453 C.ar    1  UNL1        0.1441
     11 O          -4.9304  -14.6225   26.4554 O.3     1  UNL1       -0.5053
     12 C          -7.2120  -14.3093   27.3652 C.ar    1  UNL1        0.1601
     13 C          -6.8744  -13.2504   28.2429 C.2     1  UNL1        0.2146
     14 O          -5.7941  -12.6279   28.0765 O.2     1  UNL1       -0.2859
     15 C          -7.7912  -12.8386   29.2496 C.ar    1  UNL1        0.1263
     16 C          -7.4915  -11.8974   30.2868 C.ar    1  UNL1        0.0304
     17 H          -4.4296  -14.2743   27.2604 H       1  UNL1        0.2922
     18 H         -10.2822  -14.6260   28.2661 H       1  UNL1        0.5634
     19 C          -8.2272  -10.5544   33.5169 C.3     1  UNL1        0.2526
     20 O          -8.1940  -10.4545   32.0975 O.3     1  UNL1       -0.4687
     21 O          -8.5535  -17.1990   24.5671 O.3     1  UNL1       -0.4655
     22 C          -9.2532  -18.4092   24.8552 C.3     1  UNL1        0.2893
     23 C         -10.5533  -18.4581   24.1094 C.2     1  UNL1        0.2673
     24 O         -10.9661  -19.5611   23.6589 O.2     1  UNL1       -0.2711
     25 N         -11.3086  -17.2570   23.8932 N.am    1  UNL1       -0.2953
     26 H         -10.9023  -16.3580   24.2381 H       1  UNL1        0.1499
     27 C         -12.6947  -17.2837   23.4069 C.3     1  UNL1        0.1485
     28 C         -13.5800  -18.1179   24.3004 C.2     1  UNL1        0.2372
     29 N         -13.0620  -18.6528   25.5184 N.am    1  UNL1       -0.3275
     30 O         -14.7916  -18.3090   24.0083 O.2     1  UNL1       -0.2736
     31 H         -13.6754  -19.2136   26.1504 H       1  UNL1        0.1450
     32 H         -12.0709  -18.4804   25.7979 H       1  UNL1        0.1450
     33 C         -12.7490  -17.7521   21.9359 C.3     1  UNL1        0.0325
     34 C         -12.4829  -16.6417   20.8961 C.3     1  UNL1        0.0450
     35 C         -11.2208  -16.9034   20.0623 C.3     1  UNL1        0.1740
     36 N         -10.1769  -15.9299   20.3822 N.pl3   1  UNL1       -0.2625
     37 H         -10.1564  -15.0171   19.8732 H       1  UNL1        0.2587
     38 C          -9.1889  -16.1555   21.3988 C.cat   1  UNL1        0.3769
     39 N          -8.5101  -17.2584   21.3836 N.pl3   1  UNL1       -0.1298
     40 N          -8.9426  -15.1829   22.4226 N.pl3   1  UNL1       -0.2892
     41 H          -7.7813  -17.4671   22.1019 H       1  UNL1        0.3062
     42 H          -8.2207  -15.3579   23.1566 H       1  UNL1        0.2546
     43 H          -9.4703  -14.2844   22.4652 H       1  UNL1        0.2546
     44 C          -5.7982  -16.4634   24.5110 C.3     1  UNL1        0.0578
     45 C          -5.7713  -15.6396   23.2459 C.2     1  UNL1       -0.0297
     46 C          -5.3029  -16.0633   22.0509 C.2     1  UNL1       -0.0475
     47 C          -4.7227  -17.4432   21.8563 C.3     1  UNL1        0.0260
     48 C          -5.3717  -15.1177   20.8793 C.3     1  UNL1        0.0260
     49 O         -10.8314  -11.6029   31.9431 O.3     1  UNL1       -0.4623
     50 C         -12.0203  -10.9101   31.5621 C.3     1  UNL1        0.2895
     51 C         -11.8312   -9.4340   31.7428 C.2     1  UNL1        0.2673
     52 O         -12.4001   -8.8551   32.7074 O.2     1  UNL1       -0.2711
     53 N         -10.9731   -8.6976   30.8606 N.am    1  UNL1       -0.2953
     54 H         -10.6267   -9.1791   30.0013 H       1  UNL1        0.1499
     55 C         -10.2909   -7.4737   31.2884 C.3     1  UNL1        0.1485
     56 C         -10.9527   -6.2766   30.6527 C.2     1  UNL1        0.2372
     57 N         -11.4073   -5.1873   31.4564 N.am    1  UNL1       -0.3275
     58 O         -11.0966   -6.2259   29.4012 O.2     1  UNL1       -0.2736
     59 H         -11.2880   -5.1984   32.4936 H       1  UNL1        0.1450
     60 H         -11.8607   -4.3591   31.0108 H       1  UNL1        0.1450
     61 C          -8.8038   -7.5599   30.8998 C.3     1  UNL1        0.0325
     62 C          -8.0309   -6.2788   31.2456 C.3     1  UNL1        0.0450
     63 C          -7.4370   -6.3456   32.6588 C.3     1  UNL1        0.1740
     64 N          -6.5258   -7.4832   32.8010 N.pl3   1  UNL1       -0.2625
     65 H          -6.8876   -8.4583   32.6956 H       1  UNL1        0.2587
     66 C          -5.1179   -7.3048   32.9997 C.cat   1  UNL1        0.3769
     67 N          -4.4213   -6.6128   32.1538 N.pl3   1  UNL1       -0.1298
     68 N          -4.4840   -7.9008   34.1338 N.pl3   1  UNL1       -0.2892
     69 H          -3.3946   -6.4696   32.2747 H       1  UNL1        0.3062
     70 H          -3.4570   -7.8020   34.2884 H       1  UNL1        0.2546
     71 H          -5.0434   -8.4449   34.8269 H       1  UNL1        0.2546
     72 C          -6.0953  -11.3302   30.4949 C.3     1  UNL1        0.0552
     73 C          -6.0732   -9.8434   30.2317 C.2     1  UNL1       -0.0298
     74 C          -5.1608   -9.2470   29.4364 C.2     1  UNL1       -0.0475
     75 C          -4.0786  -10.0396   28.7426 C.3     1  UNL1        0.0260
     76 C          -5.2364   -7.7550   29.2417 C.3     1  UNL1        0.0260
@<TRIPOS>BOND
     1    19    20    1
     2    20     1    1
     3     1     2   ar
     4     2    49    1
     5    49    50    1
     6    50    51    1
     7    51    52    2
     8    51    53   am
     9    53    55    1
    10    55    61    1
    11    61    62    1
    12    62    63    1
    13    63    64    1
    14    64    66    1
    15    66    67    2
    16    66    68    1
    17    55    56    1
    18    56    57   am
    19    56    58    2
    20     2     3   ar
    21     3     4   ar
    22     4     5    1
    23     5     6    1
    24     6     7   ar
    25     7     8   ar
    26     8    21    1
    27    21    22    1
    28    22    23    1
    29    23    24    2
    30    23    25   am
    31    25    27    1
    32    27    33    1
    33    33    34    1
    34    34    35    1
    35    35    36    1
    36    36    38    1
    37    38    39    2
    38    38    40    1
    39    27    28    1
    40    28    29   am
    41    28    30    2
    42     8     9   ar
    43     9    44    1
    44    44    45    1
    45    45    46    2
    46    46    47    1
    47    46    48    1
    48     9    10   ar
    49    10    11    1
    50    10    12   ar
    51    12    13    1
    52    13    14    2
    53    13    15    1
    54    15    16   ar
    55    16    72    1
    56    72    73    1
    57    73    74    2
    58    74    75    1
    59    74    76    1
    60    16     1   ar
    61    15     4   ar
    62    12     6   ar
    63    53    54    1
    64    64    65    1
    65    67    69    1
    66    68    70    1
    67    68    71    1
    68    57    59    1
    69    57    60    1
    70    25    26    1
    71    36    37    1
    72    39    41    1
    73    40    42    1
    74    40    43    1
    75    29    31    1
    76    29    32    1
    77    11    17    1
    78     5    18    1
@<TRIPOS>MOLECULE
*****
 76 78 0 0 0
SMALL
GASTEIGER

@<TRIPOS>ATOM
      1 C          -8.6508  -11.4600   31.3810 C.ar    1  UNL1        0.1694
      2 C          -9.8962  -12.1223   31.2623 C.ar    1  UNL1        0.1811
      3 C         -10.0651  -13.0918   30.2665 C.ar    1  UNL1        0.1358
      4 C          -9.0537  -13.3736   29.3550 C.ar    1  UNL1        0.2879
      5 O          -9.2958  -14.2684   28.4082 O.3     1  UNL1       -0.5462
      6 C          -8.3996  -14.6361   27.5058 C.ar    1  UNL1        0.2910
      7 C          -8.7635  -15.5860   26.5545 C.ar    1  UNL1        0.1326
      8 C          -7.8478  -16.0255   25.5872 C.ar    1  UNL1        0.1469
      9 C          -6.5328  -15.5200   25.6003 C.ar    1  UNL1        0.0504
     10 C          -6.1504  -14.5628   26.5678 C.ar    1  UNL1        0.1441
     11 O          -4.8066  -14.1710   26.5940 O.3     1  UNL1       -0.5053
     12 C          -7.1084  -14.0711   27.5014 C.ar    1  UNL1        0.1601
     13 C          -6.8593  -13.0172   28.4141 C.2     1  UNL1        0.2146
     14 O          -5.8320  -12.3051   28.2732 O.2     1  UNL1       -0.2859
     15 C          -7.8088  -12.7128   29.4286 C.ar    1  UNL1        0.1263
     16 C          -7.5884  -11.7844   30.4966 C.ar    1  UNL1        0.0304
     17 H          -4.3376  -13.8098   27.4123 H       1  UNL1        0.2922
     18 H         -10.1457  -14.6616   28.3757 H       1  UNL1        0.5634
     19 C          -8.4328  -10.6102   33.7639 C.3     1  UNL1        0.2526
     20 O          -8.4093  -10.4612   32.3486 O.3     1  UNL1       -0.4687
     21 O          -8.2062  -16.9678   24.6060 O.3     1  UNL1       -0.4655
     22 C          -9.5376  -17.2760   24.1941 C.3     1  UNL1        0.2893
     23 C          -9.8303  -16.6680   22.8549 C.2     1  UNL1        0.2673
     24 O          -9.1047  -15.7277   22.4313 O.2     1  UNL1       -0.2711
     25 N         -10.9383  -17.1386   22.0736 N.am    1  UNL1       -0.2953
     26 H         -11.5441  -17.8831   22.4872 H       1  UNL1        0.1499
     27 C         -11.1120  -16.7672   20.6628 C.3     1  UNL1        0.1485
     28 C         -12.5658  -16.5466   20.3222 C.2     1  UNL1        0.2372
     29 N         -12.9282  -15.5792   19.3369 N.am    1  UNL1       -0.3275
     30 O         -13.4664  -17.2435   20.8637 O.2     1  UNL1       -0.2736
     31 H         -13.9308  -15.4366   19.0826 H       1  UNL1        0.1450
     32 H         -12.1978  -15.0132   18.8510 H       1  UNL1        0.1450
     33 C         -10.4516  -17.8126   19.7369 C.3     1  UNL1        0.0325
     34 C         -10.5173  -19.2656   20.2559 C.3     1  UNL1        0.0450
     35 C          -9.1400  -19.8126   20.6565 C.3     1  UNL1        0.1740
     36 N          -8.2081  -18.7194   20.9324 N.pl3   1  UNL1       -0.2625
     37 H          -8.5791  -17.8101   21.2905 H       1  UNL1        0.2587
     38 C          -6.7880  -18.8481   20.7671 C.cat   1  UNL1        0.3769
     39 N          -6.0951  -19.4224   21.6984 N.pl3   1  UNL1       -0.1298
     40 N          -6.1303  -18.3553   19.5926 N.pl3   1  UNL1       -0.2892
     41 H          -5.0599  -19.5388   21.6231 H       1  UNL1        0.3062
     42 H          -5.0966  -18.4553   19.4833 H       1  UNL1        0.2546
     43 H          -6.6568  -17.8878   18.8233 H       1  UNL1        0.2546
     44 C          -5.5187  -16.0122   24.5876 C.3     1  UNL1        0.0578
     45 C          -5.8163  -15.4326   23.2256 C.2     1  UNL1       -0.0297
     46 C          -5.0668  -15.6245   22.1173 C.2     1  UNL1       -0.0475
     47 C          -3.8035  -16.4508   22.1321 C.3     1  UNL1        0.0260
     48 C          -5.5206  -14.9901   20.8277 C.3     1  UNL1        0.0260
     49 O         -10.9456  -11.8118   32.1440 O.3     1  UNL1       -0.4623
     50 C         -12.2064  -11.2547   31.7715 C.3     1  UNL1        0.2895
     51 C         -12.1168   -9.7584   31.7497 C.2     1  UNL1        0.2673
     52 O         -12.5139   -9.1043   32.7516 O.2     1  UNL1       -0.2711
     53 N         -11.5397   -9.0809   30.6252 N.am    1  UNL1       -0.2953
     54 H         -11.3451   -9.6401   29.7651 H       1  UNL1        0.1499
     55 C         -10.8947   -7.7722   30.7582 C.3     1  UNL1        0.1485
     56 C         -11.9152   -6.6812   30.5494 C.2     1  UNL1        0.2372
     57 N         -13.2721   -6.8708   30.9519 N.am    1  UNL1       -0.3275
     58 O         -11.5704   -5.5864   30.0277 O.2     1  UNL1       -0.2736
     59 H         -13.5805   -7.7627   31.3984 H       1  UNL1        0.1450
     60 H         -13.9734   -6.1106   30.8091 H       1  UNL1        0.1450
     61 C          -9.7484   -7.6658   29.7361 C.3     1  UNL1        0.0325
     62 C          -8.5964   -6.7814   30.2352 C.3     1  UNL1        0.0450
     63 C          -8.6924   -6.5344   31.7465 C.3     1  UNL1        0.1740
     64 N          -7.9437   -7.5425   32.5001 N.pl3   1  UNL1       -0.2625
     65 H          -8.3722   -8.4768   32.6907 H       1  UNL1        0.2587
     66 C          -6.5916   -7.3230   32.9211 C.cat   1  UNL1        0.3769
     67 N          -5.9337   -8.2641   33.5220 N.pl3   1  UNL1       -0.1298
     68 N          -5.9741   -6.0566   32.6804 N.pl3   1  UNL1       -0.2892
     69 H          -4.9489   -8.1290   33.8402 H       1  UNL1        0.3062
     70 H          -4.9980   -5.8665   32.9959 H       1  UNL1        0.2546
     71 H          -6.4940   -5.3013   32.1819 H       1  UNL1        0.2546
     72 C          -6.2429  -11.1140   30.7300 C.3     1  UNL1        0.0552
     73 C          -6.2798   -9.6673   30.2987 C.2     1  UNL1       -0.0298
     74 C          -5.2979   -9.0851   29.5792 C.2     1  UNL1       -0.0475
     75 C          -4.0716   -9.8540   29.1484 C.3     1  UNL1        0.0260
     76 C          -5.4421   -7.6341   29.2005 C.3     1  UNL1        0.0260
@<TRIPOS>BOND
     1    19    20    1
     2    20     1    1
     3     1     2   ar
     4     2    49    1
     5    49    50    1
     6    50    51    1
     7    51    52    2
     8    51    53   am
     9    53    55    1
    10    55    61    1
    11    61    62    1
    12    62    63    1
    13    63    64    1
    14    64    66    1
    15    66    67    2
    16    66    68    1
    17    55    56    1
    18    56    57   am
    19    56    58    2
    20     2     3   ar
    21     3     4   ar
    22     4     5    1
    23     5     6    1
    24     6     7   ar
    25     7     8   ar
    26     8    21    1
    27    21    22    1
    28    22    23    1
    29    23    24    2
    30    23    25   am
    31    25    27    1
    32    27    33    1
    33    33    34    1
    34    34    35    1
    35    35    36    1
    36    36    38    1
    37    38    39    2
    38    38    40    1
    39    27    28    1
    40    28    29   am
    41    28    30    2
    42     8     9   ar
    43     9    44    1
    44    44    45    1
    45    45    46    2
    46    46    47    1
    47    46    48    1
    48     9    10   ar
    49    10    11    1
    50    10    12   ar
    51    12    13    1
    52    13    14    2
    53    13    15    1
    54    15    16   ar
    55    16    72    1
    56    72    73    1
    57    73    74    2
    58    74    75    1
    59    74    76    1
    60    16     1   ar
    61    15     4   ar
    62    12     6   ar
    63    53    54    1
    64    64    65    1
    65    67    69    1
    66    68    70    1
    67    68    71    1
    68    57    59    1
    69    57    60    1
    70    25    26    1
    71    36    37    1
    72    39    41    1
    73    40    42    1
    74    40    43    1
    75    29    31    1
    76    29    32    1
    77    11    17    1
    78     5    18    1
@<TRIPOS>MOLECULE
*****
 76 78 0 0 0
SMALL
GASTEIGER

@<TRIPOS>ATOM
      1 C          -8.5862  -11.3557   31.3090 C.ar    1  UNL1        0.1694
      2 C          -9.8837  -11.9071   31.1831 C.ar    1  UNL1        0.1811
      3 C         -10.1253  -12.8742   30.2000 C.ar    1  UNL1        0.1358
      4 C          -9.1315  -13.2593   29.3072 C.ar    1  UNL1        0.2879
      5 O          -9.4400  -14.1447   28.3710 O.3     1  UNL1       -0.5462
      6 C          -8.5686  -14.6050   27.4869 C.ar    1  UNL1        0.2910
      7 C          -9.0033  -15.5346   26.5453 C.ar    1  UNL1        0.1326
      8 C          -8.1180  -16.0693   25.5977 C.ar    1  UNL1        0.1469
      9 C          -6.7636  -15.6818   25.6214 C.ar    1  UNL1        0.0504
     10 C          -6.3101  -14.7463   26.5795 C.ar    1  UNL1        0.1441
     11 O          -4.9374  -14.4745   26.6185 O.3     1  UNL1       -0.5053
     12 C          -7.2325  -14.1565   27.4919 C.ar    1  UNL1        0.1601
     13 C          -6.9024  -13.1139   28.3917 C.2     1  UNL1        0.2146
     14 O          -5.8144  -12.4978   28.2543 O.2     1  UNL1       -0.2859
     15 C          -7.8340  -12.7100   29.3881 C.ar    1  UNL1        0.1263
     16 C          -7.5456  -11.7872   30.4447 C.ar    1  UNL1        0.0304
     17 H          -4.4485  -14.1427   27.4376 H       1  UNL1        0.2922
     18 H         -10.3210  -14.4617   28.3326 H       1  UNL1        0.5634
     19 C          -8.2379  -10.5150   33.6797 C.3     1  UNL1        0.2526
     20 O          -8.2693  -10.3663   32.2645 O.3     1  UNL1       -0.4687
     21 O          -8.5461  -16.9922   24.6261 O.3     1  UNL1       -0.4655
     22 C          -9.3490  -18.1466   24.8705 C.3     1  UNL1        0.2893
     23 C          -9.9098  -18.6814   23.5866 C.2     1  UNL1        0.2673
     24 O         -10.5644  -19.7591   23.5997 O.2     1  UNL1       -0.2711
     25 N          -9.6848  -17.9835   22.3529 N.am    1  UNL1       -0.2953
     26 H          -9.0921  -17.1232   22.3816 H       1  UNL1        0.1499
     27 C         -10.4196  -18.3136   21.1243 C.3     1  UNL1        0.1485
     28 C          -9.5383  -19.0215   20.1241 C.2     1  UNL1        0.2372
     29 N          -8.1477  -18.7067   20.0509 N.am    1  UNL1       -0.3275
     30 O         -10.0061  -19.9269   19.3818 O.2     1  UNL1       -0.2736
     31 H          -7.5292  -19.2075   19.3751 H       1  UNL1        0.1450
     32 H          -7.7307  -17.9838   20.6782 H       1  UNL1        0.1450
     33 C         -11.0786  -17.0514   20.5255 C.3     1  UNL1        0.0325
     34 C         -12.4199  -16.6532   21.1793 C.3     1  UNL1        0.0450
     35 C         -13.0119  -17.7753   22.0435 C.3     1  UNL1        0.1740
     36 N         -13.4211  -17.2621   23.3507 N.pl3   1  UNL1       -0.2625
     37 H         -13.4729  -16.2288   23.5004 H       1  UNL1        0.2587
     38 C         -13.7939  -18.1190   24.4403 C.cat   1  UNL1        0.3769
     39 N         -15.0501  -18.2966   24.7005 N.pl3   1  UNL1       -0.1298
     40 N         -12.8023  -18.7784   25.2381 N.pl3   1  UNL1       -0.2892
     41 H         -15.3698  -18.9103   25.4827 H       1  UNL1        0.3062
     42 H         -13.0857  -19.4001   26.0279 H       1  UNL1        0.2546
     43 H         -11.7823  -18.6581   25.0570 H       1  UNL1        0.2546
     44 C          -5.7845  -16.2784   24.6308 C.3     1  UNL1        0.0578
     45 C          -6.0067  -15.6911   23.2577 C.2     1  UNL1       -0.0297
     46 C          -5.1214  -15.7398   22.2376 C.2     1  UNL1       -0.0475
     47 C          -3.7672  -16.3924   22.3765 C.3     1  UNL1        0.0260
     48 C          -5.5129  -15.1216   20.9200 C.3     1  UNL1        0.0260
     49 O         -10.9125  -11.4905   32.0451 O.3     1  UNL1       -0.4623
     50 C         -11.8007  -10.3973   31.8114 C.3     1  UNL1        0.2895
     51 C         -11.0850   -9.3072   31.0721 C.2     1  UNL1        0.2673
     52 O         -11.2525   -9.1961   29.8275 O.2     1  UNL1       -0.2711
     53 N         -10.2600   -8.3702   31.7780 N.am    1  UNL1       -0.2953
     54 H         -10.0397   -8.5704   32.7788 H       1  UNL1        0.1499
     55 C         -10.0318   -7.0117   31.2794 C.3     1  UNL1        0.1485
     56 C         -11.3543   -6.3615   30.9578 C.2     1  UNL1        0.2372
     57 N         -11.4625   -5.4335   29.8779 N.am    1  UNL1       -0.3275
     58 O         -12.3784   -6.6455   31.6361 O.2     1  UNL1       -0.2736
     59 H         -10.6327   -5.1913   29.2923 H       1  UNL1        0.1450
     60 H         -12.3813   -4.9896   29.6568 H       1  UNL1        0.1450
     61 C          -9.1246   -7.0732   30.0372 C.3     1  UNL1        0.0325
     62 C          -8.0270   -5.9993   30.0573 C.3     1  UNL1        0.0450
     63 C          -7.5280   -5.7333   31.4837 C.3     1  UNL1        0.1740
     64 N          -6.2825   -6.4540   31.7559 N.pl3   1  UNL1       -0.2625
     65 H          -5.4484   -6.3050   31.1436 H       1  UNL1        0.2587
     66 C          -6.1358   -7.3066   32.8983 C.cat   1  UNL1        0.3769
     67 N          -5.0096   -7.9065   33.1253 N.pl3   1  UNL1       -0.1298
     68 N          -7.2418   -7.4976   33.7833 N.pl3   1  UNL1       -0.2892
     69 H          -4.8775   -8.5339   33.9488 H       1  UNL1        0.3062
     70 H          -7.1653   -8.1296   34.6098 H       1  UNL1        0.2546
     71 H          -8.1456   -7.0037   33.6142 H       1  UNL1        0.2546
     72 C          -6.1490  -11.2347   30.6866 C.3     1  UNL1        0.0552
     73 C          -6.0574   -9.7920   30.2501 C.2     1  UNL1       -0.0298
     74 C          -5.0660   -9.3181   29.4670 C.2     1  UNL1       -0.0475
     75 C          -3.9589  -10.2141   28.9646 C.3     1  UNL1        0.0260
     76 C          -5.0770   -7.8597   29.0896 C.3     1  UNL1        0.0260
@<TRIPOS>BOND
     1    19    20    1
     2    20     1    1
     3     1     2   ar
     4     2    49    1
     5    49    50    1
     6    50    51    1
     7    51    52    2
     8    51    53   am
     9    53    55    1
    10    55    61    1
    11    61    62    1
    12    62    63    1
    13    63    64    1
    14    64    66    1
    15    66    67    2
    16    66    68    1
    17    55    56    1
    18    56    57   am
    19    56    58    2
    20     2     3   ar
    21     3     4   ar
    22     4     5    1
    23     5     6    1
    24     6     7   ar
    25     7     8   ar
    26     8    21    1
    27    21    22    1
    28    22    23    1
    29    23    24    2
    30    23    25   am
    31    25    27    1
    32    27    33    1
    33    33    34    1
    34    34    35    1
    35    35    36    1
    36    36    38    1
    37    38    39    2
    38    38    40    1
    39    27    28    1
    40    28    29   am
    41    28    30    2
    42     8     9   ar
    43     9    44    1
    44    44    45    1
    45    45    46    2
    46    46    47    1
    47    46    48    1
    48     9    10   ar
    49    10    11    1
    50    10    12   ar
    51    12    13    1
    52    13    14    2
    53    13    15    1
    54    15    16   ar
    55    16    72    1
    56    72    73    1
    57    73    74    2
    58    74    75    1
    59    74    76    1
    60    16     1   ar
    61    15     4   ar
    62    12     6   ar
    63    53    54    1
    64    64    65    1
    65    67    69    1
    66    68    70    1
    67    68    71    1
    68    57    59    1
    69    57    60    1
    70    25    26    1
    71    36    37    1
    72    39    41    1
    73    40    42    1
    74    40    43    1
    75    29    31    1
    76    29    32    1
    77    11    17    1
    78     5    18    1
@<TRIPOS>MOLECULE
*****
 76 78 0 0 0
SMALL
GASTEIGER

@<TRIPOS>ATOM
      1 C          -8.8424  -11.3295   31.2376 C.ar    1  UNL1        0.1694
      2 C         -10.0053  -12.1362   31.2151 C.ar    1  UNL1        0.1811
      3 C         -10.0953  -13.1839   30.2908 C.ar    1  UNL1        0.1358
      4 C          -9.0912  -13.4094   29.3559 C.ar    1  UNL1        0.2879
      5 O          -9.2608  -14.3881   28.4789 O.3     1  UNL1       -0.5462
      6 C          -8.3606  -14.7112   27.5634 C.ar    1  UNL1        0.2910
      7 C          -8.6448  -15.7587   26.6907 C.ar    1  UNL1        0.1326
      8 C          -7.7192  -16.1552   25.7142 C.ar    1  UNL1        0.1469
      9 C          -6.4727  -15.5030   25.6382 C.ar    1  UNL1        0.0504
     10 C          -6.1704  -14.4450   26.5259 C.ar    1  UNL1        0.1441
     11 O          -4.8816  -13.9014   26.4690 O.3     1  UNL1       -0.5053
     12 C          -7.1453  -14.0039   27.4673 C.ar    1  UNL1        0.1601
     13 C          -6.9886  -12.8691   28.2999 C.2     1  UNL1        0.2146
     14 O          -6.0573  -12.0555   28.0699 O.2     1  UNL1       -0.2859
     15 C          -7.9303  -12.6071   29.3335 C.ar    1  UNL1        0.1263
     16 C          -7.7818  -11.5894   30.3302 C.ar    1  UNL1        0.0304
     17 H          -4.4290  -13.4343   27.2417 H       1  UNL1        0.2922
     18 H         -10.0595  -14.8771   28.5082 H       1  UNL1        0.5634
     19 C          -8.4451  -10.3126   33.5302 C.3     1  UNL1        0.2526
     20 O          -8.6849  -10.2464   32.1288 O.3     1  UNL1       -0.4687
     21 O          -8.0000  -17.1965   24.8109 O.3     1  UNL1       -0.4655
     22 C          -9.0881  -17.2275   23.8877 C.3     1  UNL1        0.2893
     23 C          -8.5904  -17.4612   22.4925 C.2     1  UNL1        0.2673
     24 O          -9.0047  -16.7240   21.5571 O.2     1  UNL1       -0.2711
     25 N          -7.6678  -18.5270   22.2227 N.am    1  UNL1       -0.2953
     26 H          -7.3927  -19.1456   23.0188 H       1  UNL1        0.1499
     27 C          -6.9545  -18.6365   20.9430 C.3     1  UNL1        0.1485
     28 C          -7.6823  -19.5403   19.9779 C.2     1  UNL1        0.2372
     29 N          -7.1676  -20.8411   19.6933 N.am    1  UNL1       -0.3275
     30 O          -8.7708  -19.1790   19.4541 O.2     1  UNL1       -0.2736
     31 H          -7.6776  -21.4785   19.0421 H       1  UNL1        0.1450
     32 H          -6.2853  -21.1753   20.1403 H       1  UNL1        0.1450
     33 C          -5.4935  -19.0847   21.1681 C.3     1  UNL1        0.0325
     34 C          -4.5185  -18.6955   20.0354 C.3     1  UNL1        0.0450
     35 C          -3.1925  -19.4655   20.1068 C.3     1  UNL1        0.1740
     36 N          -2.1372  -18.7483   19.3915 N.pl3   1  UNL1       -0.2625
     37 H          -2.1473  -18.7341   18.3463 H       1  UNL1        0.2587
     38 C          -1.0960  -18.0242   20.0639 C.cat   1  UNL1        0.3769
     39 N          -0.6702  -16.9131   19.5526 N.pl3   1  UNL1       -0.1298
     40 N          -0.5258  -18.5091   21.2864 N.pl3   1  UNL1       -0.2892
     41 H           0.0852  -16.3517   20.0052 H       1  UNL1        0.3062
     42 H           0.2308  -17.9732   21.7669 H       1  UNL1        0.2546
     43 H          -0.8443  -19.3995   21.7260 H       1  UNL1        0.2546
     44 C          -5.4450  -15.9435   24.6156 C.3     1  UNL1        0.0578
     45 C          -5.8267  -15.4449   23.2425 C.2     1  UNL1       -0.0297
     46 C          -5.0075  -15.4207   22.1677 C.2     1  UNL1       -0.0475
     47 C          -3.5738  -15.8884   22.2366 C.3     1  UNL1        0.0260
     48 C          -5.5572  -14.9110   20.8602 C.3     1  UNL1        0.0260
     49 O         -11.0516  -11.8887   32.1201 O.3     1  UNL1       -0.4623
     50 C         -12.2922  -11.2569   31.8033 C.3     1  UNL1        0.2895
     51 C         -12.1110   -9.7695   31.7592 C.2     1  UNL1        0.2673
     52 O         -12.3030   -9.0957   32.8073 O.2     1  UNL1       -0.2711
     53 N         -11.6751   -9.1255   30.5542 N.am    1  UNL1       -0.2953
     54 H         -11.6542   -9.6923   29.6774 H       1  UNL1        0.1499
     55 C         -10.9343   -7.8619   30.5769 C.3     1  UNL1        0.1485
     56 C         -11.9025   -6.7063   30.5278 C.2     1  UNL1        0.2372
     57 N         -13.1156   -6.7442   31.2802 N.am    1  UNL1       -0.3275
     58 O         -11.6380   -5.6909   29.8288 O.2     1  UNL1       -0.2736
     59 H         -13.3520   -7.5673   31.8774 H       1  UNL1        0.1450
     60 H         -13.7803   -5.9397   31.2461 H       1  UNL1        0.1450
     61 C          -9.9603   -7.8236   29.3853 C.3     1  UNL1        0.0325
     62 C          -8.4975   -7.6703   29.8267 C.3     1  UNL1        0.0450
     63 C          -8.1447   -6.2024   30.1007 C.3     1  UNL1        0.1740
     64 N          -8.1400   -5.9142   31.5365 N.pl3   1  UNL1       -0.2625
     65 H          -8.9384   -5.3949   31.9675 H       1  UNL1        0.2587
     66 C          -7.1053   -6.3977   32.4020 C.cat   1  UNL1        0.3769
     67 N          -7.3983   -6.8526   33.5797 N.pl3   1  UNL1       -0.1298
     68 N          -5.7458   -6.3692   31.9615 N.pl3   1  UNL1       -0.2892
     69 H          -6.6634   -7.2086   34.2297 H       1  UNL1        0.3062
     70 H          -4.9734   -6.6966   32.5816 H       1  UNL1        0.2546
     71 H          -5.5064   -6.0194   31.0077 H       1  UNL1        0.2546
     72 C          -6.5163  -10.7555   30.4621 C.3     1  UNL1        0.0552
     73 C          -5.4368  -11.5253   31.1848 C.2     1  UNL1       -0.0298
     74 C          -4.5957  -10.9596   32.0755 C.2     1  UNL1       -0.0475
     75 C          -4.6769   -9.4907   32.4166 C.3     1  UNL1        0.0260
     76 C          -3.5577  -11.8255   32.7407 C.3     1  UNL1        0.0260
@<TRIPOS>BOND
     1    19    20    1
     2    20     1    1
     3     1     2   ar
     4     2    49    1
     5    49    50    1
     6    50    51    1
     7    51    52    2
     8    51    53   am
     9    53    55    1
    10    55    61    1
    11    61    62    1
    12    62    63    1
    13    63    64    1
    14    64    66    1
    15    66    67    2
    16    66    68    1
    17    55    56    1
    18    56    57   am
    19    56    58    2
    20     2     3   ar
    21     3     4   ar
    22     4     5    1
    23     5     6    1
    24     6     7   ar
    25     7     8   ar
    26     8    21    1
    27    21    22    1
    28    22    23    1
    29    23    24    2
    30    23    25   am
    31    25    27    1
    32    27    33    1
    33    33    34    1
    34    34    35    1
    35    35    36    1
    36    36    38    1
    37    38    39    2
    38    38    40    1
    39    27    28    1
    40    28    29   am
    41    28    30    2
    42     8     9   ar
    43     9    44    1
    44    44    45    1
    45    45    46    2
    46    46    47    1
    47    46    48    1
    48     9    10   ar
    49    10    11    1
    50    10    12   ar
    51    12    13    1
    52    13    14    2
    53    13    15    1
    54    15    16   ar
    55    16    72    1
    56    72    73    1
    57    73    74    2
    58    74    75    1
    59    74    76    1
    60    16     1   ar
    61    15     4   ar
    62    12     6   ar
    63    53    54    1
    64    64    65    1
    65    67    69    1
    66    68    70    1
    67    68    71    1
    68    57    59    1
    69    57    60    1
    70    25    26    1
    71    36    37    1
    72    39    41    1
    73    40    42    1
    74    40    43    1
    75    29    31    1
    76    29    32    1
    77    11    17    1
    78     5    18    1
@<TRIPOS>MOLECULE
*****
 76 78 0 0 0
SMALL
GASTEIGER

@<TRIPOS>ATOM
      1 C          -5.9712  -17.4744   21.3958 C.ar    1  UNL1        0.1694
      2 C          -7.3430  -17.8139   21.4767 C.ar    1  UNL1        0.1811
      3 C          -8.0977  -17.3635   22.5665 C.ar    1  UNL1        0.1358
      4 C          -7.5124  -16.6404   23.5998 C.ar    1  UNL1        0.2879
      5 O          -8.2735  -16.2853   24.6247 O.3     1  UNL1       -0.5462
      6 C          -7.8315  -15.5722   25.6488 C.ar    1  UNL1        0.2910
      7 C          -8.7205  -15.2563   26.6733 C.ar    1  UNL1        0.1326
      8 C          -8.3105  -14.4875   27.7726 C.ar    1  UNL1        0.1469
      9 C          -6.9883  -14.0033   27.8225 C.ar    1  UNL1        0.0504
     10 C          -6.0808  -14.3099   26.7827 C.ar    1  UNL1        0.1441
     11 O          -4.8122  -13.7204   26.8370 O.3     1  UNL1       -0.5053
     12 C          -6.4880  -15.1503   25.7062 C.ar    1  UNL1        0.1601
     13 C          -5.6164  -15.6242   24.6955 C.2     1  UNL1        0.2146
     14 O          -4.3730  -15.5051   24.8434 O.2     1  UNL1       -0.2859
     15 C          -6.1414  -16.3074   23.5635 C.ar    1  UNL1        0.1263
     16 C          -5.3759  -16.6822   22.4126 C.ar    1  UNL1        0.0304
     17 H          -4.2305  -13.5523   26.0286 H       1  UNL1        0.2922
     18 H          -9.1715  -16.5529   24.6246 H       1  UNL1        0.5634
     19 C          -4.9158  -19.2423   19.9096 C.3     1  UNL1        0.2526
     20 O          -5.1423  -17.9037   20.3371 O.3     1  UNL1       -0.4687
     21 O          -9.1899  -14.1786   28.8262 O.3     1  UNL1       -0.4655
     22 C          -9.8933  -12.9476   28.9902 C.3     1  UNL1        0.2893
     23 C          -9.8933  -12.5270   30.4297 C.2     1  UNL1        0.2673
     24 O         -10.6132  -13.1510   31.2557 O.2     1  UNL1       -0.2711
     25 N          -9.0973  -11.4120   30.8574 N.am    1  UNL1       -0.2953
     26 H          -8.5576  -10.8917   30.1292 H       1  UNL1        0.1499
     27 C          -8.8576  -11.1235   32.2779 C.3     1  UNL1        0.1485
     28 C         -10.0593  -11.4667   33.1241 C.2     1  UNL1        0.2372
     29 N         -11.3030  -10.8033   32.8982 N.am    1  UNL1       -0.3275
     30 O          -9.9922  -12.3712   34.0000 O.2     1  UNL1       -0.2736
     31 H         -12.1430  -11.0510   33.4669 H       1  UNL1        0.1450
     32 H         -11.3917  -10.0741   32.1563 H       1  UNL1        0.1450
     33 C          -8.4124   -9.6569   32.4703 C.3     1  UNL1        0.0325
     34 C          -8.2256   -8.8630   31.1588 C.3     1  UNL1        0.0450
     35 C          -8.8598   -7.4663   31.2183 C.3     1  UNL1        0.1740
     36 N         -10.0223   -7.3866   30.3340 N.pl3   1  UNL1       -0.2625
     37 H         -10.3732   -6.4485   30.0350 H       1  UNL1        0.2587
     38 C         -10.6907   -8.5493   29.8221 C.cat   1  UNL1        0.3769
     39 N         -11.6112   -9.1128   30.5380 N.pl3   1  UNL1       -0.1298
     40 N         -10.3578   -9.0907   28.5373 N.pl3   1  UNL1       -0.2892
     41 H         -12.1247   -9.9603   30.2080 H       1  UNL1        0.3062
     42 H         -10.8514   -9.9367   28.1751 H       1  UNL1        0.2546
     43 H          -9.6222   -8.6627   27.9346 H       1  UNL1        0.2546
     44 C          -6.5385  -13.1385   28.9826 C.3     1  UNL1        0.0578
     45 C          -6.2227  -11.7423   28.5022 C.2     1  UNL1       -0.0297
     46 C          -5.5905  -10.7937   29.2284 C.2     1  UNL1       -0.0475
     47 C          -5.1362  -11.0348   30.6476 C.3     1  UNL1        0.0260
     48 C          -5.3324   -9.4547   28.5865 C.3     1  UNL1        0.0260
     49 O          -7.9377  -18.5878   20.4655 O.3     1  UNL1       -0.4623
     50 C          -8.7812  -19.7208   20.6740 C.3     1  UNL1        0.2895
     51 C         -10.2191  -19.2979   20.6507 C.2     1  UNL1        0.2673
     52 O         -11.0837  -20.0287   21.2053 O.2     1  UNL1       -0.2711
     53 N         -10.6012  -18.0528   20.0502 N.am    1  UNL1       -0.2953
     54 H          -9.8849  -17.5411   19.4885 H       1  UNL1        0.1499
     55 C         -11.7919  -17.3179   20.4843 C.3     1  UNL1        0.1485
     56 C         -11.9147  -16.0399   19.6925 C.2     1  UNL1        0.2372
     57 N         -10.7505  -15.2961   19.3311 N.am    1  UNL1       -0.3275
     58 O         -13.0504  -15.6270   19.3332 O.2     1  UNL1       -0.2736
     59 H          -9.7975  -15.6232   19.6045 H       1  UNL1        0.1450
     60 H         -10.8408  -14.4144   18.7791 H       1  UNL1        0.1450
     61 C         -11.6883  -17.0306   21.9931 C.3     1  UNL1        0.0325
     62 C         -12.9254  -17.5072   22.7683 C.3     1  UNL1        0.0450
     63 C         -12.5367  -18.1447   24.1087 C.3     1  UNL1        0.1740
     64 N         -11.6491  -19.2934   23.9154 N.pl3   1  UNL1       -0.2625
     65 H         -11.8491  -19.9863   23.1587 H       1  UNL1        0.2587
     66 C         -10.4505  -19.4611   24.6828 C.cat   1  UNL1        0.3769
     67 N         -10.2809  -18.7971   25.7827 N.pl3   1  UNL1       -0.1298
     68 N          -9.4389  -20.3608   24.2243 N.pl3   1  UNL1       -0.2892
     69 H          -9.4166  -18.8998   26.3588 H       1  UNL1        0.3062
     70 H          -8.5493  -20.4841   24.7551 H       1  UNL1        0.2546
     71 H          -9.5779  -20.9104   23.3479 H       1  UNL1        0.2546
     72 C          -3.9247  -16.2652   22.2271 C.3     1  UNL1        0.0552
     73 C          -2.9977  -17.4423   22.4151 C.2     1  UNL1       -0.0298
     74 C          -1.9962  -17.7384   21.5607 C.2     1  UNL1       -0.0475
     75 C          -1.7288  -16.8980   20.3347 C.3     1  UNL1        0.0260
     76 C          -1.1295  -18.9363   21.8497 C.3     1  UNL1        0.0260
@<TRIPOS>BOND
     1    19    20    1
     2    20     1    1
     3     1     2   ar
     4     2    49    1
     5    49    50    1
     6    50    51    1
     7    51    52    2
     8    51    53   am
     9    53    55    1
    10    55    61    1
    11    61    62    1
    12    62    63    1
    13    63    64    1
    14    64    66    1
    15    66    67    2
    16    66    68    1
    17    55    56    1
    18    56    57   am
    19    56    58    2
    20     2     3   ar
    21     3     4   ar
    22     4     5    1
    23     5     6    1
    24     6     7   ar
    25     7     8   ar
    26     8    21    1
    27    21    22    1
    28    22    23    1
    29    23    24    2
    30    23    25   am
    31    25    27    1
    32    27    33    1
    33    33    34    1
    34    34    35    1
    35    35    36    1
    36    36    38    1
    37    38    39    2
    38    38    40    1
    39    27    28    1
    40    28    29   am
    41    28    30    2
    42     8     9   ar
    43     9    44    1
    44    44    45    1
    45    45    46    2
    46    46    47    1
    47    46    48    1
    48     9    10   ar
    49    10    11    1
    50    10    12   ar
    51    12    13    1
    52    13    14    2
    53    13    15    1
    54    15    16   ar
    55    16    72    1
    56    72    73    1
    57    73    74    2
    58    74    75    1
    59    74    76    1
    60    16     1   ar
    61    15     4   ar
    62    12     6   ar
    63    53    54    1
    64    64    65    1
    65    67    69    1
    66    68    70    1
    67    68    71    1
    68    57    59    1
    69    57    60    1
    70    25    26    1
    71    36    37    1
    72    39    41    1
    73    40    42    1
    74    40    43    1
    75    29    31    1
    76    29    32    1
    77    11    17    1
    78     5    18    1
@<TRIPOS>MOLECULE
*****
 76 78 0 0 0
SMALL
GASTEIGER

@<TRIPOS>ATOM
      1 C          -8.9421  -10.5395   31.2208 C.ar    1  UNL1        0.1694
      2 C         -10.1827  -11.2201   31.1883 C.ar    1  UNL1        0.1811
      3 C         -10.3214  -12.3547   30.3799 C.ar    1  UNL1        0.1358
      4 C          -9.2835  -12.7902   29.5637 C.ar    1  UNL1        0.2879
      5 O          -9.4968  -13.8429   28.7878 O.3     1  UNL1       -0.5462
      6 C          -8.5741  -14.3619   27.9927 C.ar    1  UNL1        0.2910
      7 C          -8.9090  -15.4704   27.2188 C.ar    1  UNL1        0.1326
      8 C          -7.9649  -16.0717   26.3735 C.ar    1  UNL1        0.1469
      9 C          -6.6514  -15.5637   26.3325 C.ar    1  UNL1        0.0504
     10 C          -6.2985  -14.4450   27.1216 C.ar    1  UNL1        0.1441
     11 O          -4.9565  -14.0465   27.1149 O.3     1  UNL1       -0.5053
     12 C          -7.2840  -13.7988   27.9231 C.ar    1  UNL1        0.1601
     13 C          -7.0628  -12.5958   28.6369 C.2     1  UNL1        0.2146
     14 O          -6.0326  -11.9144   28.3990 O.2     1  UNL1       -0.2859
     15 C          -8.0420  -12.1190   29.5520 C.ar    1  UNL1        0.1263
     16 C          -7.8539  -11.0115   30.4405 C.ar    1  UNL1        0.0304
     17 H          -4.5120  -13.5403   27.8674 H       1  UNL1        0.2922
     18 H         -10.3450  -14.2408   28.8026 H       1  UNL1        0.5634
     19 C          -9.3608   -8.1140   31.8452 C.3     1  UNL1        0.2526
     20 O          -8.7300   -9.3807   31.9984 O.3     1  UNL1       -0.4687
     21 O          -8.2935  -17.1780   25.5690 O.3     1  UNL1       -0.4655
     22 C          -9.5225  -17.9026   25.6109 C.3     1  UNL1        0.2893
     23 C          -9.6219  -18.8416   24.4459 C.2     1  UNL1        0.2673
     24 O         -10.1244  -19.9856   24.6155 O.2     1  UNL1       -0.2711
     25 N          -9.1303  -18.4484   23.1561 N.am    1  UNL1       -0.2953
     26 H          -8.6739  -17.5118   23.0741 H       1  UNL1        0.1499
     27 C          -9.4345  -19.2127   21.9388 C.3     1  UNL1        0.1485
     28 C          -8.3927  -18.9906   20.8696 C.2     1  UNL1        0.2372
     29 N          -7.4887  -17.8906   20.9727 N.am    1  UNL1       -0.3275
     30 O          -8.2776  -19.7961   19.9063 O.2     1  UNL1       -0.2736
     31 H          -6.7528  -17.7437   20.2466 H       1  UNL1        0.1450
     32 H          -7.5432  -17.2290   21.7785 H       1  UNL1        0.1450
     33 C         -10.8597  -18.8941   21.4351 C.3     1  UNL1        0.0325
     34 C         -10.9598  -17.6444   20.5332 C.3     1  UNL1        0.0450
     35 C         -11.7592  -16.5077   21.1853 C.3     1  UNL1        0.1740
     36 N         -10.9557  -15.8234   22.1981 N.pl3   1  UNL1       -0.2625
     37 H         -11.3681  -15.6441   23.1418 H       1  UNL1        0.2587
     38 C          -9.5996  -15.4131   21.9677 C.cat   1  UNL1        0.3769
     39 N          -8.6974  -15.6947   22.8531 N.pl3   1  UNL1       -0.1298
     40 N          -9.2316  -14.7026   20.7784 N.pl3   1  UNL1       -0.2892
     41 H          -7.6982  -15.4169   22.7298 H       1  UNL1        0.3062
     42 H          -8.2415  -14.4098   20.6215 H       1  UNL1        0.2546
     43 H          -9.9318  -14.4592   20.0449 H       1  UNL1        0.2546
     44 C          -5.6076  -16.2244   25.4550 C.3     1  UNL1        0.0578
     45 C          -5.5223  -15.5192   24.1227 C.2     1  UNL1       -0.0297
     46 C          -5.0179  -16.0553   22.9891 C.2     1  UNL1       -0.0475
     47 C          -4.4527  -17.4543   22.9415 C.3     1  UNL1        0.0260
     48 C          -5.0296  -15.2192   21.7352 C.3     1  UNL1        0.0260
     49 O         -11.2578  -10.7621   31.9689 O.3     1  UNL1       -0.4623
     50 C         -12.6377  -11.0359   31.7249 C.3     1  UNL1        0.2895
     51 C         -12.9222  -12.4864   31.9743 C.2     1  UNL1        0.2673
     52 O         -13.4570  -13.1734   31.0625 O.2     1  UNL1       -0.2711
     53 N         -12.5447  -13.0986   33.2151 N.am    1  UNL1       -0.2953
     54 H         -12.2279  -12.4755   33.9908 H       1  UNL1        0.1499
     55 C         -12.2428  -14.5289   33.3116 C.3     1  UNL1        0.1485
     56 C         -13.4623  -15.3307   32.9307 C.2     1  UNL1        0.2372
     57 N         -13.5462  -15.9594   31.6514 N.am    1  UNL1       -0.3275
     58 O         -14.4125  -15.4609   33.7490 O.2     1  UNL1       -0.2736
     59 H         -12.7675  -15.8783   30.9607 H       1  UNL1        0.1450
     60 H         -14.3908  -16.5170   31.3944 H       1  UNL1        0.1450
     61 C         -11.7871  -14.8552   34.7455 C.3     1  UNL1        0.0325
     62 C         -11.0701  -13.6748   35.4171 C.3     1  UNL1        0.0450
     63 C          -9.5633  -13.6956   35.1286 C.3     1  UNL1        0.1740
     64 N          -8.9260  -12.4401   35.5314 N.pl3   1  UNL1       -0.2625
     65 H          -8.5204  -12.3444   36.4902 H       1  UNL1        0.2587
     66 C          -8.7603  -11.3485   34.6179 C.cat   1  UNL1        0.3769
     67 N          -9.7128  -10.4854   34.4519 N.pl3   1  UNL1       -0.1298
     68 N          -7.5400  -11.2204   33.8848 N.pl3   1  UNL1       -0.2892
     69 H          -9.6180   -9.6828   33.7915 H       1  UNL1        0.3062
     70 H          -7.4042  -10.4459   33.1992 H       1  UNL1        0.2546
     71 H          -6.7635  -11.9031   34.0274 H       1  UNL1        0.2546
     72 C          -6.5165  -10.3015   30.5871 C.3     1  UNL1        0.0552
     73 C          -6.5734   -8.9165   29.9882 C.2     1  UNL1       -0.0298
     74 C          -6.0560   -7.8273   30.5940 C.2     1  UNL1       -0.0475
     75 C          -5.3727   -7.9200   31.9375 C.3     1  UNL1        0.0260
     76 C          -6.1666   -6.4939   29.9017 C.3     1  UNL1        0.0260
@<TRIPOS>BOND
     1    19    20    1
     2    20     1    1
     3     1     2   ar
     4     2    49    1
     5    49    50    1
     6    50    51    1
     7    51    52    2
     8    51    53   am
     9    53    55    1
    10    55    61    1
    11    61    62    1
    12    62    63    1
    13    63    64    1
    14    64    66    1
    15    66    67    2
    16    66    68    1
    17    55    56    1
    18    56    57   am
    19    56    58    2
    20     2     3   ar
    21     3     4   ar
    22     4     5    1
    23     5     6    1
    24     6     7   ar
    25     7     8   ar
    26     8    21    1
    27    21    22    1
    28    22    23    1
    29    23    24    2
    30    23    25   am
    31    25    27    1
    32    27    33    1
    33    33    34    1
    34    34    35    1
    35    35    36    1
    36    36    38    1
    37    38    39    2
    38    38    40    1
    39    27    28    1
    40    28    29   am
    41    28    30    2
    42     8     9   ar
    43     9    44    1
    44    44    45    1
    45    45    46    2
    46    46    47    1
    47    46    48    1
    48     9    10   ar
    49    10    11    1
    50    10    12   ar
    51    12    13    1
    52    13    14    2
    53    13    15    1
    54    15    16   ar
    55    16    72    1
    56    72    73    1
    57    73    74    2
    58    74    75    1
    59    74    76    1
    60    16     1   ar
    61    15     4   ar
    62    12     6   ar
    63    53    54    1
    64    64    65    1
    65    67    69    1
    66    68    70    1
    67    68    71    1
    68    57    59    1
    69    57    60    1
    70    25    26    1
    71    36    37    1
    72    39    41    1
    73    40    42    1
    74    40    43    1
    75    29    31    1
    76    29    32    1
    77    11    17    1
    78     5    18    1
@<TRIPOS>MOLECULE
*****
 76 78 0 0 0
SMALL
GASTEIGER

@<TRIPOS>ATOM
      1 C          -8.9234   -9.9780   31.2216 C.ar    1  UNL1        0.1694
      2 C         -10.0856  -10.7697   31.3830 C.ar    1  UNL1        0.1811
      3 C         -10.1806  -11.9934   30.7095 C.ar    1  UNL1        0.1358
      4 C          -9.1825  -12.4174   29.8393 C.ar    1  UNL1        0.2879
      5 O          -9.3569  -13.5634   29.1975 O.3     1  UNL1       -0.5462
      6 C          -8.4625  -14.0784   28.3683 C.ar    1  UNL1        0.2910
      7 C          -8.7515  -15.2906   27.7463 C.ar    1  UNL1        0.1326
      8 C          -7.8319  -15.8905   26.8733 C.ar    1  UNL1        0.1469
      9 C          -6.5866  -15.2710   26.6489 C.ar    1  UNL1        0.0504
     10 C          -6.2795  -14.0454   27.2831 C.ar    1  UNL1        0.1441
     11 O          -4.9916  -13.5278   27.1006 O.3     1  UNL1       -0.5053
     12 C          -7.2486  -13.4096   28.1124 C.ar    1  UNL1        0.1601
     13 C          -7.0874  -12.1208   28.6771 C.2     1  UNL1        0.2146
     14 O          -6.1585  -11.3772   28.2693 O.2     1  UNL1       -0.2859
     15 C          -8.0225  -11.6398   29.6351 C.ar    1  UNL1        0.1263
     16 C          -7.8685  -10.4297   30.3855 C.ar    1  UNL1        0.0304
     17 H          -4.5344  -12.9040   27.7502 H       1  UNL1        0.2922
     18 H         -10.1550  -14.0339   29.3378 H       1  UNL1        0.5634
     19 C          -9.3692   -7.4927   31.4908 C.3     1  UNL1        0.2526
     20 O          -8.7610   -8.7270   31.8547 O.3     1  UNL1       -0.4687
     21 O          -8.1176  -17.1033   26.2202 O.3     1  UNL1       -0.4655
     22 C          -9.3390  -17.4233   25.5546 C.3     1  UNL1        0.2893
     23 C          -9.1523  -17.3975   24.0669 C.2     1  UNL1        0.2673
     24 O          -8.1072  -17.8951   23.5666 O.2     1  UNL1       -0.2711
     25 N         -10.1442  -16.7933   23.2238 N.am    1  UNL1       -0.2953
     26 H         -10.9685  -16.3465   23.6855 H       1  UNL1        0.1499
     27 C         -10.1409  -16.9693   21.7652 C.3     1  UNL1        0.1485
     28 C          -9.9041  -15.6620   21.0493 C.2     1  UNL1        0.2372
     29 N          -8.7847  -14.8489   21.4014 N.am    1  UNL1       -0.3275
     30 O         -10.6578  -15.2994   20.1057 O.2     1  UNL1       -0.2736
     31 H          -8.6043  -13.9534   20.8957 H       1  UNL1        0.1450
     32 H          -8.1276  -15.1442   22.1571 H       1  UNL1        0.1450
     33 C         -11.4395  -17.6612   21.2951 C.3     1  UNL1        0.0325
     34 C         -12.1213  -18.5451   22.3624 C.3     1  UNL1        0.0450
     35 C         -13.2729  -17.8250   23.0778 C.3     1  UNL1        0.1740
     36 N         -13.2305  -18.0819   24.5172 N.pl3   1  UNL1       -0.2625
     37 H         -12.3294  -17.9562   25.0321 H       1  UNL1        0.2587
     38 C         -14.3885  -18.4682   25.2724 C.cat   1  UNL1        0.3769
     39 N         -14.2542  -18.7564   26.5279 N.pl3   1  UNL1       -0.1298
     40 N         -15.6833  -18.5371   24.6614 N.pl3   1  UNL1       -0.2892
     41 H         -15.0671  -19.0427   27.1178 H       1  UNL1        0.3062
     42 H         -16.5187  -18.8189   25.2212 H       1  UNL1        0.2546
     43 H         -15.8279  -18.3121   23.6534 H       1  UNL1        0.2546
     44 C          -5.5652  -15.9240   25.7399 C.3     1  UNL1        0.0578
     45 C          -5.6922  -15.3820   24.3364 C.2     1  UNL1       -0.0297
     46 C          -5.1420  -15.9385   23.2343 C.2     1  UNL1       -0.0475
     47 C          -4.3011  -17.1905   23.2982 C.3     1  UNL1        0.0260
     48 C          -5.3872  -15.2793   21.9014 C.3     1  UNL1        0.0260
     49 O         -11.1261  -10.3307   32.2194 O.3     1  UNL1       -0.4623
     50 C         -12.5126  -10.6230   32.0441 C.3     1  UNL1        0.2895
     51 C         -12.7325  -12.1050   32.0967 C.2     1  UNL1        0.2673
     52 O         -13.0650  -12.7147   31.0446 O.2     1  UNL1       -0.2711
     53 N         -12.5180  -12.8290   33.3159 N.am    1  UNL1       -0.2953
     54 H         -12.3737  -12.2791   34.1918 H       1  UNL1        0.1499
     55 C         -12.1373  -14.2437   33.3187 C.3     1  UNL1        0.1485
     56 C         -13.3460  -15.0939   33.0166 C.2     1  UNL1        0.2372
     57 N         -13.5665  -15.5990   31.6992 N.am    1  UNL1       -0.3275
     58 O         -14.1648  -15.3748   33.9333 O.2     1  UNL1       -0.2736
     59 H         -12.8967  -15.3922   30.9254 H       1  UNL1        0.1450
     60 H         -14.4025  -16.1907   31.4966 H       1  UNL1        0.1450
     61 C         -11.5315  -14.6031   34.6876 C.3     1  UNL1        0.0325
     62 C         -10.8375  -13.4069   35.3553 C.3     1  UNL1        0.0450
     63 C          -9.3127  -13.5777   35.3677 C.3     1  UNL1        0.1740
     64 N          -8.6343  -12.2966   35.5756 N.pl3   1  UNL1       -0.2625
     65 H          -8.1750  -12.0916   36.4920 H       1  UNL1        0.2587
     66 C          -8.5021  -11.3311   34.5250 C.cat   1  UNL1        0.3769
     67 N          -7.4924  -11.3823   33.7141 N.pl3   1  UNL1       -0.1298
     68 N          -9.4875  -10.3059   34.3802 N.pl3   1  UNL1       -0.2892
     69 H          -7.3719  -10.6902   32.9422 H       1  UNL1        0.3062
     70 H          -9.4018   -9.5799   33.6360 H       1  UNL1        0.2546
     71 H         -10.3113  -10.2704   35.0202 H       1  UNL1        0.2546
     72 C          -6.6030   -9.5876   30.3243 C.3     1  UNL1        0.0552
     73 C          -6.0678   -9.3181   31.7104 C.2     1  UNL1       -0.0298
     74 C          -5.5408   -8.1327   32.0819 C.2     1  UNL1       -0.0475
     75 C          -5.4475   -6.9729   31.1191 C.3     1  UNL1        0.0260
     76 C          -5.0402   -7.9746   33.4939 C.3     1  UNL1        0.0260
@<TRIPOS>BOND
     1    19    20    1
     2    20     1    1
     3     1     2   ar
     4     2    49    1
     5    49    50    1
     6    50    51    1
     7    51    52    2
     8    51    53   am
     9    53    55    1
    10    55    61    1
    11    61    62    1
    12    62    63    1
    13    63    64    1
    14    64    66    1
    15    66    67    2
    16    66    68    1
    17    55    56    1
    18    56    57   am
    19    56    58    2
    20     2     3   ar
    21     3     4   ar
    22     4     5    1
    23     5     6    1
    24     6     7   ar
    25     7     8   ar
    26     8    21    1
    27    21    22    1
    28    22    23    1
    29    23    24    2
    30    23    25   am
    31    25    27    1
    32    27    33    1
    33    33    34    1
    34    34    35    1
    35    35    36    1
    36    36    38    1
    37    38    39    2
    38    38    40    1
    39    27    28    1
    40    28    29   am
    41    28    30    2
    42     8     9   ar
    43     9    44    1
    44    44    45    1
    45    45    46    2
    46    46    47    1
    47    46    48    1
    48     9    10   ar
    49    10    11    1
    50    10    12   ar
    51    12    13    1
    52    13    14    2
    53    13    15    1
    54    15    16   ar
    55    16    72    1
    56    72    73    1
    57    73    74    2
    58    74    75    1
    59    74    76    1
    60    16     1   ar
    61    15     4   ar
    62    12     6   ar
    63    53    54    1
    64    64    65    1
    65    67    69    1
    66    68    70    1
    67    68    71    1
    68    57    59    1
    69    57    60    1
    70    25    26    1
    71    36    37    1
    72    39    41    1
    73    40    42    1
    74    40    43    1
    75    29    31    1
    76    29    32    1
    77    11    17    1
    78     5    18    1
