@<TRIPOS>MOLECULE
*****
 37 42 0 0 0
SMALL
GASTEIGER

@<TRIPOS>ATOM
      1 C          48.4600   11.8771  -25.4090 C.ar    1  UNL1        0.1093
      2 N          48.2775   12.0358  -26.7437 N.ar    1  UNL1       -0.1677
      3 N          46.9831   12.2333  -26.9625 N.ar    1  UNL1       -0.2319
      4 C          46.4090   12.5352  -28.2668 C.3     1  UNL1        0.1554
      5 C          46.3497   12.2409  -25.7799 C.ar    1  UNL1        0.1654
      6 N          45.0408   12.5102  -25.5580 N.ar    1  UNL1       -0.2050
      7 C          44.5957   12.5187  -24.2677 C.ar    1  UNL1        0.2014
      8 N          45.4542   12.2496  -23.2346 N.ar    1  UNL1       -0.2089
      9 C          46.7776   11.9798  -23.4480 C.ar    1  UNL1        0.1379
     10 C          47.2321   12.0019  -24.7705 C.ar    1  UNL1        0.0865
     11 C          50.4670   10.6759  -24.3770 C.ar    1  UNL1        0.1113
     12 N          51.6629   11.0291  -23.8624 N.ar    1  UNL1       -0.1711
     13 N          51.7615   12.3480  -23.9378 N.ar    1  UNL1       -0.2490
     14 C          52.9437   13.0847  -23.5043 C.3     1  UNL1        0.1537
     15 C          50.6385   12.8602  -24.4891 C.ar    1  UNL1        0.0806
     16 C          49.7896   11.8104  -24.7907 C.ar    1  UNL1        0.0545
     17 C          50.4134   14.2851  -24.8042 C.ar    1  UNL1        0.0174
     18 C          50.5545   14.7481  -26.1208 C.ar    1  UNL1        0.0012
     19 C          50.3246   16.0930  -26.4239 C.ar    1  UNL1       -0.0042
     20 C          49.9390   16.9894  -25.4158 C.ar    1  UNL1       -0.0218
     21 C          49.7300   18.4402  -25.7339 C.3     1  UNL1        0.0310
     22 C          49.8178   16.5305  -24.0955 C.ar    1  UNL1       -0.0042
     23 C          50.0474   15.1853  -23.7930 C.ar    1  UNL1        0.0012
     24 C          49.9343    9.2715  -24.3925 C.3     1  UNL1        0.1894
     25 C          50.5864    9.0130  -26.6023 C.3     1  UNL1        0.1747
     26 O          50.6538    8.4636  -25.3048 O.3     1  UNL1       -0.3446
     27 N          47.6176   11.6094  -22.3457 N.pl3   1  UNL1       -0.2917
     28 C          47.4490   10.3416  -21.6462 C.3     1  UNL1        0.0937
     29 C          47.9864   10.5617  -20.2367 C.3     1  UNL1        0.0391
     30 C          48.8609   11.8178  -20.3453 C.3     1  UNL1        0.0790
     31 C          48.2767   12.6079  -21.5188 C.3     1  UNL1        0.1081
     32 N          49.0154   12.5950  -19.0848 N.3     1  UNL1       -0.2723
     33 C          48.4369   11.9775  -17.8615 C.3     1  UNL1        0.0721
     34 C          49.0242   12.5758  -16.5781 C.3     1  UNL1        0.0174
     35 C          50.5426   12.3599  -16.5060 C.3     1  UNL1        0.0029
     36 C          51.2163   12.3800  -17.8886 C.3     1  UNL1        0.0174
     37 C          50.3830   13.1536  -18.9205 C.3     1  UNL1        0.0721
@<TRIPOS>BOND
     1    25    26    1
     2    26    24    1
     3    24    11    1
     4    11    12   ar
     5    12    13   ar
     6    13    14    1
     7    13    15   ar
     8    15    17    1
     9    17    18   ar
    10    18    19   ar
    11    19    20   ar
    12    20    21    1
    13    20    22   ar
    14    22    23   ar
    15    15    16   ar
    16    16     1    1
    17     1     2   ar
    18     2     3   ar
    19     3     4    1
    20     3     5   ar
    21     5     6   ar
    22     6     7   ar
    23     7     8   ar
    24     8     9   ar
    25     9    27    1
    26    27    28    1
    27    28    29    1
    28    29    30    1
    29    30    32    1
    30    32    33    1
    31    33    34    1
    32    34    35    1
    33    35    36    1
    34    36    37    1
    35    30    31    1
    36     9    10   ar
    37    16    11   ar
    38    10     1   ar
    39    23    17   ar
    40    10     5   ar
    41    31    27    1
    42    37    32    1
@<TRIPOS>MOLECULE
*****
 37 42 0 0 0
SMALL
GASTEIGER

@<TRIPOS>ATOM
      1 C          49.5910   10.8749  -26.3097 C.ar    1  UNL1        0.1093
      2 N          49.4159    9.7461  -27.0412 N.ar    1  UNL1       -0.1677
      3 N          50.5630    9.4654  -27.6478 N.ar    1  UNL1       -0.2319
      4 C          50.7945    8.2732  -28.4520 C.3     1  UNL1        0.1554
      5 C          51.4725   10.3798  -27.2784 C.ar    1  UNL1        0.1654
      6 N          52.7895   10.3937  -27.5952 N.ar    1  UNL1       -0.2050
      7 C          53.5657   11.3886  -27.0749 C.ar    1  UNL1        0.2014
      8 N          53.0160   12.3477  -26.2657 N.ar    1  UNL1       -0.2089
      9 C          51.6886   12.3405  -25.9376 C.ar    1  UNL1        0.1379
     10 C          50.9061   11.3012  -26.4510 C.ar    1  UNL1        0.0865
     11 C          48.6187   11.3320  -23.9899 C.ar    1  UNL1        0.1113
     12 N          47.5046   11.9043  -23.4890 N.ar    1  UNL1       -0.1711
     13 N          46.7652   12.3111  -24.5101 N.ar    1  UNL1       -0.2490
     14 C          45.4962   13.0117  -24.3459 C.3     1  UNL1        0.1537
     15 C          47.3817   12.0029  -25.6731 C.ar    1  UNL1        0.0806
     16 C          48.5801   11.3802  -25.3732 C.ar    1  UNL1        0.0545
     17 C          46.8983   12.3664  -27.0201 C.ar    1  UNL1        0.0174
     18 C          46.6433   13.7080  -27.3407 C.ar    1  UNL1        0.0012
     19 C          46.2024   14.0556  -28.6207 C.ar    1  UNL1       -0.0042
     20 C          46.0224   13.0669  -29.5997 C.ar    1  UNL1       -0.0218
     21 C          45.5124   13.4355  -30.9612 C.3     1  UNL1        0.0310
     22 C          46.2579   11.7230  -29.2728 C.ar    1  UNL1       -0.0042
     23 C          46.6992   11.3759  -27.9927 C.ar    1  UNL1        0.0012
     24 C          49.6735   10.6620  -23.1564 C.3     1  UNL1        0.1894
     25 C          50.4128    8.5104  -23.6024 C.3     1  UNL1        0.1747
     26 O          49.3986    9.2828  -22.9988 O.3     1  UNL1       -0.3446
     27 N          51.1378   13.4176  -25.1666 N.pl3   1  UNL1       -0.2917
     28 C          51.1427   13.3971  -23.7090 C.3     1  UNL1        0.0937
     29 C          49.9731   14.2707  -23.2699 C.3     1  UNL1        0.0391
     30 C          49.6380   15.1207  -24.5027 C.3     1  UNL1        0.0790
     31 C          50.0977   14.2837  -25.6988 C.3     1  UNL1        0.1081
     32 N          48.2303   15.5996  -24.5802 N.3     1  UNL1       -0.2723
     33 C          47.6189   16.0414  -23.2982 C.3     1  UNL1        0.0721
     34 C          46.3893   16.9298  -23.5192 C.3     1  UNL1        0.0174
     35 C          46.7534   18.2027  -24.2966 C.3     1  UNL1        0.0029
     36 C          47.8866   17.9801  -25.3125 C.3     1  UNL1        0.0174
     37 C          47.9972   16.5077  -25.7337 C.3     1  UNL1        0.0721
@<TRIPOS>BOND
     1    25    26    1
     2    26    24    1
     3    24    11    1
     4    11    12   ar
     5    12    13   ar
     6    13    14    1
     7    13    15   ar
     8    15    17    1
     9    17    18   ar
    10    18    19   ar
    11    19    20   ar
    12    20    21    1
    13    20    22   ar
    14    22    23   ar
    15    15    16   ar
    16    16     1    1
    17     1     2   ar
    18     2     3   ar
    19     3     4    1
    20     3     5   ar
    21     5     6   ar
    22     6     7   ar
    23     7     8   ar
    24     8     9   ar
    25     9    27    1
    26    27    28    1
    27    28    29    1
    28    29    30    1
    29    30    32    1
    30    32    33    1
    31    33    34    1
    32    34    35    1
    33    35    36    1
    34    36    37    1
    35    30    31    1
    36     9    10   ar
    37    16    11   ar
    38    10     1   ar
    39    23    17   ar
    40    10     5   ar
    41    31    27    1
    42    37    32    1
@<TRIPOS>MOLECULE
*****
 37 42 0 0 0
SMALL
GASTEIGER

@<TRIPOS>ATOM
      1 C          48.5213   13.5838  -25.2252 C.ar    1  UNL1        0.1093
      2 N          48.3042   14.2621  -26.3796 N.ar    1  UNL1       -0.1677
      3 N          47.0133   14.1704  -26.6756 N.ar    1  UNL1       -0.2319
      4 C          46.3796   14.8491  -27.7977 C.3     1  UNL1        0.1554
      5 C          46.4038   13.4762  -25.7027 C.ar    1  UNL1        0.1654
      6 N          45.0750   13.2458  -25.5757 N.ar    1  UNL1       -0.2050
      7 C          44.6437   12.5563  -24.4794 C.ar    1  UNL1        0.2014
      8 N          45.5390   12.1047  -23.5460 N.ar    1  UNL1       -0.2089
      9 C          46.8817   12.3350  -23.6636 C.ar    1  UNL1        0.1379
     10 C          47.3125   13.0672  -24.7745 C.ar    1  UNL1        0.0865
     11 C          50.1333   14.3997  -23.4164 C.ar    1  UNL1        0.1113
     12 N          51.4050   14.1418  -23.0475 N.ar    1  UNL1       -0.1711
     13 N          51.8873   13.2251  -23.8732 N.ar    1  UNL1       -0.2490
     14 C          53.2324   12.6732  -23.7532 C.3     1  UNL1        0.1537
     15 C          50.9459   12.8877  -24.7828 C.ar    1  UNL1        0.0806
     16 C          49.8034   13.6190  -24.5113 C.ar    1  UNL1        0.0545
     17 C          51.0905   11.8433  -25.8166 C.ar    1  UNL1        0.0174
     18 C          52.1826   11.8672  -26.6966 C.ar    1  UNL1        0.0012
     19 C          52.3305   10.8695  -27.6643 C.ar    1  UNL1       -0.0042
     20 C          51.3941    9.8287  -27.7561 C.ar    1  UNL1       -0.0218
     21 C          51.5318    8.7798  -28.8193 C.3     1  UNL1        0.0310
     22 C          50.2910    9.8162  -26.8892 C.ar    1  UNL1       -0.0042
     23 C          50.1438   10.8139  -25.9213 C.ar    1  UNL1        0.0012
     24 C          49.2657   15.4504  -22.7843 C.3     1  UNL1        0.1894
     25 C          47.4712   16.7204  -23.5203 C.3     1  UNL1        0.1747
     26 O          48.8246   16.3920  -23.7442 O.3     1  UNL1       -0.3446
     27 N          47.7904   11.7611  -22.7135 N.pl3   1  UNL1       -0.2917
     28 C          48.2284   10.3742  -22.8134 C.3     1  UNL1        0.0937
     29 C          48.5921    9.9426  -21.3972 C.3     1  UNL1        0.0391
     30 C          48.7802   11.2560  -20.6264 C.3     1  UNL1        0.0790
     31 C          47.9023   12.2745  -21.3574 C.3     1  UNL1        0.1081
     32 N          48.5461   11.1699  -19.1584 N.3     1  UNL1       -0.2723
     33 C          49.7621   11.1724  -18.3018 C.3     1  UNL1        0.0721
     34 C          49.4460   11.5477  -16.8494 C.3     1  UNL1        0.0174
     35 C          48.8376   12.9542  -16.7566 C.3     1  UNL1        0.0029
     36 C          47.9760   13.3155  -17.9785 C.3     1  UNL1        0.0174
     37 C          47.4520   12.0653  -18.6996 C.3     1  UNL1        0.0721
@<TRIPOS>BOND
     1    25    26    1
     2    26    24    1
     3    24    11    1
     4    11    12   ar
     5    12    13   ar
     6    13    14    1
     7    13    15   ar
     8    15    17    1
     9    17    18   ar
    10    18    19   ar
    11    19    20   ar
    12    20    21    1
    13    20    22   ar
    14    22    23   ar
    15    15    16   ar
    16    16     1    1
    17     1     2   ar
    18     2     3   ar
    19     3     4    1
    20     3     5   ar
    21     5     6   ar
    22     6     7   ar
    23     7     8   ar
    24     8     9   ar
    25     9    27    1
    26    27    28    1
    27    28    29    1
    28    29    30    1
    29    30    32    1
    30    32    33    1
    31    33    34    1
    32    34    35    1
    33    35    36    1
    34    36    37    1
    35    30    31    1
    36     9    10   ar
    37    16    11   ar
    38    10     1   ar
    39    23    17   ar
    40    10     5   ar
    41    31    27    1
    42    37    32    1
@<TRIPOS>MOLECULE
*****
 37 42 0 0 0
SMALL
GASTEIGER

@<TRIPOS>ATOM
      1 C          48.7009   12.2818  -25.0208 C.ar    1  UNL1        0.1093
      2 N          48.6774   11.6775  -26.2349 N.ar    1  UNL1       -0.1677
      3 N          47.4502   11.7901  -26.7284 N.ar    1  UNL1       -0.2319
      4 C          47.0571   11.3429  -28.0576 C.3     1  UNL1        0.1554
      5 C          46.7070   12.4922  -25.8596 C.ar    1  UNL1        0.1654
      6 N          45.4304   12.9114  -26.0318 N.ar    1  UNL1       -0.2050
      7 C          44.8620   13.6640  -25.0450 C.ar    1  UNL1        0.2014
      8 N          45.5675   13.9711  -23.9116 N.ar    1  UNL1       -0.2089
      9 C          46.8575   13.5554  -23.7299 C.ar    1  UNL1        0.1379
     10 C          47.4424   12.8096  -24.7583 C.ar    1  UNL1        0.0865
     11 C          50.6146   11.5804  -23.4775 C.ar    1  UNL1        0.1113
     12 N          51.7133   12.1605  -22.9520 N.ar    1  UNL1       -0.1711
     13 N          51.7532   13.4132  -23.3809 N.ar    1  UNL1       -0.2490
     14 C          52.8293   14.3378  -23.0412 C.3     1  UNL1        0.1537
     15 C          50.6871   13.6594  -24.1748 C.ar    1  UNL1        0.0806
     16 C          49.9398   12.4986  -24.2642 C.ar    1  UNL1        0.0545
     17 C          50.4323   14.9213  -24.8980 C.ar    1  UNL1        0.0174
     18 C          50.5986   16.1534  -24.2485 C.ar    1  UNL1        0.0012
     19 C          50.3749   17.3492  -24.9368 C.ar    1  UNL1       -0.0042
     20 C          49.9935   17.3277  -26.2867 C.ar    1  UNL1       -0.0218
     21 C          49.7159   18.6097  -27.0141 C.3     1  UNL1        0.0310
     22 C          49.8074   16.0951  -26.9304 C.ar    1  UNL1       -0.0042
     23 C          50.0317   14.8995  -26.2418 C.ar    1  UNL1        0.0012
     24 C          50.1612   10.1841  -23.1599 C.3     1  UNL1        0.1894
     25 C          49.1309    9.1616  -21.3521 C.3     1  UNL1        0.1747
     26 O          50.2398    9.9265  -21.7706 O.3     1  UNL1       -0.3446
     27 N          47.5241   13.8185  -22.4872 N.pl3   1  UNL1       -0.2917
     28 C          48.2543   15.0591  -22.2572 C.3     1  UNL1        0.0937
     29 C          49.3144   14.7377  -21.2098 C.3     1  UNL1        0.0391
     30 C          48.8330   13.4359  -20.5557 C.3     1  UNL1        0.0790
     31 C          47.9888   12.7417  -21.6271 C.3     1  UNL1        0.1081
     32 N          49.9044   12.5903  -19.9605 N.3     1  UNL1       -0.2723
     33 C          51.2219   13.2508  -19.7595 C.3     1  UNL1        0.0721
     34 C          52.0972   12.5005  -18.7491 C.3     1  UNL1        0.0174
     35 C          51.4236   12.4306  -17.3712 C.3     1  UNL1        0.0029
     36 C          49.8902   12.3461  -17.4582 C.3     1  UNL1        0.0174
     37 C          49.4234   11.7835  -18.8085 C.3     1  UNL1        0.0721
@<TRIPOS>BOND
     1    25    26    1
     2    26    24    1
     3    24    11    1
     4    11    12   ar
     5    12    13   ar
     6    13    14    1
     7    13    15   ar
     8    15    17    1
     9    17    18   ar
    10    18    19   ar
    11    19    20   ar
    12    20    21    1
    13    20    22   ar
    14    22    23   ar
    15    15    16   ar
    16    16     1    1
    17     1     2   ar
    18     2     3   ar
    19     3     4    1
    20     3     5   ar
    21     5     6   ar
    22     6     7   ar
    23     7     8   ar
    24     8     9   ar
    25     9    27    1
    26    27    28    1
    27    28    29    1
    28    29    30    1
    29    30    32    1
    30    32    33    1
    31    33    34    1
    32    34    35    1
    33    35    36    1
    34    36    37    1
    35    30    31    1
    36     9    10   ar
    37    16    11   ar
    38    10     1   ar
    39    23    17   ar
    40    10     5   ar
    41    31    27    1
    42    37    32    1
@<TRIPOS>MOLECULE
*****
 37 42 0 0 0
SMALL
GASTEIGER

@<TRIPOS>ATOM
      1 C          47.4814   11.5615  -26.9432 C.ar    1  UNL1        0.1093
      2 N          47.4172   10.3889  -27.6219 N.ar    1  UNL1       -0.1677
      3 N          46.8132   10.6161  -28.7821 N.ar    1  UNL1       -0.2319
      4 C          46.6405    9.6151  -29.8260 C.3     1  UNL1        0.1554
      5 C          46.5297   11.9249  -28.8631 C.ar    1  UNL1        0.1654
      6 N          46.0047   12.5809  -29.9255 N.ar    1  UNL1       -0.2050
      7 C          45.8380   13.9322  -29.8288 C.ar    1  UNL1        0.2014
      8 N          46.1845   14.5947  -28.6809 N.ar    1  UNL1       -0.2089
      9 C          46.7182   13.9421  -27.6043 C.ar    1  UNL1        0.1379
     10 C          46.9129   12.5621  -27.7222 C.ar    1  UNL1        0.0865
     11 C          47.7456   12.0903  -24.4559 C.ar    1  UNL1        0.1113
     12 N          48.7544   12.1163  -23.5608 N.ar    1  UNL1       -0.1711
     13 N          49.8659   11.7728  -24.1944 N.ar    1  UNL1       -0.2490
     14 C          51.1592   11.6577  -23.5293 C.3     1  UNL1        0.1537
     15 C          49.5942   11.5304  -25.4963 C.ar    1  UNL1        0.0806
     16 C          48.2380   11.7175  -25.6951 C.ar    1  UNL1        0.0545
     17 C          50.5668   11.0496  -26.4980 C.ar    1  UNL1        0.0174
     18 C          51.7006   11.8160  -26.8060 C.ar    1  UNL1        0.0012
     19 C          52.6312   11.3541  -27.7411 C.ar    1  UNL1       -0.0042
     20 C          52.4454   10.1143  -28.3710 C.ar    1  UNL1       -0.0218
     21 C          53.4238    9.6367  -29.4026 C.3     1  UNL1        0.0310
     22 C          51.3010    9.3575  -28.0780 C.ar    1  UNL1       -0.0042
     23 C          50.3708    9.8196  -27.1425 C.ar    1  UNL1        0.0012
     24 C          46.3344   12.5057  -24.1523 C.3     1  UNL1        0.1894
     25 C          44.1668   12.3717  -24.9639 C.3     1  UNL1        0.1747
     26 O          45.4046   11.7039  -24.8562 O.3     1  UNL1       -0.3446
     27 N          46.9762   14.6605  -26.3898 N.pl3   1  UNL1       -0.2917
     28 C          45.9410   15.4469  -25.7302 C.3     1  UNL1        0.0937
     29 C          46.6700   16.5284  -24.9410 C.3     1  UNL1        0.0391
     30 C          48.1122   16.0182  -24.8224 C.3     1  UNL1        0.0790
     31 C          48.3137   15.1110  -26.0385 C.3     1  UNL1        0.1081
     32 N          49.1478   17.0747  -24.6534 N.3     1  UNL1       -0.2723
     33 C          50.5555   16.6019  -24.5678 C.3     1  UNL1        0.0721
     34 C          51.5607   17.7211  -24.8625 C.3     1  UNL1        0.0174
     35 C          51.3694   18.2841  -26.2780 C.3     1  UNL1        0.0029
     36 C          49.9020   18.2597  -26.7385 C.3     1  UNL1        0.0174
     37 C          48.9292   18.2393  -25.5507 C.3     1  UNL1        0.0721
@<TRIPOS>BOND
     1    25    26    1
     2    26    24    1
     3    24    11    1
     4    11    12   ar
     5    12    13   ar
     6    13    14    1
     7    13    15   ar
     8    15    17    1
     9    17    18   ar
    10    18    19   ar
    11    19    20   ar
    12    20    21    1
    13    20    22   ar
    14    22    23   ar
    15    15    16   ar
    16    16     1    1
    17     1     2   ar
    18     2     3   ar
    19     3     4    1
    20     3     5   ar
    21     5     6   ar
    22     6     7   ar
    23     7     8   ar
    24     8     9   ar
    25     9    27    1
    26    27    28    1
    27    28    29    1
    28    29    30    1
    29    30    32    1
    30    32    33    1
    31    33    34    1
    32    34    35    1
    33    35    36    1
    34    36    37    1
    35    30    31    1
    36     9    10   ar
    37    16    11   ar
    38    10     1   ar
    39    23    17   ar
    40    10     5   ar
    41    31    27    1
    42    37    32    1
@<TRIPOS>MOLECULE
*****
 37 42 0 0 0
SMALL
GASTEIGER

@<TRIPOS>ATOM
      1 C          48.7801   11.3271  -23.8689 C.ar    1  UNL1        0.1093
      2 N          48.7550   10.2201  -23.0855 N.ar    1  UNL1       -0.1677
      3 N          49.5709   10.4230  -22.0581 N.ar    1  UNL1       -0.2319
      4 C          49.7404    9.4930  -20.9500 C.3     1  UNL1        0.1554
      5 C          50.0818   11.6593  -22.1605 C.ar    1  UNL1        0.1654
      6 N          50.8778   12.2891  -21.2635 N.ar    1  UNL1       -0.2050
      7 C          51.2532   13.5745  -21.5279 C.ar    1  UNL1        0.2014
      8 N          50.8404   14.1968  -22.6764 N.ar    1  UNL1       -0.2089
      9 C          50.0342   13.5707  -23.5863 C.ar    1  UNL1        0.1379
     10 C          49.6302   12.2641  -23.2940 C.ar    1  UNL1        0.0865
     11 C          46.5922   12.0618  -24.9685 C.ar    1  UNL1        0.1113
     12 N          46.0769   12.0734  -26.2151 N.ar    1  UNL1       -0.1711
     13 N          46.9833   11.5576  -27.0319 N.ar    1  UNL1       -0.2490
     14 C          46.7846   11.4435  -28.4727 C.3     1  UNL1        0.1537
     15 C          48.0824   11.2019  -26.3299 C.ar    1  UNL1        0.0806
     16 C          47.8664   11.5208  -25.0012 C.ar    1  UNL1        0.0545
     17 C          49.3298   10.6636  -26.9083 C.ar    1  UNL1        0.0174
     18 C          49.2850    9.5835  -27.8023 C.ar    1  UNL1        0.0012
     19 C          50.4633    9.0840  -28.3643 C.ar    1  UNL1       -0.0042
     20 C          51.7000    9.6663  -28.0482 C.ar    1  UNL1       -0.0218
     21 C          52.9678    9.1056  -28.6212 C.3     1  UNL1        0.0310
     22 C          51.7466   10.7332  -27.1384 C.ar    1  UNL1       -0.0042
     23 C          50.5680   11.2327  -26.5770 C.ar    1  UNL1        0.0012
     24 C          45.8398   12.4817  -23.7382 C.3     1  UNL1        0.1894
     25 C          46.3170   12.3457  -21.4735 C.3     1  UNL1        0.1747
     26 O          46.1035   11.6079  -22.6566 O.3     1  UNL1       -0.3446
     27 N          49.7060   14.2261  -24.8194 N.pl3   1  UNL1       -0.2917
     28 C          50.7371   14.6665  -25.7511 C.3     1  UNL1        0.0937
     29 C          50.1325   15.8268  -26.5334 C.3     1  UNL1        0.0391
     30 C          48.6186   15.6902  -26.3244 C.3     1  UNL1        0.0790
     31 C          48.4665   14.9693  -24.9828 C.3     1  UNL1        0.1081
     32 N          47.8441   16.9563  -26.4439 N.3     1  UNL1       -0.2723
     33 C          47.0365   17.3427  -25.2561 C.3     1  UNL1        0.0721
     34 C          46.6621   18.8291  -25.2695 C.3     1  UNL1        0.0174
     35 C          47.9129   19.7194  -25.2616 C.3     1  UNL1        0.0029
     36 C          49.0990   19.0919  -26.0135 C.3     1  UNL1        0.0174
     37 C          48.6372   18.0575  -27.0501 C.3     1  UNL1        0.0721
@<TRIPOS>BOND
     1    25    26    1
     2    26    24    1
     3    24    11    1
     4    11    12   ar
     5    12    13   ar
     6    13    14    1
     7    13    15   ar
     8    15    17    1
     9    17    18   ar
    10    18    19   ar
    11    19    20   ar
    12    20    21    1
    13    20    22   ar
    14    22    23   ar
    15    15    16   ar
    16    16     1    1
    17     1     2   ar
    18     2     3   ar
    19     3     4    1
    20     3     5   ar
    21     5     6   ar
    22     6     7   ar
    23     7     8   ar
    24     8     9   ar
    25     9    27    1
    26    27    28    1
    27    28    29    1
    28    29    30    1
    29    30    32    1
    30    32    33    1
    31    33    34    1
    32    34    35    1
    33    35    36    1
    34    36    37    1
    35    30    31    1
    36     9    10   ar
    37    16    11   ar
    38    10     1   ar
    39    23    17   ar
    40    10     5   ar
    41    31    27    1
    42    37    32    1
@<TRIPOS>MOLECULE
*****
 37 42 0 0 0
SMALL
GASTEIGER

@<TRIPOS>ATOM
      1 C          47.9669   12.5329  -25.4726 C.ar    1  UNL1        0.1093
      2 N          47.1131   12.2890  -26.4980 N.ar    1  UNL1       -0.1677
      3 N          47.0478   13.3815  -27.2494 N.ar    1  UNL1       -0.2319
      4 C          46.3016   13.4749  -28.4968 C.3     1  UNL1        0.1554
      5 C          47.8793   14.3001  -26.7348 C.ar    1  UNL1        0.1654
      6 N          48.1797   15.5123  -27.2592 N.ar    1  UNL1       -0.2050
      7 C          49.0957   16.2861  -26.6070 C.ar    1  UNL1        0.2014
      8 N          49.6802   15.8444  -25.4494 N.ar    1  UNL1       -0.2089
      9 C          49.3860   14.6211  -24.9139 C.ar    1  UNL1        0.1379
     10 C          48.4684   13.8223  -25.6038 C.ar    1  UNL1        0.0865
     11 C          47.8361   11.1434  -23.3306 C.ar    1  UNL1        0.1113
     12 N          48.5337   10.1320  -22.7738 N.ar    1  UNL1       -0.1711
     13 N          49.5290    9.8283  -23.5935 N.ar    1  UNL1       -0.2490
     14 C          50.4759    8.7498  -23.3319 C.3     1  UNL1        0.1537
     15 C          49.4930   10.6367  -24.6764 C.ar    1  UNL1        0.0806
     16 C          48.4111   11.4883  -24.5421 C.ar    1  UNL1        0.0545
     17 C          50.3956   10.5467  -25.8416 C.ar    1  UNL1        0.0174
     18 C          51.5319   11.3655  -25.9195 C.ar    1  UNL1        0.0012
     19 C          52.3968   11.2691  -27.0133 C.ar    1  UNL1       -0.0042
     20 C          52.1423   10.3442  -28.0371 C.ar    1  UNL1       -0.0218
     21 C          53.0492   10.2679  -29.2293 C.3     1  UNL1        0.0310
     22 C          50.9949    9.5398  -27.9690 C.ar    1  UNL1       -0.0042
     23 C          50.1304    9.6362  -26.8747 C.ar    1  UNL1        0.0012
     24 C          46.6800   11.8382  -22.6695 C.3     1  UNL1        0.1894
     25 C          45.8901   12.1207  -20.5082 C.3     1  UNL1        0.1747
     26 O          46.3064   11.1803  -21.4736 O.3     1  UNL1       -0.3446
     27 N          49.9490   14.2407  -23.6506 N.pl3   1  UNL1       -0.2917
     28 C          51.1928   13.4853  -23.5624 C.3     1  UNL1        0.0937
     29 C          51.1334   12.7256  -22.2420 C.3     1  UNL1        0.0391
     30 C          50.0546   13.4489  -21.4251 C.3     1  UNL1        0.0790
     31 C          49.1230   14.0761  -22.4650 C.3     1  UNL1        0.1081
     32 N          49.3717   12.6162  -20.3968 N.3     1  UNL1       -0.2723
     33 C          49.9397   11.2600  -20.1718 C.3     1  UNL1        0.0721
     34 C          49.5058   10.6668  -18.8266 C.3     1  UNL1        0.0174
     35 C          49.9735   11.5413  -17.6545 C.3     1  UNL1        0.0029
     36 C          50.0026   13.0398  -18.0003 C.3     1  UNL1        0.0174
     37 C          49.0556   13.3784  -19.1605 C.3     1  UNL1        0.0721
@<TRIPOS>BOND
     1    25    26    1
     2    26    24    1
     3    24    11    1
     4    11    12   ar
     5    12    13   ar
     6    13    14    1
     7    13    15   ar
     8    15    17    1
     9    17    18   ar
    10    18    19   ar
    11    19    20   ar
    12    20    21    1
    13    20    22   ar
    14    22    23   ar
    15    15    16   ar
    16    16     1    1
    17     1     2   ar
    18     2     3   ar
    19     3     4    1
    20     3     5   ar
    21     5     6   ar
    22     6     7   ar
    23     7     8   ar
    24     8     9   ar
    25     9    27    1
    26    27    28    1
    27    28    29    1
    28    29    30    1
    29    30    32    1
    30    32    33    1
    31    33    34    1
    32    34    35    1
    33    35    36    1
    34    36    37    1
    35    30    31    1
    36     9    10   ar
    37    16    11   ar
    38    10     1   ar
    39    23    17   ar
    40    10     5   ar
    41    31    27    1
    42    37    32    1
@<TRIPOS>MOLECULE
*****
 37 42 0 0 0
SMALL
GASTEIGER

@<TRIPOS>ATOM
      1 C          48.5892   14.4760  -22.2288 C.ar    1  UNL1        0.1093
      2 N          49.0516   14.6274  -20.9627 N.ar    1  UNL1       -0.1677
      3 N          48.7090   13.5501  -20.2667 N.ar    1  UNL1       -0.2319
      4 C          49.1082   13.3041  -18.8876 C.3     1  UNL1        0.1554
      5 C          48.0701   12.7015  -21.0863 C.ar    1  UNL1        0.1654
      6 N          47.6461   11.4489  -20.7932 N.ar    1  UNL1       -0.2050
      7 C          47.0587   10.7198  -21.7864 C.ar    1  UNL1        0.2014
      8 N          46.8970   11.2536  -23.0376 N.ar    1  UNL1       -0.2089
      9 C          47.3245   12.5157  -23.3443 C.ar    1  UNL1        0.1379
     10 C          47.9516   13.2454  -22.3292 C.ar    1  UNL1        0.0865
     11 C          48.4006   16.6535  -23.5552 C.ar    1  UNL1        0.1113
     12 N          48.9807   17.1886  -24.6492 N.ar    1  UNL1       -0.1711
     13 N          49.8620   16.3128  -25.1085 N.ar    1  UNL1       -0.2490
     14 C          50.7090   16.5683  -26.2685 C.3     1  UNL1        0.1537
     15 C          49.8576   15.2077  -24.3299 C.ar    1  UNL1        0.0806
     16 C          48.9348   15.3984  -23.3171 C.ar    1  UNL1        0.0545
     17 C          50.7597   14.0489  -24.4841 C.ar    1  UNL1        0.0174
     18 C          50.6557   13.2177  -25.6093 C.ar    1  UNL1        0.0012
     19 C          51.5204   12.1308  -25.7655 C.ar    1  UNL1       -0.0042
     20 C          52.5080   11.8687  -24.8040 C.ar    1  UNL1       -0.0218
     21 C          53.4104   10.6798  -24.9522 C.3     1  UNL1        0.0310
     22 C          52.5986   12.6879  -23.6687 C.ar    1  UNL1       -0.0042
     23 C          51.7339   13.7751  -23.5131 C.ar    1  UNL1        0.0012
     24 C          47.2784   17.2975  -22.7921 C.3     1  UNL1        0.1894
     25 C          46.2962   18.3371  -24.6167 C.3     1  UNL1        0.1747
     26 O          46.1108   17.3922  -23.5860 O.3     1  UNL1       -0.3446
     27 N          47.0481   13.0684  -24.6389 N.pl3   1  UNL1       -0.2917
     28 C          46.1686   14.2185  -24.8090 C.3     1  UNL1        0.0937
     29 C          45.6000   14.1111  -26.2194 C.3     1  UNL1        0.0391
     30 C          46.5464   13.1479  -26.9482 C.3     1  UNL1        0.0790
     31 C          47.1386   12.2645  -25.8475 C.3     1  UNL1        0.1081
     32 N          45.9418   12.4043  -28.0877 N.3     1  UNL1       -0.2723
     33 C          46.1666   12.9840  -29.4389 C.3     1  UNL1        0.0721
     34 C          45.9358   11.9582  -30.5545 C.3     1  UNL1        0.0174
     35 C          46.8922   10.7646  -30.4213 C.3     1  UNL1        0.0029
     36 C          47.2320   10.4301  -28.9589 C.3     1  UNL1        0.0174
     37 C          46.1536   10.9363  -27.9902 C.3     1  UNL1        0.0721
@<TRIPOS>BOND
     1    25    26    1
     2    26    24    1
     3    24    11    1
     4    11    12   ar
     5    12    13   ar
     6    13    14    1
     7    13    15   ar
     8    15    17    1
     9    17    18   ar
    10    18    19   ar
    11    19    20   ar
    12    20    21    1
    13    20    22   ar
    14    22    23   ar
    15    15    16   ar
    16    16     1    1
    17     1     2   ar
    18     2     3   ar
    19     3     4    1
    20     3     5   ar
    21     5     6   ar
    22     6     7   ar
    23     7     8   ar
    24     8     9   ar
    25     9    27    1
    26    27    28    1
    27    28    29    1
    28    29    30    1
    29    30    32    1
    30    32    33    1
    31    33    34    1
    32    34    35    1
    33    35    36    1
    34    36    37    1
    35    30    31    1
    36     9    10   ar
    37    16    11   ar
    38    10     1   ar
    39    23    17   ar
    40    10     5   ar
    41    31    27    1
    42    37    32    1
@<TRIPOS>MOLECULE
*****
 37 42 0 0 0
SMALL
GASTEIGER

@<TRIPOS>ATOM
      1 C          49.5961   10.8410  -25.6679 C.ar    1  UNL1        0.1093
      2 N          49.4940    9.8761  -26.6158 N.ar    1  UNL1       -0.1677
      3 N          50.6166    9.8732  -27.3243 N.ar    1  UNL1       -0.2319
      4 C          50.9190    8.9127  -28.3768 C.3     1  UNL1        0.1554
      5 C          51.4435   10.7971  -26.8120 C.ar    1  UNL1        0.1654
      6 N          52.7234   11.0408  -27.1828 N.ar    1  UNL1       -0.2050
      7 C          53.4204   11.9948  -26.4993 C.ar    1  UNL1        0.2014
      8 N          52.8291   12.6884  -25.4765 N.ar    1  UNL1       -0.2089
      9 C          51.5390   12.4474  -25.0926 C.ar    1  UNL1        0.1379
     10 C          50.8412   11.4482  -25.7786 C.ar    1  UNL1        0.0865
     11 C          48.5748   10.3591  -23.3743 C.ar    1  UNL1        0.1113
     12 N          47.5128   10.7911  -22.6635 N.ar    1  UNL1       -0.1711
     13 N          46.8757   11.6922  -23.3962 N.ar    1  UNL1       -0.2490
     14 C          45.6912   12.4050  -22.9302 C.3     1  UNL1        0.1537
     15 C          47.5065   11.8472  -24.5818 C.ar    1  UNL1        0.0806
     16 C          48.6080   11.0102  -24.5959 C.ar    1  UNL1        0.0545
     17 C          47.1337   12.8195  -25.6286 C.ar    1  UNL1        0.0174
     18 C          46.4459   12.3942  -26.7748 C.ar    1  UNL1        0.0012
     19 C          46.0768   13.3161  -27.7584 C.ar    1  UNL1       -0.0042
     20 C          46.3805   14.6769  -27.6022 C.ar    1  UNL1       -0.0218
     21 C          46.0186   15.6601  -28.6755 C.3     1  UNL1        0.0310
     22 C          47.0862   15.0990  -26.4655 C.ar    1  UNL1       -0.0042
     23 C          47.4548   14.1767  -25.4819 C.ar    1  UNL1        0.0012
     24 C          49.5029    9.2655  -22.9284 C.3     1  UNL1        0.1894
     25 C          49.5865    9.4374  -20.6179 C.3     1  UNL1        0.1747
     26 O          50.2819    9.6781  -21.8213 O.3     1  UNL1       -0.3446
     27 N          50.9307   13.2633  -24.0817 N.pl3   1  UNL1       -0.2917
     28 C          50.8723   14.7151  -24.2014 C.3     1  UNL1        0.0937
     29 C          50.7998   15.2541  -22.7772 C.3     1  UNL1        0.0391
     30 C          50.3548   14.0552  -21.9294 C.3     1  UNL1        0.0790
     31 C          50.8391   12.8236  -22.6984 C.3     1  UNL1        0.1081
     32 N          50.7675   14.1003  -20.4995 N.3     1  UNL1       -0.2723
     33 C          50.2945   12.9767  -19.6473 C.3     1  UNL1        0.0721
     34 C          51.1158   12.8413  -18.3600 C.3     1  UNL1        0.0174
     35 C          52.5951   12.5694  -18.6682 C.3     1  UNL1        0.0029
     36 C          53.0718   13.2504  -19.9624 C.3     1  UNL1        0.0174
     37 C          52.1995   14.4599  -20.3280 C.3     1  UNL1        0.0721
@<TRIPOS>BOND
     1    25    26    1
     2    26    24    1
     3    24    11    1
     4    11    12   ar
     5    12    13   ar
     6    13    14    1
     7    13    15   ar
     8    15    17    1
     9    17    18   ar
    10    18    19   ar
    11    19    20   ar
    12    20    21    1
    13    20    22   ar
    14    22    23   ar
    15    15    16   ar
    16    16     1    1
    17     1     2   ar
    18     2     3   ar
    19     3     4    1
    20     3     5   ar
    21     5     6   ar
    22     6     7   ar
    23     7     8   ar
    24     8     9   ar
    25     9    27    1
    26    27    28    1
    27    28    29    1
    28    29    30    1
    29    30    32    1
    30    32    33    1
    31    33    34    1
    32    34    35    1
    33    35    36    1
    34    36    37    1
    35    30    31    1
    36     9    10   ar
    37    16    11   ar
    38    10     1   ar
    39    23    17   ar
    40    10     5   ar
    41    31    27    1
    42    37    32    1
