@<TRIPOS>MOLECULE
*****
 38 42 0 0 0
SMALL
GASTEIGER

@<TRIPOS>ATOM
      1 C          49.9268   11.7680  -21.6153 C.2     1  UNL1        0.2506
      2 O          51.0774   11.9826  -22.0845 O.2     1  UNL1       -0.2699
      3 N          48.8549   11.3680  -22.4924 N.am    1  UNL1       -0.2680
      4 C          47.8790   10.3671  -22.0479 C.3     1  UNL1        0.1412
      5 C          46.5634   11.0455  -21.6721 C.3     1  UNL1        0.2268
      6 O          46.3154   12.1950  -22.4794 O.3     1  UNL1       -0.4739
      7 C          46.3568   12.1566  -23.8746 C.ar    1  UNL1        0.1362
      8 C          45.1757   12.4154  -24.5776 C.ar    1  UNL1        0.0366
      9 C          45.1517   12.3555  -25.9709 C.ar    1  UNL1        0.0031
     10 C          46.3158   12.0418  -26.6827 C.ar    1  UNL1        0.0004
     11 C          47.5135   11.8267  -25.9850 C.ar    1  UNL1        0.0004
     12 C          47.5515   11.8694  -24.5803 C.ar    1  UNL1        0.0317
     13 C          48.9103   11.7530  -23.9099 C.3     1  UNL1        0.1236
     14 C          46.2929   11.9989  -28.1593 C.ar    1  UNL1        0.0069
     15 C          46.5009   10.7547  -28.8110 C.ar    1  UNL1        0.0021
     16 C          46.4719   10.6614  -30.2128 C.ar    1  UNL1        0.0206
     17 C          46.2385   11.8256  -30.9343 C.ar    1  UNL1        0.0990
     18 N          46.1792   11.9617  -32.2711 N.ar    1  UNL1       -0.2241
     19 C          45.9456   13.2901  -32.4296 C.ar    1  UNL1        0.1750
     20 N          45.8620   13.9670  -31.2598 N.ar    1  UNL1       -0.3346
     21 C          46.0473   13.0278  -30.3219 C.ar    1  UNL1        0.0810
     22 C          46.0684   13.1715  -28.9313 C.ar    1  UNL1        0.0471
     23 I          45.8563   15.1012  -28.0627 I       1  UNL1       -0.0410
     24 H          45.6909   14.9888  -31.1316 H       1  UNL1        0.1675
     25 C          49.0089   13.0281  -19.6294 C.ar    1  UNL1        0.0503
     26 C          48.7814   13.0774  -18.2386 C.ar    1  UNL1        0.0328
     27 C          49.2628   12.0688  -17.3953 C.ar    1  UNL1        0.1069
     28 C          49.9724   10.9927  -17.9356 C.ar    1  UNL1        0.0186
     29 C          50.1987   10.9219  -19.3093 C.ar    1  UNL1        0.0071
     30 C          49.7090   11.9193  -20.1645 C.ar    1  UNL1        0.0667
     31 S          48.9523   12.1488  -15.6640 S.O2    1  UNL1        0.0105
     32 C          50.4971   12.0851  -14.7858 C.3     1  UNL1        0.1816
     33 O          48.2380   13.4279  -15.3273 O.2     1  UNL1       -0.1686
     34 O          48.0881   10.9906  -15.2507 O.2     1  UNL1       -0.1686
     35 N          48.5720   14.1016  -20.4936 N.pl3   1  UNL1       -0.3325
     36 H          47.5498   14.2805  -20.6122 H       1  UNL1        0.1468
     37 C          48.8457   15.4060  -22.5547 C.3     1  UNL1        0.0229
     38 C          49.4686   14.9966  -21.2249 C.3     1  UNL1        0.0871
@<TRIPOS>BOND
     1    37    38    1
     2    38    35    1
     3    35    25    1
     4    25    26   ar
     5    26    27   ar
     6    27    31    1
     7    31    32    1
     8    31    33    2
     9    31    34    2
    10    27    28   ar
    11    28    29   ar
    12    29    30   ar
    13    30     1    1
    14     1     2    2
    15     1     3   am
    16     3     4    1
    17     4     5    1
    18     5     6    1
    19     6     7    1
    20     7     8   ar
    21     8     9   ar
    22     9    10   ar
    23    10    14    1
    24    14    15   ar
    25    15    16   ar
    26    16    17   ar
    27    17    18   ar
    28    18    19   ar
    29    19    20   ar
    30    20    21   ar
    31    21    22   ar
    32    22    23    1
    33    10    11   ar
    34    11    12   ar
    35    12    13    1
    36    30    25   ar
    37    13     3    1
    38    12     7   ar
    39    22    14   ar
    40    21    17   ar
    41    35    36    1
    42    20    24    1
@<TRIPOS>MOLECULE
*****
 38 42 0 0 0
SMALL
GASTEIGER

@<TRIPOS>ATOM
      1 C          50.0724   11.7771  -21.7715 C.2     1  UNL1        0.2506
      2 O          51.2035   12.0477  -22.2588 O.2     1  UNL1       -0.2699
      3 N          48.9984   11.3556  -22.6357 N.am    1  UNL1       -0.2680
      4 C          48.0719   10.3071  -22.1956 C.3     1  UNL1        0.1412
      5 C          46.7392   10.9243  -21.7768 C.3     1  UNL1        0.2268
      6 O          46.4295   12.0815  -22.5511 O.3     1  UNL1       -0.4739
      7 C          46.4426   12.0770  -23.9474 C.ar    1  UNL1        0.1362
      8 C          45.2375   12.3053  -24.6197 C.ar    1  UNL1        0.0366
      9 C          45.1861   12.2768  -26.0132 C.ar    1  UNL1        0.0031
     10 C          46.3461   12.0256  -26.7560 C.ar    1  UNL1        0.0004
     11 C          47.5658   11.8418  -26.0882 C.ar    1  UNL1        0.0004
     12 C          47.6322   11.8534  -24.6840 C.ar    1  UNL1        0.0317
     13 C          49.0085   11.7752  -24.0445 C.3     1  UNL1        0.1236
     14 C          46.2933   12.0160  -28.2324 C.ar    1  UNL1        0.0069
     15 C          46.4854   10.7865  -28.9160 C.ar    1  UNL1        0.0021
     16 C          46.4280   10.7248  -30.3187 C.ar    1  UNL1        0.0206
     17 C          46.1826   11.9054  -31.0090 C.ar    1  UNL1        0.0990
     18 N          46.0966   12.0716  -32.3409 N.ar    1  UNL1       -0.2241
     19 C          45.8627   13.4036  -32.4647 C.ar    1  UNL1        0.1750
     20 N          45.8041   14.0542  -31.2786 N.ar    1  UNL1       -0.3346
     21 C          46.0063   13.0938  -30.3659 C.ar    1  UNL1        0.0810
     22 C          46.0558   13.2061  -28.9731 C.ar    1  UNL1        0.0471
     23 I          45.8653   15.1161  -28.0573 I       1  UNL1       -0.0410
     24 H          45.6378   15.0731  -31.1240 H       1  UNL1        0.1675
     25 C          50.2422   13.0554  -19.6009 C.ar    1  UNL1        0.0503
     26 C          49.9717   13.1163  -18.2183 C.ar    1  UNL1        0.0328
     27 C          49.3856   12.0333  -17.5522 C.ar    1  UNL1        0.1069
     28 C          49.0553   10.8771  -18.2645 C.ar    1  UNL1        0.0186
     29 C          49.3062   10.8022  -19.6337 C.ar    1  UNL1        0.0071
     30 C          49.8800   11.8861  -20.3133 C.ar    1  UNL1        0.0667
     31 S          49.0466   12.1419  -15.8278 S.O2    1  UNL1        0.0105
     32 C          50.5769   12.0963  -14.9235 C.3     1  UNL1        0.1816
     33 O          48.3245   13.4249  -15.5245 O.2     1  UNL1       -0.1686
     34 O          48.1779   10.9890  -15.4092 O.2     1  UNL1       -0.1686
     35 N          50.9087   14.1454  -20.2777 N.pl3   1  UNL1       -0.3325
     36 H          50.3943   14.6866  -21.0080 H       1  UNL1        0.1468
     37 C          53.2351   13.3924  -20.0661 C.3     1  UNL1        0.0229
     38 C          52.2792   14.5783  -20.0054 C.3     1  UNL1        0.0871
@<TRIPOS>BOND
     1    37    38    1
     2    38    35    1
     3    35    25    1
     4    25    26   ar
     5    26    27   ar
     6    27    31    1
     7    31    32    1
     8    31    33    2
     9    31    34    2
    10    27    28   ar
    11    28    29   ar
    12    29    30   ar
    13    30     1    1
    14     1     2    2
    15     1     3   am
    16     3     4    1
    17     4     5    1
    18     5     6    1
    19     6     7    1
    20     7     8   ar
    21     8     9   ar
    22     9    10   ar
    23    10    14    1
    24    14    15   ar
    25    15    16   ar
    26    16    17   ar
    27    17    18   ar
    28    18    19   ar
    29    19    20   ar
    30    20    21   ar
    31    21    22   ar
    32    22    23    1
    33    10    11   ar
    34    11    12   ar
    35    12    13    1
    36    30    25   ar
    37    13     3    1
    38    12     7   ar
    39    22    14   ar
    40    21    17   ar
    41    35    36    1
    42    20    24    1
@<TRIPOS>MOLECULE
*****
 38 42 0 0 0
SMALL
GASTEIGER

@<TRIPOS>ATOM
      1 C          46.7588   12.2989  -20.3254 C.2     1  UNL1        0.2506
      2 O          45.5330   12.0134  -20.2469 O.2     1  UNL1       -0.2699
      3 N          47.3289   12.6828  -21.5925 N.am    1  UNL1       -0.2680
      4 C          48.3393   13.7445  -21.6501 C.3     1  UNL1        0.1412
      5 C          49.7277   13.1396  -21.8474 C.3     1  UNL1        0.2268
      6 O          49.6763   11.9521  -22.6359 O.3     1  UNL1       -0.4739
      7 C          49.0422   11.9023  -23.8791 C.ar    1  UNL1        0.1362
      8 C          49.8245   11.6440  -25.0094 C.ar    1  UNL1        0.0366
      9 C          49.2490   11.6181  -26.2796 C.ar    1  UNL1        0.0031
     10 C          47.8761   11.8440  -26.4358 C.ar    1  UNL1        0.0004
     11 C          47.0793   12.0578  -25.3013 C.ar    1  UNL1        0.0004
     12 C          47.6459   12.1010  -24.0155 C.ar    1  UNL1        0.0317
     13 C          46.6980   12.2088  -22.8327 C.3     1  UNL1        0.1236
     14 C          47.2651   11.7960  -27.7801 C.ar    1  UNL1        0.0069
     15 C          47.2578   10.5633  -28.4847 C.ar    1  UNL1        0.0021
     16 C          46.6739   10.4648  -29.7591 C.ar    1  UNL1        0.0206
     17 C          46.1113   11.6126  -30.3037 C.ar    1  UNL1        0.0990
     18 N          45.5139   11.7417  -31.5018 N.ar    1  UNL1       -0.2241
     19 C          45.1685   13.0548  -31.5274 C.ar    1  UNL1        0.1750
     20 N          45.5264   13.7293  -30.4091 N.ar    1  UNL1       -0.3346
     21 C          46.1203   12.8041  -29.6426 C.ar    1  UNL1        0.0810
     22 C          46.6900   12.9525  -28.3743 C.ar    1  UNL1        0.0471
     23 I          46.7452   14.8699  -27.4559 I       1  UNL1       -0.0410
     24 H          45.3689   14.7404  -30.2031 H       1  UNL1        0.1675
     25 C          48.4385   11.1512  -18.8302 C.ar    1  UNL1        0.0503
     26 C          49.2457   11.1952  -17.6747 C.ar    1  UNL1        0.0328
     27 C          49.1831   12.2827  -16.7952 C.ar    1  UNL1        0.1069
     28 C          48.3161   13.3449  -17.0659 C.ar    1  UNL1        0.0186
     29 C          47.5176   13.3236  -18.2083 C.ar    1  UNL1        0.0071
     30 C          47.5825   12.2461  -19.1031 C.ar    1  UNL1        0.0667
     31 S          50.2123   12.3177  -15.3670 S.O2    1  UNL1        0.0105
     32 C          49.6308   13.5761  -14.2536 C.3     1  UNL1        0.1816
     33 O          50.1790   10.9835  -14.6752 O.2     1  UNL1       -0.1686
     34 O          51.6289   12.6161  -15.7711 O.2     1  UNL1       -0.1686
     35 N          48.4516    9.9994  -19.7039 N.pl3   1  UNL1       -0.3325
     36 H          47.5617    9.4838  -19.8858 H       1  UNL1        0.1468
     37 C          49.2736    8.9688  -21.7742 C.3     1  UNL1        0.0229
     38 C          49.6393    9.4899  -20.3891 C.3     1  UNL1        0.0871
@<TRIPOS>BOND
     1    37    38    1
     2    38    35    1
     3    35    25    1
     4    25    26   ar
     5    26    27   ar
     6    27    31    1
     7    31    32    1
     8    31    33    2
     9    31    34    2
    10    27    28   ar
    11    28    29   ar
    12    29    30   ar
    13    30     1    1
    14     1     2    2
    15     1     3   am
    16     3     4    1
    17     4     5    1
    18     5     6    1
    19     6     7    1
    20     7     8   ar
    21     8     9   ar
    22     9    10   ar
    23    10    14    1
    24    14    15   ar
    25    15    16   ar
    26    16    17   ar
    27    17    18   ar
    28    18    19   ar
    29    19    20   ar
    30    20    21   ar
    31    21    22   ar
    32    22    23    1
    33    10    11   ar
    34    11    12   ar
    35    12    13    1
    36    30    25   ar
    37    13     3    1
    38    12     7   ar
    39    22    14   ar
    40    21    17   ar
    41    35    36    1
    42    20    24    1
