@<TRIPOS>MOLECULE
*****
 47 52 0 0 0
SMALL
GASTEIGER

@<TRIPOS>ATOM
      1 C          -7.4173  -14.0204   27.8743 C.ar    1  UNL1        0.0702
      2 C          -8.7692  -14.3242   28.1048 C.ar    1  UNL1        0.0191
      3 C          -9.4939  -13.6080   29.0584 C.ar    1  UNL1        0.0356
      4 C          -8.8681  -12.5732   29.7640 C.ar    1  UNL1        0.1317
      5 N          -7.5615  -12.2856   29.5178 N.ar    1  UNL1       -0.2279
      6 C          -6.8362  -12.9673   28.5929 C.ar    1  UNL1        0.1149
      7 N          -9.5802  -11.8537   30.7829 N.pl3   1  UNL1       -0.2949
      8 C          -9.7668  -12.5383   32.0698 C.3     1  UNL1        0.0922
      9 C          -9.5085  -11.5916   33.2557 C.3     1  UNL1        0.0252
     10 C          -9.6199  -10.0944   32.8883 C.3     1  UNL1        0.0471
     11 C         -10.7162   -9.8978   31.8202 C.3     1  UNL1        0.0235
     12 C         -10.4133  -10.6569   30.4844 C.3     1  UNL1        0.0742
     13 C          -9.8135   -9.7696   29.3205 C.3     1  UNL1        0.0182
     14 C          -8.3740   -9.2727   29.5532 C.3     1  UNL1        0.0017
     15 C         -10.6931   -8.5270   29.0656 C.3     1  UNL1        0.0017
     16 C          -8.2780   -9.4644   32.4539 C.3     1  UNL1        0.2054
     17 O          -8.2158   -8.0777   32.7976 O.3     1  UNL1       -0.4755
     18 C          -8.2321   -6.9931   31.9014 C.ar    1  UNL1        0.1388
     19 C          -7.0033   -6.4293   31.5423 C.ar    1  UNL1        0.0369
     20 C          -6.9482   -5.3377   30.6749 C.ar    1  UNL1        0.0033
     21 C          -8.1233   -4.8024   30.1453 C.ar    1  UNL1        0.0066
     22 C          -9.3699   -5.3648   30.4675 C.ar    1  UNL1        0.0785
     23 C          -9.4183   -6.4568   31.3543 C.ar    1  UNL1        0.0433
     24 C         -10.6095   -4.7925   29.8889 C.2     1  UNL1        0.3381
     25 O         -10.5991   -3.6217   29.4240 O.2     1  UNL1       -0.2451
     26 O         -11.7948   -5.5237   29.8252 O.3     1  UNL1       -0.4771
     27 H         -11.8428   -6.5026   30.0750 H       1  UNL1        0.2954
     28 C          -7.0779  -14.9538   25.5392 C.2     1  UNL1        0.2839
     29 O          -8.2820  -14.7614   25.2200 O.2     1  UNL1       -0.2665
     30 N          -6.6413  -14.7221   26.8883 N.am    1  UNL1       -0.2766
     31 H          -5.7470  -15.1659   27.1979 H       1  UNL1        0.1553
     32 C          -4.4017  -16.6256   26.1008 C.3     1  UNL1        0.0345
     33 C          -4.9519  -16.1881   24.7766 C.ar    1  UNL1        0.0202
     34 C          -6.1208  -15.4573   24.5359 C.ar    1  UNL1        0.1946
     35 O          -6.2743  -15.2649   23.2378 O.2     1  UNL1       -0.4492
     36 C          -5.2650  -15.8329   22.6242 C.ar    1  UNL1        0.1452
     37 C          -5.0257  -15.8760   21.2553 C.ar    1  UNL1        0.0375
     38 C          -3.8739  -16.5454   20.8072 C.ar    1  UNL1        0.0031
     39 C          -2.9827  -17.1585   21.7289 C.ar    1  UNL1        0.0002
     40 C          -3.2631  -17.0910   23.1148 C.ar    1  UNL1        0.0028
     41 C          -4.4154  -16.4181   23.5243 C.ar    1  UNL1        0.0337
     42 C          -1.7689  -17.8632   21.2437 C.ar    1  UNL1        0.0000
     43 C          -1.4929  -19.1806   21.6567 C.ar    1  UNL1        0.0000
     44 C          -0.3493  -19.8417   21.1983 C.ar    1  UNL1        0.0000
     45 C           0.5294  -19.1983   20.3240 C.ar    1  UNL1        0.0000
     46 C           0.2665  -17.8918   19.9064 C.ar    1  UNL1        0.0000
     47 C          -0.8751  -17.2254   20.3624 C.ar    1  UNL1        0.0000
@<TRIPOS>BOND
     1    32    33    1
     2    33    34   ar
     3    34    28    1
     4    28    29    2
     5    28    30   am
     6    30     1    1
     7     1     2   ar
     8     2     3   ar
     9     3     4   ar
    10     4     7    1
    11     7     8    1
    12     8     9    1
    13     9    10    1
    14    10    16    1
    15    16    17    1
    16    17    18    1
    17    18    19   ar
    18    19    20   ar
    19    20    21   ar
    20    21    22   ar
    21    22    24    1
    22    24    25    2
    23    24    26    1
    24    22    23   ar
    25    10    11    1
    26    11    12    1
    27    12    13    1
    28    13    14    1
    29    13    15    1
    30     4     5   ar
    31     5     6   ar
    32    34    35   ar
    33    35    36   ar
    34    36    37   ar
    35    37    38   ar
    36    38    39   ar
    37    39    42    1
    38    42    43   ar
    39    43    44   ar
    40    44    45   ar
    41    45    46   ar
    42    46    47   ar
    43    39    40   ar
    44    40    41   ar
    45    41    33   ar
    46     6     1   ar
    47    41    36   ar
    48    12     7    1
    49    47    42   ar
    50    23    18   ar
    51    30    31    1
    52    26    27    1
@<TRIPOS>MOLECULE
*****
 47 52 0 0 0
SMALL
GASTEIGER

@<TRIPOS>ATOM
      1 C          -7.6337  -13.8631   28.0672 C.ar    1  UNL1        0.0702
      2 C          -8.9863  -14.1986   28.2431 C.ar    1  UNL1        0.0191
      3 C          -9.7550  -13.5275   29.1949 C.ar    1  UNL1        0.0356
      4 C          -9.1722  -12.5055   29.9542 C.ar    1  UNL1        0.1317
      5 N          -7.8640  -12.1866   29.7607 N.ar    1  UNL1       -0.2279
      6 C          -7.0963  -12.8241   28.8385 C.ar    1  UNL1        0.1149
      7 N          -9.9305  -11.8332   30.9719 N.pl3   1  UNL1       -0.2949
      8 C         -10.2405  -12.6031   32.1845 C.3     1  UNL1        0.0922
      9 C         -10.0357  -11.7604   33.4562 C.3     1  UNL1        0.0252
     10 C         -10.0602  -10.2364   33.1996 C.3     1  UNL1        0.0471
     11 C         -11.0640   -9.9113   32.0736 C.3     1  UNL1        0.0235
     12 C         -10.6911  -10.5812   30.7081 C.3     1  UNL1        0.0742
     13 C          -9.9706   -9.6370   29.6634 C.3     1  UNL1        0.0182
     14 C          -9.6578   -8.2173   30.1729 C.3     1  UNL1        0.0017
     15 C         -10.8156   -9.4890   28.3801 C.3     1  UNL1        0.0017
     16 C          -8.6656   -9.6366   32.9140 C.3     1  UNL1        0.2054
     17 O          -7.6632  -10.6540   32.8439 O.3     1  UNL1       -0.4755
     18 C          -6.5587  -10.6803   31.9725 C.ar    1  UNL1        0.1388
     19 C          -5.4369  -11.4162   32.3686 C.ar    1  UNL1        0.0369
     20 C          -4.2991  -11.4670   31.5626 C.ar    1  UNL1        0.0033
     21 C          -4.2730  -10.7906   30.3421 C.ar    1  UNL1        0.0066
     22 C          -5.3947  -10.0653   29.9064 C.ar    1  UNL1        0.0785
     23 C          -6.5335  -10.0070   30.7315 C.ar    1  UNL1        0.0433
     24 C          -5.3569   -9.3603   28.6024 C.2     1  UNL1        0.3381
     25 O          -4.2583   -9.2133   28.0035 O.2     1  UNL1       -0.2451
     26 O          -6.5139   -8.8657   28.0021 O.3     1  UNL1       -0.4771
     27 H          -7.4375   -9.0481   28.3714 H       1  UNL1        0.2954
     28 C          -7.2782  -14.9122   25.7843 C.2     1  UNL1        0.2839
     29 O          -8.5122  -14.9216   25.5276 O.2     1  UNL1       -0.2665
     30 N          -6.8129  -14.5176   27.0851 N.am    1  UNL1       -0.2766
     31 H          -5.8478  -14.8020   27.3684 H       1  UNL1        0.1553
     32 C          -4.6732  -16.7220   26.2439 C.3     1  UNL1        0.0345
     33 C          -5.1712  -16.1369   24.9565 C.ar    1  UNL1        0.0202
     34 C          -6.3091  -15.3464   24.7603 C.ar    1  UNL1        0.1946
     35 O          -6.4191  -15.0212   23.4845 O.2     1  UNL1       -0.4492
     36 C          -5.4111  -15.5598   22.8431 C.ar    1  UNL1        0.1452
     37 C          -5.1341  -15.4753   21.4831 C.ar    1  UNL1        0.0375
     38 C          -3.9915  -16.1360   20.9999 C.ar    1  UNL1        0.0031
     39 C          -3.1469  -16.8676   21.8780 C.ar    1  UNL1        0.0002
     40 C          -3.4647  -16.9281   23.2562 C.ar    1  UNL1        0.0028
     41 C          -4.6065  -16.2600   23.7014 C.ar    1  UNL1        0.0337
     42 C          -1.9425  -17.5618   21.3559 C.ar    1  UNL1        0.0000
     43 C          -1.0648  -16.9056   20.4719 C.ar    1  UNL1        0.0000
     44 C           0.0686  -17.5617   19.9819 C.ar    1  UNL1        0.0000
     45 C           0.3393  -18.8763   20.3679 C.ar    1  UNL1        0.0000
     46 C          -0.5232  -19.5380   21.2445 C.ar    1  UNL1        0.0000
     47 C          -1.6586  -18.8872   21.7370 C.ar    1  UNL1        0.0000
@<TRIPOS>BOND
     1    32    33    1
     2    33    34   ar
     3    34    28    1
     4    28    29    2
     5    28    30   am
     6    30     1    1
     7     1     2   ar
     8     2     3   ar
     9     3     4   ar
    10     4     7    1
    11     7     8    1
    12     8     9    1
    13     9    10    1
    14    10    16    1
    15    16    17    1
    16    17    18    1
    17    18    19   ar
    18    19    20   ar
    19    20    21   ar
    20    21    22   ar
    21    22    24    1
    22    24    25    2
    23    24    26    1
    24    22    23   ar
    25    10    11    1
    26    11    12    1
    27    12    13    1
    28    13    14    1
    29    13    15    1
    30     4     5   ar
    31     5     6   ar
    32    34    35   ar
    33    35    36   ar
    34    36    37   ar
    35    37    38   ar
    36    38    39   ar
    37    39    42    1
    38    42    43   ar
    39    43    44   ar
    40    44    45   ar
    41    45    46   ar
    42    46    47   ar
    43    39    40   ar
    44    40    41   ar
    45    41    33   ar
    46     6     1   ar
    47    41    36   ar
    48    12     7    1
    49    47    42   ar
    50    23    18   ar
    51    30    31    1
    52    26    27    1
@<TRIPOS>MOLECULE
*****
 47 52 0 0 0
SMALL
GASTEIGER

@<TRIPOS>ATOM
      1 C          -7.7263  -14.0700   27.8989 C.ar    1  UNL1        0.0702
      2 C          -9.0868  -14.4031   28.0038 C.ar    1  UNL1        0.0191
      3 C          -9.8960  -13.7520   28.9359 C.ar    1  UNL1        0.0356
      4 C          -9.3449  -12.7521   29.7464 C.ar    1  UNL1        0.1317
      5 N          -8.0281  -12.4349   29.6214 N.ar    1  UNL1       -0.2279
      6 C          -7.2211  -13.0531   28.7198 C.ar    1  UNL1        0.1149
      7 N         -10.1469  -12.1015   30.7447 N.pl3   1  UNL1       -0.2949
      8 C         -10.5147  -12.8995   31.9225 C.3     1  UNL1        0.0922
      9 C         -10.3656  -12.0892   33.2227 C.3     1  UNL1        0.0252
     10 C         -10.3731  -10.5593   33.0030 C.3     1  UNL1        0.0471
     11 C         -11.3231  -10.2022   31.8406 C.3     1  UNL1        0.0235
     12 C         -10.8903  -10.8400   30.4774 C.3     1  UNL1        0.0742
     13 C         -10.1195   -9.8738   29.4904 C.3     1  UNL1        0.0182
     14 C          -8.6066   -9.7449   29.7509 C.3     1  UNL1        0.0017
     15 C         -10.7163   -8.4508   29.5342 C.3     1  UNL1        0.0017
     16 C          -8.9649   -9.9590   32.7963 C.3     1  UNL1        0.2054
     17 O          -9.0282   -8.5542   32.5364 O.3     1  UNL1       -0.4755
     18 C          -7.9358   -7.6945   32.3186 C.ar    1  UNL1        0.1388
     19 C          -8.1121   -6.6354   31.4219 C.ar    1  UNL1        0.0369
     20 C          -7.0636   -5.7580   31.1430 C.ar    1  UNL1        0.0033
     21 C          -5.8264   -5.9221   31.7676 C.ar    1  UNL1        0.0066
     22 C          -5.6284   -6.9611   32.6926 C.ar    1  UNL1        0.0785
     23 C          -6.6865   -7.8505   32.9580 C.ar    1  UNL1        0.0433
     24 C          -4.3118   -7.1169   33.3568 C.2     1  UNL1        0.3381
     25 O          -3.3476   -6.3832   33.0122 O.2     1  UNL1       -0.2451
     26 O          -4.1096   -8.0475   34.3751 O.3     1  UNL1       -0.4771
     27 H          -4.8658   -8.5863   34.7761 H       1  UNL1        0.2954
     28 C          -7.2862  -15.1177   25.6301 C.2     1  UNL1        0.2839
     29 O          -8.5130  -15.1649   25.3446 O.2     1  UNL1       -0.2665
     30 N          -6.8636  -14.7040   26.9394 N.am    1  UNL1       -0.2766
     31 H          -5.8974  -14.9583   27.2466 H       1  UNL1        0.1553
     32 C          -4.6461  -16.8567   26.1574 C.3     1  UNL1        0.0345
     33 C          -5.1275  -16.2869   24.8569 C.ar    1  UNL1        0.0202
     34 C          -6.2808  -15.5272   24.6312 C.ar    1  UNL1        0.1946
     35 O          -6.3679  -15.2068   23.3524 O.2     1  UNL1       -0.4492
     36 C          -5.3303  -15.7191   22.7371 C.ar    1  UNL1        0.1452
     37 C          -5.0221  -15.6290   21.3843 C.ar    1  UNL1        0.0375
     38 C          -3.8507  -16.2596   20.9307 C.ar    1  UNL1        0.0031
     39 C          -3.0089  -16.9672   21.8308 C.ar    1  UNL1        0.0002
     40 C          -3.3590  -17.0344   23.2009 C.ar    1  UNL1        0.0028
     41 C          -4.5288  -16.3965   23.6164 C.ar    1  UNL1        0.0337
     42 C          -1.7738  -17.6298   21.3400 C.ar    1  UNL1        0.0000
     43 C          -1.4569  -18.9414   21.7420 C.ar    1  UNL1        0.0000
     44 C          -0.2934  -19.5628   21.2782 C.ar    1  UNL1        0.0000
     45 C           0.5647  -18.8851   20.4094 C.ar    1  UNL1        0.0000
     46 C           0.2613  -17.5839   20.0027 C.ar    1  UNL1        0.0000
     47 C          -0.9004  -16.9572   20.4641 C.ar    1  UNL1        0.0000
@<TRIPOS>BOND
     1    32    33    1
     2    33    34   ar
     3    34    28    1
     4    28    29    2
     5    28    30   am
     6    30     1    1
     7     1     2   ar
     8     2     3   ar
     9     3     4   ar
    10     4     7    1
    11     7     8    1
    12     8     9    1
    13     9    10    1
    14    10    16    1
    15    16    17    1
    16    17    18    1
    17    18    19   ar
    18    19    20   ar
    19    20    21   ar
    20    21    22   ar
    21    22    24    1
    22    24    25    2
    23    24    26    1
    24    22    23   ar
    25    10    11    1
    26    11    12    1
    27    12    13    1
    28    13    14    1
    29    13    15    1
    30     4     5   ar
    31     5     6   ar
    32    34    35   ar
    33    35    36   ar
    34    36    37   ar
    35    37    38   ar
    36    38    39   ar
    37    39    42    1
    38    42    43   ar
    39    43    44   ar
    40    44    45   ar
    41    45    46   ar
    42    46    47   ar
    43    39    40   ar
    44    40    41   ar
    45    41    33   ar
    46     6     1   ar
    47    41    36   ar
    48    12     7    1
    49    47    42   ar
    50    23    18   ar
    51    30    31    1
    52    26    27    1
@<TRIPOS>MOLECULE
*****
 47 52 0 0 0
SMALL
GASTEIGER

@<TRIPOS>ATOM
      1 C          -7.4934  -13.2641   28.7061 C.ar    1  UNL1        0.0702
      2 C          -8.8644  -13.5290   28.8589 C.ar    1  UNL1        0.0191
      3 C          -9.6029  -12.8529   29.8310 C.ar    1  UNL1        0.0356
      4 C          -8.9704  -11.8959   30.6339 C.ar    1  UNL1        0.1317
      5 N          -7.6446  -11.6444   30.4625 N.ar    1  UNL1       -0.2279
      6 C          -6.9055  -12.2881   29.5214 C.ar    1  UNL1        0.1149
      7 N          -9.6991  -11.2217   31.6719 N.pl3   1  UNL1       -0.2949
      8 C          -9.0400  -10.0701   32.3034 C.3     1  UNL1        0.0922
      9 C         -10.0173   -8.8970   32.4984 C.3     1  UNL1        0.0252
     10 C         -11.5037   -9.3206   32.4835 C.3     1  UNL1        0.0471
     11 C         -11.6565  -10.7167   33.1230 C.3     1  UNL1        0.0235
     12 C         -10.8736  -11.8326   32.3523 C.3     1  UNL1        0.0742
     13 C         -11.7457  -12.7263   31.3814 C.3     1  UNL1        0.0182
     14 C         -13.1818  -12.2225   31.1431 C.3     1  UNL1        0.0017
     15 C         -11.8479  -14.1739   31.9078 C.3     1  UNL1        0.0017
     16 C         -12.1483   -9.2598   31.0810 C.3     1  UNL1        0.2054
     17 O         -11.2443   -8.7209   30.1129 O.3     1  UNL1       -0.4755
     18 C         -10.6943   -7.4257   30.1131 C.ar    1  UNL1        0.1388
     19 C         -11.5809   -6.3441   30.1476 C.ar    1  UNL1        0.0369
     20 C         -11.1040   -5.0331   30.1279 C.ar    1  UNL1        0.0033
     21 C          -9.7310   -4.7864   30.0852 C.ar    1  UNL1        0.0066
     22 C          -8.8163   -5.8530   30.0765 C.ar    1  UNL1        0.0785
     23 C          -9.3054   -7.1728   30.0821 C.ar    1  UNL1        0.0433
     24 C          -7.3599   -5.5760   30.0419 C.2     1  UNL1        0.3381
     25 O          -6.5536   -6.5054   29.7713 O.2     1  UNL1       -0.2451
     26 O          -6.8497   -4.3013   30.2839 O.3     1  UNL1       -0.4771
     27 H          -7.4443   -3.4907   30.3945 H       1  UNL1        0.2954
     28 C          -7.2531  -14.7029   26.6297 C.2     1  UNL1        0.2839
     29 O          -8.4652  -15.0481   26.6530 O.2     1  UNL1       -0.2665
     30 N          -6.7017  -13.9255   27.7048 N.am    1  UNL1       -0.2766
     31 H          -5.6628  -13.9128   27.8187 H       1  UNL1        0.1553
     32 C          -4.8656  -16.8371   26.7612 C.3     1  UNL1        0.0345
     33 C          -5.3432  -16.0636   25.5690 C.ar    1  UNL1        0.0202
     34 C          -6.3859  -15.1319   25.5162 C.ar    1  UNL1        0.1946
     35 O          -6.5092  -14.6606   24.2880 O.2     1  UNL1       -0.4492
     36 C          -5.5999  -15.2384   23.5417 C.ar    1  UNL1        0.1452
     37 C          -5.3713  -15.0399   22.1846 C.ar    1  UNL1        0.0375
     38 C          -4.3366  -15.7707   21.5756 C.ar    1  UNL1        0.0031
     39 C          -3.5496  -16.6843   22.3277 C.ar    1  UNL1        0.0002
     40 C          -3.8150  -16.8564   23.7075 C.ar    1  UNL1        0.0028
     41 C          -4.8496  -16.1143   24.2794 C.ar    1  UNL1        0.0337
     42 C          -2.4591  -17.4511   21.6733 C.ar    1  UNL1        0.0000
     43 C          -1.5193  -16.7998   20.8518 C.ar    1  UNL1        0.0000
     44 C          -0.4935  -17.5243   20.2370 C.ar    1  UNL1        0.0000
     45 C          -0.3931  -18.9031   20.4350 C.ar    1  UNL1        0.0000
     46 C          -1.3187  -19.5608   21.2481 C.ar    1  UNL1        0.0000
     47 C          -2.3472  -18.8415   21.8646 C.ar    1  UNL1        0.0000
@<TRIPOS>BOND
     1    32    33    1
     2    33    34   ar
     3    34    28    1
     4    28    29    2
     5    28    30   am
     6    30     1    1
     7     1     2   ar
     8     2     3   ar
     9     3     4   ar
    10     4     7    1
    11     7     8    1
    12     8     9    1
    13     9    10    1
    14    10    16    1
    15    16    17    1
    16    17    18    1
    17    18    19   ar
    18    19    20   ar
    19    20    21   ar
    20    21    22   ar
    21    22    24    1
    22    24    25    2
    23    24    26    1
    24    22    23   ar
    25    10    11    1
    26    11    12    1
    27    12    13    1
    28    13    14    1
    29    13    15    1
    30     4     5   ar
    31     5     6   ar
    32    34    35   ar
    33    35    36   ar
    34    36    37   ar
    35    37    38   ar
    36    38    39   ar
    37    39    42    1
    38    42    43   ar
    39    43    44   ar
    40    44    45   ar
    41    45    46   ar
    42    46    47   ar
    43    39    40   ar
    44    40    41   ar
    45    41    33   ar
    46     6     1   ar
    47    41    36   ar
    48    12     7    1
    49    47    42   ar
    50    23    18   ar
    51    30    31    1
    52    26    27    1
@<TRIPOS>MOLECULE
*****
 47 52 0 0 0
SMALL
GASTEIGER

@<TRIPOS>ATOM
      1 C          -7.4585  -13.8395   27.9488 C.ar    1  UNL1        0.0702
      2 C          -8.7996  -14.1965   28.1658 C.ar    1  UNL1        0.0191
      3 C          -9.5698  -13.4913   29.0915 C.ar    1  UNL1        0.0356
      4 C          -9.0005  -12.4147   29.7824 C.ar    1  UNL1        0.1317
      5 N          -7.7038  -12.0762   29.5495 N.ar    1  UNL1       -0.2279
      6 C          -6.9350  -12.7463   28.6516 C.ar    1  UNL1        0.1149
      7 N          -9.7594  -11.7042   30.7736 N.pl3   1  UNL1       -0.2949
      8 C         -11.2004  -11.9858   30.8322 C.3     1  UNL1        0.0922
      9 C         -11.6885  -12.1327   32.2846 C.3     1  UNL1        0.0252
     10 C         -10.7495  -11.4770   33.3226 C.3     1  UNL1        0.0471
     11 C         -10.1177  -10.2023   32.7250 C.3     1  UNL1        0.0235
     12 C          -9.2419  -10.4884   31.4587 C.3     1  UNL1        0.0742
     13 C          -7.6816  -10.5469   31.7117 C.3     1  UNL1        0.0182
     14 C          -7.2538  -10.4242   33.1865 C.3     1  UNL1        0.0017
     15 C          -6.9540   -9.4337   30.9280 C.3     1  UNL1        0.0017
     16 C          -9.6779  -12.4399   33.8798 C.3     1  UNL1        0.2054
     17 O         -10.2610  -13.4465   34.7115 O.3     1  UNL1       -0.4755
     18 C         -11.4300  -14.1811   34.4397 C.ar    1  UNL1        0.1388
     19 C         -12.5007  -14.0498   35.3303 C.ar    1  UNL1        0.0369
     20 C         -13.6817  -14.7662   35.1328 C.ar    1  UNL1        0.0033
     21 C         -13.8113  -15.6158   34.0332 C.ar    1  UNL1        0.0066
     22 C         -12.7622  -15.7472   33.1078 C.ar    1  UNL1        0.0785
     23 C         -11.5689  -15.0322   33.3216 C.ar    1  UNL1        0.0433
     24 C         -12.9180  -16.6453   31.9381 C.2     1  UNL1        0.3381
     25 O         -13.4357  -16.2053   30.8773 O.2     1  UNL1       -0.2451
     26 O         -12.4879  -17.9711   31.9690 O.3     1  UNL1       -0.4771
     27 H         -11.9641  -18.3539   32.7448 H       1  UNL1        0.2954
     28 C          -7.1098  -14.9967   25.7176 C.2     1  UNL1        0.2839
     29 O          -8.3462  -15.0405   25.4767 O.2     1  UNL1       -0.2665
     30 N          -6.6372  -14.5287   26.9911 N.am    1  UNL1       -0.2766
     31 H          -5.6640  -14.7816   27.2767 H       1  UNL1        0.1553
     32 C          -4.5198  -16.8154   26.2240 C.3     1  UNL1        0.0345
     33 C          -5.0132  -16.2600   24.9218 C.ar    1  UNL1        0.0202
     34 C          -6.1446  -15.4654   24.7053 C.ar    1  UNL1        0.1946
     35 O          -6.2523  -15.1727   23.4214 O.2     1  UNL1       -0.4492
     36 C          -5.2489  -15.7361   22.7941 C.ar    1  UNL1        0.1452
     37 C          -4.9715  -15.6893   21.4325 C.ar    1  UNL1        0.0375
     38 C          -3.8346  -16.3718   20.9665 C.ar    1  UNL1        0.0031
     39 C          -2.9958  -17.0872   21.8633 C.ar    1  UNL1        0.0002
     40 C          -3.3138  -17.1092   23.2426 C.ar    1  UNL1        0.0028
     41 C          -4.4499  -16.4204   23.6704 C.ar    1  UNL1        0.0337
     42 C          -1.7973  -17.8048   21.3594 C.ar    1  UNL1        0.0000
     43 C          -0.9508  -17.2041   20.4081 C.ar    1  UNL1        0.0000
     44 C           0.1771  -17.8821   19.9354 C.ar    1  UNL1        0.0000
     45 C           0.4732  -19.1633   20.4058 C.ar    1  UNL1        0.0000
     46 C          -0.3582  -19.7697   21.3499 C.ar    1  UNL1        0.0000
     47 C          -1.4880  -19.0969   21.8254 C.ar    1  UNL1        0.0000
@<TRIPOS>BOND
     1    32    33    1
     2    33    34   ar
     3    34    28    1
     4    28    29    2
     5    28    30   am
     6    30     1    1
     7     1     2   ar
     8     2     3   ar
     9     3     4   ar
    10     4     7    1
    11     7     8    1
    12     8     9    1
    13     9    10    1
    14    10    16    1
    15    16    17    1
    16    17    18    1
    17    18    19   ar
    18    19    20   ar
    19    20    21   ar
    20    21    22   ar
    21    22    24    1
    22    24    25    2
    23    24    26    1
    24    22    23   ar
    25    10    11    1
    26    11    12    1
    27    12    13    1
    28    13    14    1
    29    13    15    1
    30     4     5   ar
    31     5     6   ar
    32    34    35   ar
    33    35    36   ar
    34    36    37   ar
    35    37    38   ar
    36    38    39   ar
    37    39    42    1
    38    42    43   ar
    39    43    44   ar
    40    44    45   ar
    41    45    46   ar
    42    46    47   ar
    43    39    40   ar
    44    40    41   ar
    45    41    33   ar
    46     6     1   ar
    47    41    36   ar
    48    12     7    1
    49    47    42   ar
    50    23    18   ar
    51    30    31    1
    52    26    27    1
