@<TRIPOS>MOLECULE
*****
 40 44 0 0 0
SMALL
GASTEIGER

@<TRIPOS>ATOM
      1 C          -8.9789  -10.4215   31.9967 C.3     1  UNL1        0.1332
      2 N          -9.2821  -11.6036   31.1895 N.ar    1  UNL1       -0.2977
      3 C         -10.3714  -12.4224   31.2595 C.ar    1  UNL1        0.2018
      4 N         -10.3273  -13.4681   30.3943 N.ar    1  UNL1       -0.2135
      5 C          -9.1736  -13.2665   29.7351 C.ar    1  UNL1        0.0999
      6 C          -8.6510  -14.0382   28.6891 C.ar    1  UNL1        0.0282
      7 C          -7.4416  -13.6182   28.0799 C.ar    1  UNL1        0.0888
      8 C          -6.8118  -12.4542   28.5843 C.ar    1  UNL1        0.1401
      9 C          -7.3410  -11.7237   29.6237 C.ar    1  UNL1        0.0327
     10 C          -8.5444  -12.1420   30.1995 C.ar    1  UNL1        0.0789
     11 C          -6.4542  -10.5695   29.9379 C.3     1  UNL1        0.0709
     12 C          -5.3220  -10.7056   28.8676 C.3     1  UNL1        0.1375
     13 C          -5.3344   -9.5207   27.8921 C.3     1  UNL1        0.0439
     14 C          -3.9410  -10.8454   29.5219 C.3     1  UNL1        0.0439
     15 O          -5.6246  -11.9028   28.1493 O.3     1  UNL1       -0.4824
     16 C          -6.8659  -14.3978   26.9639 C.2     1  UNL1        0.2525
     17 O          -5.6755  -14.8030   27.0557 O.2     1  UNL1       -0.2697
     18 N          -7.6446  -14.6930   25.7898 N.am    1  UNL1       -0.2803
     19 H          -8.6170  -14.3195   25.7225 H       1  UNL1        0.1552
     20 C          -7.1411  -15.4116   24.6515 C.ar    1  UNL1        0.0513
     21 C          -5.8588  -15.1604   24.1354 C.ar    1  UNL1        0.0261
     22 C          -5.3773  -15.9018   23.0528 C.ar    1  UNL1        0.0589
     23 CL         -3.7682  -15.5917   22.4261 Cl      1  UNL1       -0.0822
     24 C          -6.1679  -16.9026   22.4806 C.ar    1  UNL1        0.0153
     25 C          -7.4538  -17.1665   22.9820 C.ar    1  UNL1        0.0735
     26 C          -7.9185  -16.4352   24.0893 C.ar    1  UNL1        0.0186
     27 C          -8.2828  -18.2871   22.4060 C.3     1  UNL1        0.4186
     28 F          -7.5133  -19.4244   22.2318 F       1  UNL1       -0.1659
     29 F          -8.7903  -17.8946   21.1816 F       1  UNL1       -0.1659
     30 F          -9.3340  -18.6020   23.2498 F       1  UNL1       -0.1659
     31 N         -11.4929  -12.2168   32.1306 N.pl3   1  UNL1       -0.2814
     32 H         -11.8900  -11.2522   32.1868 H       1  UNL1        0.1551
     33 C         -12.0677  -13.2324   32.9691 C.ar    1  UNL1        0.0889
     34 C         -13.3189  -13.7695   32.6216 C.ar    1  UNL1        0.1543
     35 F         -13.9595  -13.3414   31.5047 F       1  UNL1       -0.2028
     36 C         -13.9029  -14.7678   33.4058 C.ar    1  UNL1        0.0310
     37 C         -13.2532  -15.2282   34.5516 C.ar    1  UNL1        0.0033
     38 C         -12.0235  -14.6825   34.9249 C.ar    1  UNL1        0.0128
     39 C         -11.4277  -13.6810   34.1484 C.ar    1  UNL1        0.0733
     40 CL         -9.9265  -12.9697   34.7306 Cl      1  UNL1       -0.0809
@<TRIPOS>BOND
     1     1     2    1
     2     2     3   ar
     3     3    31    1
     4    31    33    1
     5    33    34   ar
     6    34    35    1
     7    34    36   ar
     8    36    37   ar
     9    37    38   ar
    10    38    39   ar
    11    39    40    1
    12     3     4   ar
    13     4     5   ar
    14     5     6   ar
    15     6     7   ar
    16     7    16    1
    17    16    17    2
    18    16    18   am
    19    18    20    1
    20    20    21   ar
    21    21    22   ar
    22    22    23    1
    23    22    24   ar
    24    24    25   ar
    25    25    27    1
    26    27    28    1
    27    27    29    1
    28    27    30    1
    29    25    26   ar
    30     7     8   ar
    31     8     9   ar
    32     9    10   ar
    33     9    11    1
    34    11    12    1
    35    12    13    1
    36    12    14    1
    37    12    15    1
    38    10     2   ar
    39    39    33   ar
    40    10     5   ar
    41    26    20   ar
    42    15     8    1
    43    31    32    1
    44    18    19    1
@<TRIPOS>MOLECULE
*****
 40 44 0 0 0
SMALL
GASTEIGER

@<TRIPOS>ATOM
      1 C          -8.8582  -10.3735   32.1872 C.3     1  UNL1        0.1332
      2 N          -9.2161  -11.5482   31.3918 N.ar    1  UNL1       -0.2977
      3 C         -10.3114  -12.3530   31.5122 C.ar    1  UNL1        0.2018
      4 N         -10.3235  -13.3956   30.6423 N.ar    1  UNL1       -0.2135
      5 C          -9.2008  -13.2065   29.9281 C.ar    1  UNL1        0.0999
      6 C          -8.7401  -13.9807   28.8552 C.ar    1  UNL1        0.0282
      7 C          -7.5565  -13.5741   28.1891 C.ar    1  UNL1        0.0888
      8 C          -6.8873  -12.4205   28.6662 C.ar    1  UNL1        0.1401
      9 C          -7.3554  -11.6874   29.7326 C.ar    1  UNL1        0.0327
     10 C          -8.5348  -12.0922   30.3652 C.ar    1  UNL1        0.0789
     11 C          -6.4391  -10.5462   30.0072 C.3     1  UNL1        0.0709
     12 C          -5.3624  -10.6928   28.8823 C.3     1  UNL1        0.1375
     13 C          -5.4066   -9.5039   27.9127 C.3     1  UNL1        0.0439
     14 C          -3.9531  -10.8533   29.4680 C.3     1  UNL1        0.0439
     15 O          -5.7156  -11.8829   28.1756 O.3     1  UNL1       -0.4824
     16 C          -7.0463  -14.3566   27.0437 C.2     1  UNL1        0.2525
     17 O          -5.8167  -14.6315   26.9944 O.2     1  UNL1       -0.2697
     18 N          -7.9317  -14.8005   25.9991 N.am    1  UNL1       -0.2803
     19 H          -8.9397  -14.5332   26.0450 H       1  UNL1        0.1552
     20 C          -7.5022  -15.5312   24.8384 C.ar    1  UNL1        0.0513
     21 C          -8.2799  -16.5683   24.2967 C.ar    1  UNL1        0.0261
     22 C          -7.8590  -17.2359   23.1431 C.ar    1  UNL1        0.0589
     23 CL         -8.8454  -18.5186   22.4651 Cl      1  UNL1       -0.0822
     24 C          -6.6632  -16.8708   22.5180 C.ar    1  UNL1        0.0153
     25 C          -5.8712  -15.8374   23.0465 C.ar    1  UNL1        0.0735
     26 C          -6.3168  -15.1525   24.1908 C.ar    1  UNL1        0.0186
     27 C          -4.6131  -15.4011   22.3384 C.3     1  UNL1        0.4186
     28 F          -3.5349  -16.1713   22.7390 F       1  UNL1       -0.1659
     29 F          -4.3573  -14.0766   22.6401 F       1  UNL1       -0.1659
     30 F          -4.7522  -15.5325   20.9675 F       1  UNL1       -0.1659
     31 N         -11.3863  -12.1363   32.4376 N.pl3   1  UNL1       -0.2814
     32 H         -11.6160  -11.1483   32.6880 H       1  UNL1        0.1551
     33 C         -12.1271  -13.1849   33.0829 C.ar    1  UNL1        0.0889
     34 C         -13.3799  -13.5493   32.5608 C.ar    1  UNL1        0.1543
     35 F         -13.8675  -12.9268   31.4581 F       1  UNL1       -0.2028
     36 C         -14.1230  -14.5734   33.1540 C.ar    1  UNL1        0.0310
     37 C         -13.6320  -15.2322   34.2817 C.ar    1  UNL1        0.0033
     38 C         -12.4024  -14.8603   34.8285 C.ar    1  UNL1        0.0128
     39 C         -11.6480  -13.8352   34.2445 C.ar    1  UNL1        0.0733
     40 CL        -10.1555  -13.3522   35.0429 Cl      1  UNL1       -0.0809
@<TRIPOS>BOND
     1     1     2    1
     2     2     3   ar
     3     3    31    1
     4    31    33    1
     5    33    34   ar
     6    34    35    1
     7    34    36   ar
     8    36    37   ar
     9    37    38   ar
    10    38    39   ar
    11    39    40    1
    12     3     4   ar
    13     4     5   ar
    14     5     6   ar
    15     6     7   ar
    16     7    16    1
    17    16    17    2
    18    16    18   am
    19    18    20    1
    20    20    21   ar
    21    21    22   ar
    22    22    23    1
    23    22    24   ar
    24    24    25   ar
    25    25    27    1
    26    27    28    1
    27    27    29    1
    28    27    30    1
    29    25    26   ar
    30     7     8   ar
    31     8     9   ar
    32     9    10   ar
    33     9    11    1
    34    11    12    1
    35    12    13    1
    36    12    14    1
    37    12    15    1
    38    10     2   ar
    39    39    33   ar
    40    10     5   ar
    41    26    20   ar
    42    15     8    1
    43    31    32    1
    44    18    19    1
@<TRIPOS>MOLECULE
*****
 40 44 0 0 0
SMALL
GASTEIGER

@<TRIPOS>ATOM
      1 C          -9.2649  -10.5063   33.0653 C.3     1  UNL1        0.1332
      2 N          -9.4726  -11.4935   32.0055 N.ar    1  UNL1       -0.2977
      3 C         -10.5611  -12.2864   31.7858 C.ar    1  UNL1        0.2018
      4 N         -10.4175  -13.1356   30.7360 N.ar    1  UNL1       -0.2135
      5 C          -9.1972  -12.8289   30.2638 C.ar    1  UNL1        0.0999
      6 C          -8.5582  -13.3832   29.1471 C.ar    1  UNL1        0.0282
      7 C          -7.2886  -12.8739   28.7743 C.ar    1  UNL1        0.0888
      8 C          -6.7221  -11.8499   29.5722 C.ar    1  UNL1        0.1401
      9 C          -7.3668  -11.3344   30.6734 C.ar    1  UNL1        0.0327
     10 C          -8.6267  -11.8354   31.0147 C.ar    1  UNL1        0.0789
     11 C          -6.5235  -10.2868   31.3127 C.3     1  UNL1        0.0709
     12 C          -5.2775  -10.2268   30.3695 C.3     1  UNL1        0.1375
     13 C          -5.1820   -8.8688   29.6609 C.3     1  UNL1        0.0439
     14 C          -3.9789  -10.5255   31.1307 C.3     1  UNL1        0.0439
     15 O          -5.4946  -11.2469   29.3932 O.3     1  UNL1       -0.4824
     16 C          -6.5890  -13.4229   27.5938 C.2     1  UNL1        0.2525
     17 O          -5.5564  -12.8356   27.1712 O.2     1  UNL1       -0.2697
     18 N          -7.0722  -14.6070   26.9330 N.am    1  UNL1       -0.2803
     19 H          -7.9471  -15.0573   27.2811 H       1  UNL1        0.1552
     20 C          -6.4673  -15.1759   25.7599 C.ar    1  UNL1        0.0513
     21 C          -5.3199  -15.9823   25.8453 C.ar    1  UNL1        0.0261
     22 C          -4.7753  -16.5569   24.6935 C.ar    1  UNL1        0.0589
     23 CL         -3.3519  -17.5757   24.8127 Cl      1  UNL1       -0.0822
     24 C          -5.3734  -16.3368   23.4494 C.ar    1  UNL1        0.0153
     25 C          -6.5201  -15.5315   23.3443 C.ar    1  UNL1        0.0735
     26 C          -7.0775  -14.9811   24.5119 C.ar    1  UNL1        0.0186
     27 C          -7.2022  -15.3441   22.0122 C.3     1  UNL1        0.4186
     28 F          -8.2593  -14.4577   22.1251 F       1  UNL1       -0.1659
     29 F          -7.6817  -16.5632   21.5712 F       1  UNL1       -0.1659
     30 F          -6.3160  -14.8422   21.0747 F       1  UNL1       -0.1659
     31 N         -11.7743  -12.2382   32.5505 N.pl3   1  UNL1       -0.2814
     32 H         -12.1323  -11.2971   32.8291 H       1  UNL1        0.1551
     33 C         -12.4956  -13.3952   33.0043 C.ar    1  UNL1        0.0889
     34 C         -13.7007  -13.7352   32.3666 C.ar    1  UNL1        0.1543
     35 F         -14.1607  -12.9873   31.3322 F       1  UNL1       -0.2028
     36 C         -14.4227  -14.8609   32.7721 C.ar    1  UNL1        0.0310
     37 C         -13.9589  -15.6480   33.8266 C.ar    1  UNL1        0.0033
     38 C         -12.7785  -15.3050   34.4885 C.ar    1  UNL1        0.0128
     39 C         -12.0457  -14.1791   34.0928 C.ar    1  UNL1        0.0733
     40 CL        -10.6213  -13.7499   35.0337 Cl      1  UNL1       -0.0809
@<TRIPOS>BOND
     1     1     2    1
     2     2     3   ar
     3     3    31    1
     4    31    33    1
     5    33    34   ar
     6    34    35    1
     7    34    36   ar
     8    36    37   ar
     9    37    38   ar
    10    38    39   ar
    11    39    40    1
    12     3     4   ar
    13     4     5   ar
    14     5     6   ar
    15     6     7   ar
    16     7    16    1
    17    16    17    2
    18    16    18   am
    19    18    20    1
    20    20    21   ar
    21    21    22   ar
    22    22    23    1
    23    22    24   ar
    24    24    25   ar
    25    25    27    1
    26    27    28    1
    27    27    29    1
    28    27    30    1
    29    25    26   ar
    30     7     8   ar
    31     8     9   ar
    32     9    10   ar
    33     9    11    1
    34    11    12    1
    35    12    13    1
    36    12    14    1
    37    12    15    1
    38    10     2   ar
    39    39    33   ar
    40    10     5   ar
    41    26    20   ar
    42    15     8    1
    43    31    32    1
    44    18    19    1
@<TRIPOS>MOLECULE
*****
 40 44 0 0 0
SMALL
GASTEIGER

@<TRIPOS>ATOM
      1 C          -9.2508  -10.0041   34.1827 C.3     1  UNL1        0.1332
      2 N          -8.5130  -10.2934   32.9529 N.ar    1  UNL1       -0.2977
      3 C          -7.3281   -9.7651   32.5299 C.ar    1  UNL1        0.2018
      4 N          -6.9327  -10.2131   31.3105 N.ar    1  UNL1       -0.2135
      5 C          -7.9008  -11.0848   30.9802 C.ar    1  UNL1        0.0999
      6 C          -7.9704  -11.8742   29.8249 C.ar    1  UNL1        0.0282
      7 C          -9.0497  -12.7839   29.6932 C.ar    1  UNL1        0.0888
      8 C         -10.0169  -12.8229   30.7273 C.ar    1  UNL1        0.1401
      9 C          -9.9308  -12.0244   31.8449 C.ar    1  UNL1        0.0327
     10 C          -8.8490  -11.1471   31.9667 C.ar    1  UNL1        0.0789
     11 C         -11.0911  -12.2788   32.7428 C.3     1  UNL1        0.0709
     12 C         -11.8648  -13.4109   31.9907 C.3     1  UNL1        0.1375
     13 C         -11.8599  -14.7171   32.7966 C.3     1  UNL1        0.0439
     14 C         -13.3038  -12.9895   31.6638 C.3     1  UNL1        0.0439
     15 O         -11.1466  -13.6131   30.7725 O.3     1  UNL1       -0.4824
     16 C          -9.1503  -13.6440   28.4955 C.2     1  UNL1        0.2525
     17 O         -10.2494  -13.7042   27.8805 O.2     1  UNL1       -0.2697
     18 N          -8.0176  -14.4026   28.0333 N.am    1  UNL1       -0.2803
     19 H          -7.1276  -14.3620   28.5773 H       1  UNL1        0.1552
     20 C          -8.0509  -15.2874   26.9012 C.ar    1  UNL1        0.0513
     21 C          -8.8919  -16.4126   26.8757 C.ar    1  UNL1        0.0261
     22 C          -8.9354  -17.2342   25.7458 C.ar    1  UNL1        0.0589
     23 CL        -10.0009  -18.6277   25.7174 Cl      1  UNL1       -0.0822
     24 C          -8.1457  -16.9371   24.6313 C.ar    1  UNL1        0.0153
     25 C          -7.2970  -15.8171   24.6394 C.ar    1  UNL1        0.0735
     26 C          -7.2812  -14.9804   25.7693 C.ar    1  UNL1        0.0186
     27 C          -6.4917  -15.4603   23.4152 C.3     1  UNL1        0.4186
     28 F          -5.3890  -14.6984   23.7608 F       1  UNL1       -0.1659
     29 F          -7.2843  -14.7365   22.5443 F       1  UNL1       -0.1659
     30 F          -6.0436  -16.6024   22.7740 F       1  UNL1       -0.1659
     31 N          -6.5293   -8.8428   33.2849 N.pl3   1  UNL1       -0.2814
     32 H          -6.6216   -8.8637   34.3254 H       1  UNL1        0.1551
     33 C          -5.6570   -7.8591   32.7051 C.ar    1  UNL1        0.0889
     34 C          -4.4587   -7.5421   33.3670 C.ar    1  UNL1        0.1543
     35 F          -4.1317   -8.1690   34.5251 F       1  UNL1       -0.2028
     36 C          -3.5795   -6.6000   32.8264 C.ar    1  UNL1        0.0310
     37 C          -3.8941   -5.9538   31.6304 C.ar    1  UNL1        0.0033
     38 C          -5.0952   -6.2374   30.9776 C.ar    1  UNL1        0.0128
     39 C          -5.9855   -7.1787   31.5089 C.ar    1  UNL1        0.0733
     40 CL         -7.5239   -7.4145   30.6866 Cl      1  UNL1       -0.0809
@<TRIPOS>BOND
     1     1     2    1
     2     2     3   ar
     3     3    31    1
     4    31    33    1
     5    33    34   ar
     6    34    35    1
     7    34    36   ar
     8    36    37   ar
     9    37    38   ar
    10    38    39   ar
    11    39    40    1
    12     3     4   ar
    13     4     5   ar
    14     5     6   ar
    15     6     7   ar
    16     7    16    1
    17    16    17    2
    18    16    18   am
    19    18    20    1
    20    20    21   ar
    21    21    22   ar
    22    22    23    1
    23    22    24   ar
    24    24    25   ar
    25    25    27    1
    26    27    28    1
    27    27    29    1
    28    27    30    1
    29    25    26   ar
    30     7     8   ar
    31     8     9   ar
    32     9    10   ar
    33     9    11    1
    34    11    12    1
    35    12    13    1
    36    12    14    1
    37    12    15    1
    38    10     2   ar
    39    39    33   ar
    40    10     5   ar
    41    26    20   ar
    42    15     8    1
    43    31    32    1
    44    18    19    1
@<TRIPOS>MOLECULE
*****
 40 44 0 0 0
SMALL
GASTEIGER

@<TRIPOS>ATOM
      1 C          -9.0916  -14.3364   28.1556 C.3     1  UNL1        0.1332
      2 N          -7.7526  -14.3180   27.5662 N.ar    1  UNL1       -0.2977
      3 C          -6.6380  -13.6693   28.0121 C.ar    1  UNL1        0.2018
      4 N          -5.5569  -13.8191   27.2042 N.ar    1  UNL1       -0.2135
      5 C          -6.0154  -14.6262   26.2322 C.ar    1  UNL1        0.0999
      6 C          -5.2928  -15.1382   25.1466 C.ar    1  UNL1        0.0282
      7 C          -5.9478  -16.0305   24.2608 C.ar    1  UNL1        0.0888
      8 C          -7.3096  -16.3324   24.5069 C.ar    1  UNL1        0.1401
      9 C          -7.9989  -15.8025   25.5737 C.ar    1  UNL1        0.0327
     10 C          -7.3313  -14.9394   26.4480 C.ar    1  UNL1        0.0789
     11 C          -9.4058  -16.2900   25.5635 C.3     1  UNL1        0.0709
     12 C          -9.4271  -17.2496   24.3287 C.3     1  UNL1        0.1375
     13 C          -9.6732  -18.7023   24.7584 C.3     1  UNL1        0.0439
     14 C         -10.4726  -16.8136   23.2935 C.3     1  UNL1        0.0439
     15 O          -8.1243  -17.1496   23.7513 O.3     1  UNL1       -0.4824
     16 C          -5.2151  -16.6030   23.1119 C.2     1  UNL1        0.2525
     17 O          -5.3728  -16.0875   21.9721 O.2     1  UNL1       -0.2697
     18 N          -4.3353  -17.7293   23.2837 N.am    1  UNL1       -0.2803
     19 H          -4.2458  -18.1595   24.2305 H       1  UNL1        0.1552
     20 C          -3.6206  -18.3618   22.2091 C.ar    1  UNL1        0.0513
     21 C          -4.1973  -19.3983   21.4561 C.ar    1  UNL1        0.0261
     22 C          -3.4963  -19.9688   20.3899 C.ar    1  UNL1        0.0589
     23 CL         -4.2316  -21.2515   19.4454 Cl      1  UNL1       -0.0822
     24 C          -2.2183  -19.5064   20.0629 C.ar    1  UNL1        0.0153
     25 C          -1.6246  -18.4721   20.8060 C.ar    1  UNL1        0.0735
     26 C          -2.3487  -17.8850   21.8586 C.ar    1  UNL1        0.0186
     27 C          -0.2723  -17.9303   20.4156 C.3     1  UNL1        0.4186
     28 F           0.6220  -18.0460   21.4657 F       1  UNL1       -0.1659
     29 F          -0.3976  -16.5964   20.0755 F       1  UNL1       -0.1659
     30 F           0.2398  -18.6253   19.3335 F       1  UNL1       -0.1659
     31 N          -6.5650  -12.9139   29.2298 N.pl3   1  UNL1       -0.2814
     32 H          -6.3775  -13.4391   30.1132 H       1  UNL1        0.1551
     33 C          -6.7872  -11.4972   29.3220 C.ar    1  UNL1        0.0889
     34 C          -5.8277  -10.6245   28.7812 C.ar    1  UNL1        0.1543
     35 F          -4.7209  -11.1193   28.1718 F       1  UNL1       -0.2028
     36 C          -6.0161   -9.2411   28.8407 C.ar    1  UNL1        0.0310
     37 C          -7.1538   -8.7149   29.4536 C.ar    1  UNL1        0.0033
     38 C          -8.1007   -9.5696   30.0211 C.ar    1  UNL1        0.0128
     39 C          -7.9237  -10.9577   29.9692 C.ar    1  UNL1        0.0733
     40 CL         -9.1059  -11.9710   30.7903 Cl      1  UNL1       -0.0809
@<TRIPOS>BOND
     1     1     2    1
     2     2     3   ar
     3     3    31    1
     4    31    33    1
     5    33    34   ar
     6    34    35    1
     7    34    36   ar
     8    36    37   ar
     9    37    38   ar
    10    38    39   ar
    11    39    40    1
    12     3     4   ar
    13     4     5   ar
    14     5     6   ar
    15     6     7   ar
    16     7    16    1
    17    16    17    2
    18    16    18   am
    19    18    20    1
    20    20    21   ar
    21    21    22   ar
    22    22    23    1
    23    22    24   ar
    24    24    25   ar
    25    25    27    1
    26    27    28    1
    27    27    29    1
    28    27    30    1
    29    25    26   ar
    30     7     8   ar
    31     8     9   ar
    32     9    10   ar
    33     9    11    1
    34    11    12    1
    35    12    13    1
    36    12    14    1
    37    12    15    1
    38    10     2   ar
    39    39    33   ar
    40    10     5   ar
    41    26    20   ar
    42    15     8    1
    43    31    32    1
    44    18    19    1
@<TRIPOS>MOLECULE
*****
 40 44 0 0 0
SMALL
GASTEIGER

@<TRIPOS>ATOM
      1 C         -12.0797   -9.4092   33.1822 C.3     1  UNL1        0.1332
      2 N         -11.1621   -9.6495   32.0682 N.ar    1  UNL1       -0.2977
      3 C         -10.3805   -8.7501   31.4034 C.ar    1  UNL1        0.2018
      4 N          -9.6728   -9.2913   30.3786 N.ar    1  UNL1       -0.2135
      5 C         -10.0062  -10.5921   30.4347 C.ar    1  UNL1        0.0999
      6 C          -9.5242  -11.6249   29.6201 C.ar    1  UNL1        0.0282
      7 C          -9.9553  -12.9495   29.8842 C.ar    1  UNL1        0.0888
      8 C         -10.8754  -13.1513   30.9419 C.ar    1  UNL1        0.1401
      9 C         -11.3436  -12.1148   31.7168 C.ar    1  UNL1        0.0327
     10 C         -10.8927  -10.8177   31.4543 C.ar    1  UNL1        0.0789
     11 C         -12.3007  -12.6317   32.7338 C.3     1  UNL1        0.0709
     12 C         -12.2860  -14.1726   32.4665 C.3     1  UNL1        0.1375
     13 C         -11.7005  -14.9380   33.6611 C.3     1  UNL1        0.0439
     14 C         -13.6868  -14.6997   32.1280 C.3     1  UNL1        0.0439
     15 O         -11.4313  -14.3507   31.3357 O.3     1  UNL1       -0.4824
     16 C          -9.4583  -14.0681   29.0558 C.2     1  UNL1        0.2525
     17 O          -9.7753  -15.2467   29.3721 O.2     1  UNL1       -0.2697
     18 N          -8.6264  -13.8239   27.9067 N.am    1  UNL1       -0.2803
     19 H          -8.3505  -12.8422   27.6834 H       1  UNL1        0.1552
     20 C          -8.0761  -14.8612   27.0781 C.ar    1  UNL1        0.0513
     21 C          -6.7059  -15.1707   27.1052 C.ar    1  UNL1        0.0261
     22 C          -6.2030  -16.2115   26.3195 C.ar    1  UNL1        0.0589
     23 CL         -4.4931  -16.6009   26.3728 Cl      1  UNL1       -0.0822
     24 C          -7.0627  -16.9551   25.5059 C.ar    1  UNL1        0.0153
     25 C          -8.4357  -16.6587   25.4642 C.ar    1  UNL1        0.0735
     26 C          -8.9370  -15.6286   26.2794 C.ar    1  UNL1        0.0186
     27 C          -9.3736  -17.4996   24.6349 C.3     1  UNL1        0.4186
     28 F          -8.6882  -18.1309   23.6114 F       1  UNL1       -0.1659
     29 F         -10.3504  -16.6878   24.0892 F       1  UNL1       -0.1659
     30 F          -9.9781  -18.4714   25.4135 F       1  UNL1       -0.1659
     31 N         -10.2660   -7.3604   31.7419 N.pl3   1  UNL1       -0.2814
     32 H         -11.0338   -6.9371   32.3099 H       1  UNL1        0.1551
     33 C          -9.1984   -6.5030   31.3060 C.ar    1  UNL1        0.0889
     34 C          -7.9021   -6.7319   31.7976 C.ar    1  UNL1        0.1543
     35 F          -7.6685   -7.7556   32.6571 F       1  UNL1       -0.2028
     36 C          -6.8367   -5.9267   31.3860 C.ar    1  UNL1        0.0310
     37 C          -7.0564   -4.8766   30.4939 C.ar    1  UNL1        0.0033
     38 C          -8.3444   -4.6193   30.0206 C.ar    1  UNL1        0.0128
     39 C          -9.4210   -5.4180   30.4256 C.ar    1  UNL1        0.0733
     40 CL        -11.0310   -4.9766   29.8677 Cl      1  UNL1       -0.0809
@<TRIPOS>BOND
     1     1     2    1
     2     2     3   ar
     3     3    31    1
     4    31    33    1
     5    33    34   ar
     6    34    35    1
     7    34    36   ar
     8    36    37   ar
     9    37    38   ar
    10    38    39   ar
    11    39    40    1
    12     3     4   ar
    13     4     5   ar
    14     5     6   ar
    15     6     7   ar
    16     7    16    1
    17    16    17    2
    18    16    18   am
    19    18    20    1
    20    20    21   ar
    21    21    22   ar
    22    22    23    1
    23    22    24   ar
    24    24    25   ar
    25    25    27    1
    26    27    28    1
    27    27    29    1
    28    27    30    1
    29    25    26   ar
    30     7     8   ar
    31     8     9   ar
    32     9    10   ar
    33     9    11    1
    34    11    12    1
    35    12    13    1
    36    12    14    1
    37    12    15    1
    38    10     2   ar
    39    39    33   ar
    40    10     5   ar
    41    26    20   ar
    42    15     8    1
    43    31    32    1
    44    18    19    1
@<TRIPOS>MOLECULE
*****
 40 44 0 0 0
SMALL
GASTEIGER

@<TRIPOS>ATOM
      1 C         -12.3393   -9.0004   32.9079 C.3     1  UNL1        0.1332
      2 N         -11.4659   -9.3283   31.7809 N.ar    1  UNL1       -0.2977
      3 C         -10.7632   -8.4789   30.9768 C.ar    1  UNL1        0.2018
      4 N         -10.0798   -9.1041   29.9837 N.ar    1  UNL1       -0.2135
      5 C         -10.3448  -10.4029   30.2057 C.ar    1  UNL1        0.0999
      6 C          -9.8520  -11.5013   29.4894 C.ar    1  UNL1        0.0282
      7 C         -10.2033  -12.8038   29.9255 C.ar    1  UNL1        0.0888
      8 C         -11.0599  -12.9214   31.0473 C.ar    1  UNL1        0.1401
      9 C         -11.5411  -11.8233   31.7231 C.ar    1  UNL1        0.0327
     10 C         -11.1686  -10.5470   31.2905 C.ar    1  UNL1        0.0789
     11 C         -12.4209  -12.2598   32.8424 C.3     1  UNL1        0.0709
     12 C         -12.3424  -13.8192   32.7521 C.3     1  UNL1        0.1375
     13 C         -11.6624  -14.4139   33.9928 C.3     1  UNL1        0.0439
     14 C         -13.7300  -14.4432   32.5518 C.3     1  UNL1        0.0439
     15 O         -11.5357  -14.0900   31.6047 O.3     1  UNL1       -0.4824
     16 C          -9.6918  -13.9883   29.2045 C.2     1  UNL1        0.2525
     17 O          -9.9180  -15.1341   29.6797 O.2     1  UNL1       -0.2697
     18 N          -8.9476  -13.8441   27.9808 N.am    1  UNL1       -0.2803
     19 H          -8.7449  -12.8844   27.6239 H       1  UNL1        0.1552
     20 C          -8.3879  -14.9454   27.2463 C.ar    1  UNL1        0.0513
     21 C          -9.1681  -16.0564   26.8844 C.ar    1  UNL1        0.0261
     22 C          -8.6097  -17.0954   26.1347 C.ar    1  UNL1        0.0589
     23 CL         -9.5966  -18.4708   25.6739 Cl      1  UNL1       -0.0822
     24 C          -7.2716  -17.0320   25.7353 C.ar    1  UNL1        0.0153
     25 C          -6.4753  -15.9297   26.0897 C.ar    1  UNL1        0.0735
     26 C          -7.0534  -14.8761   26.8195 C.ar    1  UNL1        0.0186
     27 C          -5.0499  -15.8307   25.6069 C.3     1  UNL1        0.4186
     28 F          -4.2718  -16.8252   26.1740 F       1  UNL1       -0.1659
     29 F          -4.5341  -14.5982   25.9613 F       1  UNL1       -0.1659
     30 F          -4.9885  -15.9664   24.2307 F       1  UNL1       -0.1659
     31 N         -10.7018   -7.0556   31.1480 N.pl3   1  UNL1       -0.2814
     32 H         -11.5862   -6.5615   31.4033 H       1  UNL1        0.1551
     33 C          -9.5226   -6.2617   30.9376 C.ar    1  UNL1        0.0889
     34 C          -9.6104   -5.1221   30.1202 C.ar    1  UNL1        0.1543
     35 F         -10.7946   -4.7765   29.5550 F       1  UNL1       -0.2028
     36 C          -8.4877   -4.3187   29.9033 C.ar    1  UNL1        0.0310
     37 C          -7.2645   -4.6526   30.4856 C.ar    1  UNL1        0.0033
     38 C          -7.1561   -5.7984   31.2759 C.ar    1  UNL1        0.0128
     39 C          -8.2730   -6.6126   31.5006 C.ar    1  UNL1        0.0733
     40 CL         -8.0419   -8.0928   32.4247 Cl      1  UNL1       -0.0809
@<TRIPOS>BOND
     1     1     2    1
     2     2     3   ar
     3     3    31    1
     4    31    33    1
     5    33    34   ar
     6    34    35    1
     7    34    36   ar
     8    36    37   ar
     9    37    38   ar
    10    38    39   ar
    11    39    40    1
    12     3     4   ar
    13     4     5   ar
    14     5     6   ar
    15     6     7   ar
    16     7    16    1
    17    16    17    2
    18    16    18   am
    19    18    20    1
    20    20    21   ar
    21    21    22   ar
    22    22    23    1
    23    22    24   ar
    24    24    25   ar
    25    25    27    1
    26    27    28    1
    27    27    29    1
    28    27    30    1
    29    25    26   ar
    30     7     8   ar
    31     8     9   ar
    32     9    10   ar
    33     9    11    1
    34    11    12    1
    35    12    13    1
    36    12    14    1
    37    12    15    1
    38    10     2   ar
    39    39    33   ar
    40    10     5   ar
    41    26    20   ar
    42    15     8    1
    43    31    32    1
    44    18    19    1
@<TRIPOS>MOLECULE
*****
 40 44 0 0 0
SMALL
GASTEIGER

@<TRIPOS>ATOM
      1 C          -9.2717  -10.1473   34.1368 C.3     1  UNL1        0.1332
      2 N          -8.5087  -10.3901   32.9122 N.ar    1  UNL1       -0.2977
      3 C          -7.3313   -9.8232   32.5195 C.ar    1  UNL1        0.2018
      4 N          -6.9068  -10.2331   31.2965 N.ar    1  UNL1       -0.2135
      5 C          -7.8479  -11.1206   30.9317 C.ar    1  UNL1        0.0999
      6 C          -7.8807  -11.8846   29.7579 C.ar    1  UNL1        0.0282
      7 C          -8.9349  -12.8174   29.5892 C.ar    1  UNL1        0.0888
      8 C          -9.9160  -12.9039   30.6071 C.ar    1  UNL1        0.1401
      9 C          -9.8663  -12.1295   31.7437 C.ar    1  UNL1        0.0327
     10 C          -8.8088  -11.2288   31.9019 C.ar    1  UNL1        0.0789
     11 C         -11.0331  -12.4330   32.6177 C.3     1  UNL1        0.0709
     12 C         -11.7672  -13.5662   31.8284 C.3     1  UNL1        0.1375
     13 C         -11.7415  -14.8900   32.6045 C.3     1  UNL1        0.0439
     14 C         -13.2112  -13.1729   31.4891 C.3     1  UNL1        0.0439
     15 O         -11.0261  -13.7225   30.6171 O.3     1  UNL1       -0.4824
     16 C          -8.9963  -13.6520   28.3709 C.2     1  UNL1        0.2525
     17 O         -10.1147  -13.8454   27.8219 O.2     1  UNL1       -0.2697
     18 N          -7.8042  -14.2370   27.8152 N.am    1  UNL1       -0.2803
     19 H          -6.8945  -14.0897   28.3054 H       1  UNL1        0.1552
     20 C          -7.7916  -15.0886   26.6575 C.ar    1  UNL1        0.0513
     21 C          -6.8031  -14.9633   25.6669 C.ar    1  UNL1        0.0261
     22 C          -6.7897  -15.8310   24.5713 C.ar    1  UNL1        0.0589
     23 CL         -5.5415  -15.6769   23.3480 Cl      1  UNL1       -0.0822
     24 C          -7.7576  -16.8332   24.4579 C.ar    1  UNL1        0.0153
     25 C          -8.7552  -16.9723   25.4377 C.ar    1  UNL1        0.0735
     26 C          -8.7437  -16.1133   26.5508 C.ar    1  UNL1        0.0186
     27 C          -9.7621  -18.0917   25.3489 C.3     1  UNL1        0.4186
     28 F         -10.1651  -18.4877   26.6125 F       1  UNL1       -0.1659
     29 F          -9.1883  -19.1693   24.7006 F       1  UNL1       -0.1659
     30 F         -10.8833  -17.6869   24.6451 F       1  UNL1       -0.1659
     31 N          -6.5670   -8.8991   33.3074 N.pl3   1  UNL1       -0.2814
     32 H          -6.6851   -8.9363   34.3447 H       1  UNL1        0.1551
     33 C          -5.6967   -7.8932   32.7636 C.ar    1  UNL1        0.0889
     34 C          -4.5097   -7.5825   33.4484 C.ar    1  UNL1        0.1543
     35 F          -4.1914   -8.2356   34.5945 F       1  UNL1       -0.2028
     36 C          -3.6326   -6.6192   32.9430 C.ar    1  UNL1        0.0310
     37 C          -3.9382   -5.9457   31.7598 C.ar    1  UNL1        0.0033
     38 C          -5.1283   -6.2233   31.0848 C.ar    1  UNL1        0.0128
     39 C          -6.0165   -7.1857   31.5809 C.ar    1  UNL1        0.0733
     40 CL         -7.5423   -7.4143   30.7335 Cl      1  UNL1       -0.0809
@<TRIPOS>BOND
     1     1     2    1
     2     2     3   ar
     3     3    31    1
     4    31    33    1
     5    33    34   ar
     6    34    35    1
     7    34    36   ar
     8    36    37   ar
     9    37    38   ar
    10    38    39   ar
    11    39    40    1
    12     3     4   ar
    13     4     5   ar
    14     5     6   ar
    15     6     7   ar
    16     7    16    1
    17    16    17    2
    18    16    18   am
    19    18    20    1
    20    20    21   ar
    21    21    22   ar
    22    22    23    1
    23    22    24   ar
    24    24    25   ar
    25    25    27    1
    26    27    28    1
    27    27    29    1
    28    27    30    1
    29    25    26   ar
    30     7     8   ar
    31     8     9   ar
    32     9    10   ar
    33     9    11    1
    34    11    12    1
    35    12    13    1
    36    12    14    1
    37    12    15    1
    38    10     2   ar
    39    39    33   ar
    40    10     5   ar
    41    26    20   ar
    42    15     8    1
    43    31    32    1
    44    18    19    1
@<TRIPOS>MOLECULE
*****
 40 44 0 0 0
SMALL
GASTEIGER

@<TRIPOS>ATOM
      1 C         -10.5614   -9.8963   33.6074 C.3     1  UNL1        0.1332
      2 N          -9.7344  -10.2053   32.4407 N.ar    1  UNL1       -0.2977
      3 C          -8.7305   -9.4622   31.8913 C.ar    1  UNL1        0.2018
      4 N          -8.1885  -10.0135   30.7750 N.ar    1  UNL1       -0.2135
      5 C          -8.8655  -11.1676   30.6486 C.ar    1  UNL1        0.0999
      6 C          -8.6771  -12.1567   29.6745 C.ar    1  UNL1        0.0282
      7 C          -9.4566  -13.3384   29.7532 C.ar    1  UNL1        0.0888
      8 C         -10.4064  -13.4404   30.7990 C.ar    1  UNL1        0.1401
      9 C         -10.5802  -12.4456   31.7339 C.ar    1  UNL1        0.0327
     10 C          -9.7892  -11.2957   31.6519 C.ar    1  UNL1        0.0789
     11 C         -11.6515  -12.8308   32.6938 C.3     1  UNL1        0.0709
     12 C         -12.0564  -14.2587   32.2007 C.3     1  UNL1        0.1375
     13 C         -11.7137  -15.3263   33.2487 C.3     1  UNL1        0.0439
     14 C         -13.5449  -14.3277   31.8338 C.3     1  UNL1        0.0439
     15 O         -11.2728  -14.4889   31.0286 O.3     1  UNL1       -0.4824
     16 C          -9.2770  -14.4110   28.7524 C.2     1  UNL1        0.2525
     17 O          -9.7401  -15.5574   28.9997 O.2     1  UNL1       -0.2697
     18 N          -8.5865  -14.1588   27.5147 N.am    1  UNL1       -0.2803
     19 H          -8.1836  -13.2107   27.3462 H       1  UNL1        0.1552
     20 C          -8.3413  -15.1597   26.5130 C.ar    1  UNL1        0.0513
     21 C          -9.1275  -16.3212   26.4303 C.ar    1  UNL1        0.0261
     22 C          -8.8942  -17.2596   25.4212 C.ar    1  UNL1        0.0589
     23 CL         -9.8921  -18.6988   25.3165 Cl      1  UNL1       -0.0822
     24 C          -7.8797  -17.0446   24.4839 C.ar    1  UNL1        0.0153
     25 C          -7.0818  -15.8898   24.5520 C.ar    1  UNL1        0.0735
     26 C          -7.3425  -14.9378   25.5533 C.ar    1  UNL1        0.0186
     27 C          -6.0286  -15.6265   23.5051 C.3     1  UNL1        0.4186
     28 F          -6.5657  -14.9302   22.4361 F       1  UNL1       -0.1659
     29 F          -5.5270  -16.8319   23.0512 F       1  UNL1       -0.1659
     30 F          -4.9915  -14.8762   24.0319 F       1  UNL1       -0.1659
     31 N          -8.2432   -8.2239   32.4282 N.pl3   1  UNL1       -0.2814
     32 H          -8.4011   -8.0433   33.4450 H       1  UNL1        0.1551
     33 C          -7.6055   -7.1964   31.6520 C.ar    1  UNL1        0.0889
     34 C          -8.4003   -6.1900   31.0774 C.ar    1  UNL1        0.1543
     35 F          -9.7436   -6.1878   31.2691 F       1  UNL1       -0.2028
     36 C          -7.8139   -5.1673   30.3271 C.ar    1  UNL1        0.0310
     37 C          -6.4328   -5.1474   30.1292 C.ar    1  UNL1        0.0033
     38 C          -5.6346   -6.1574   30.6694 C.ar    1  UNL1        0.0128
     39 C          -6.2095   -7.1885   31.4225 C.ar    1  UNL1        0.0733
     40 CL         -5.1573   -8.4807   31.9898 Cl      1  UNL1       -0.0809
@<TRIPOS>BOND
     1     1     2    1
     2     2     3   ar
     3     3    31    1
     4    31    33    1
     5    33    34   ar
     6    34    35    1
     7    34    36   ar
     8    36    37   ar
     9    37    38   ar
    10    38    39   ar
    11    39    40    1
    12     3     4   ar
    13     4     5   ar
    14     5     6   ar
    15     6     7   ar
    16     7    16    1
    17    16    17    2
    18    16    18   am
    19    18    20    1
    20    20    21   ar
    21    21    22   ar
    22    22    23    1
    23    22    24   ar
    24    24    25   ar
    25    25    27    1
    26    27    28    1
    27    27    29    1
    28    27    30    1
    29    25    26   ar
    30     7     8   ar
    31     8     9   ar
    32     9    10   ar
    33     9    11    1
    34    11    12    1
    35    12    13    1
    36    12    14    1
    37    12    15    1
    38    10     2   ar
    39    39    33   ar
    40    10     5   ar
    41    26    20   ar
    42    15     8    1
    43    31    32    1
    44    18    19    1
