@<TRIPOS>MOLECULE
*****
 36 39 0 0 0
SMALL
GASTEIGER

@<TRIPOS>ATOM
      1 N         -29.5110   47.7338   -8.9659 N.am    1  UNL1       -0.2685
      2 C         -29.8767   46.7273   -8.0071 C.2     1  UNL1        0.2672
      3 O         -30.6585   45.8005   -8.3517 O.2     1  UNL1       -0.2682
      4 C         -29.3524   46.7912   -6.6269 C.ar    1  UNL1        0.1347
      5 C         -29.9635   47.5943   -5.6516 C.ar    1  UNL1        0.0238
      6 C         -29.4518   47.6044   -4.3470 C.ar    1  UNL1        0.0031
      7 C         -30.0451   48.3909   -3.3472 C.ar    1  UNL1        0.0001
      8 C         -29.5232   48.3861   -2.0499 C.ar    1  UNL1        0.0000
      9 C         -28.4094   47.5992   -1.7419 C.ar    1  UNL1        0.0000
     10 C         -27.8098   46.8118   -2.7292 C.ar    1  UNL1        0.0015
     11 C         -28.3258   46.8096   -4.0335 C.ar    1  UNL1        0.0192
     12 C         -27.7449   46.0293   -5.0391 C.ar    1  UNL1        0.0989
     13 N         -28.2675   46.0394   -6.2920 N.ar    1  UNL1       -0.2393
     14 C         -28.2964   47.5849   -9.7916 C.3     1  UNL1        0.1007
     15 C         -27.9986   46.0999  -10.0397 C.3     1  UNL1        0.0265
     16 C         -25.8069   50.3995   -8.9993 C.ar    1  UNL1        0.0324
     17 C         -25.0986   49.8457   -7.9198 C.ar    1  UNL1        0.1383
     18 F         -24.1166   50.5494   -7.3012 F       1  UNL1       -0.2044
     19 C         -25.4038   48.5632   -7.4654 C.ar    1  UNL1        0.0292
     20 C         -26.4092   47.8179   -8.0809 C.ar    1  UNL1        0.0018
     21 C         -27.1195   48.3390   -9.1809 C.ar    1  UNL1        0.0231
     22 C         -26.8020   49.6357   -9.6384 C.ar    1  UNL1        0.1358
     23 F         -27.4692   50.1650  -10.6960 F       1  UNL1       -0.2047
     24 C         -24.2721   51.7556  -10.4271 C.3     1  UNL1        0.0052
     25 C         -25.4776   51.7864   -9.4939 C.3     1  UNL1        0.0309
     26 C         -30.4473   48.8399   -9.2016 C.3     1  UNL1        0.1207
     27 C         -30.4159   49.7946   -8.0396 C.ar    1  UNL1       -0.0021
     28 C         -31.5814   50.0515   -7.3022 C.ar    1  UNL1       -0.0026
     29 C         -31.5278   50.8527   -6.1604 C.ar    1  UNL1       -0.0001
     30 C         -30.3114   51.3952   -5.7386 C.ar    1  UNL1        0.0064
     31 C         -29.1324   51.1453   -6.4615 C.ar    1  UNL1        0.0752
     32 C         -29.1966   50.3467   -7.6179 C.ar    1  UNL1        0.0038
     33 C         -27.8416   51.7023   -6.0008 C.2     1  UNL1        0.3380
     34 O         -27.0879   51.0291   -5.2466 O.2     1  UNL1       -0.2451
     35 O         -27.4481   52.9791   -6.3933 O.3     1  UNL1       -0.4771
     36 H         -26.5674   53.3709   -6.0817 H       1  UNL1        0.2954
@<TRIPOS>BOND
     1    24    25    1
     2    25    16    1
     3    16    17   ar
     4    17    18    1
     5    17    19   ar
     6    19    20   ar
     7    20    21   ar
     8    21    14    1
     9    14    15    1
    10    14     1    1
    11     1    26    1
    12    26    27    1
    13    27    28   ar
    14    28    29   ar
    15    29    30   ar
    16    30    31   ar
    17    31    33    1
    18    33    34    2
    19    33    35    1
    20    31    32   ar
    21     1     2   am
    22     2     3    2
    23     2     4    1
    24     4     5   ar
    25     5     6   ar
    26     6     7   ar
    27     7     8   ar
    28     8     9   ar
    29     9    10   ar
    30    10    11   ar
    31    11    12   ar
    32    12    13   ar
    33    21    22   ar
    34    22    23    1
    35    22    16   ar
    36    32    27   ar
    37    13     4   ar
    38    11     6   ar
    39    35    36    1
@<TRIPOS>MOLECULE
*****
 36 39 0 0 0
SMALL
GASTEIGER

@<TRIPOS>ATOM
      1 N         -28.1941   49.5684   -4.3674 N.am    1  UNL1       -0.2685
      2 C         -29.1786   50.3217   -5.0952 C.2     1  UNL1        0.2672
      3 O         -29.5964   51.4125   -4.6214 O.2     1  UNL1       -0.2682
      4 C         -29.7057   49.8108   -6.3777 C.ar    1  UNL1        0.1347
      5 C         -29.5853   50.5531   -7.5627 C.ar    1  UNL1        0.0238
      6 C         -30.0734   50.0198   -8.7632 C.ar    1  UNL1        0.0031
      7 C         -29.9612   50.7339   -9.9663 C.ar    1  UNL1        0.0001
      8 C         -30.4508   50.1848  -11.1555 C.ar    1  UNL1        0.0000
      9 C         -31.0538   48.9235  -11.1528 C.ar    1  UNL1        0.0000
     10 C         -31.1714   48.2026   -9.9607 C.ar    1  UNL1        0.0015
     11 C         -30.6834   48.7447   -8.7626 C.ar    1  UNL1        0.0192
     12 C         -30.7876   48.0430   -7.5567 C.ar    1  UNL1        0.0989
     13 N         -30.3011   48.5866   -6.4118 N.ar    1  UNL1       -0.2393
     14 C         -26.7538   49.7523   -4.6332 C.3     1  UNL1        0.1007
     15 C         -26.2434   51.0276   -3.9486 C.3     1  UNL1        0.0265
     16 C         -26.3482   48.4469   -8.2220 C.ar    1  UNL1        0.0324
     17 C         -26.1496   49.6438   -8.9302 C.ar    1  UNL1        0.1383
     18 F         -25.9902   49.6332  -10.2781 F       1  UNL1       -0.2044
     19 C         -26.1212   50.8624   -8.2530 C.ar    1  UNL1        0.0292
     20 C         -26.2839   50.9035   -6.8685 C.ar    1  UNL1        0.0018
     21 C         -26.4609   49.7165   -6.1298 C.ar    1  UNL1        0.0231
     22 C         -26.4837   48.4864   -6.8211 C.ar    1  UNL1        0.1358
     23 F         -26.6528   47.3258   -6.1369 F       1  UNL1       -0.2047
     24 C         -27.8008   46.7706   -9.3679 C.3     1  UNL1        0.0052
     25 C         -26.3777   47.1269   -8.9521 C.3     1  UNL1        0.0309
     26 C         -28.6501   48.7185   -3.2603 C.3     1  UNL1        0.1207
     27 C         -28.1718   47.3074   -3.4667 C.ar    1  UNL1       -0.0021
     28 C         -28.8269   46.4633   -4.3758 C.ar    1  UNL1       -0.0026
     29 C         -28.3181   45.1917   -4.6456 C.ar    1  UNL1       -0.0001
     30 C         -27.1475   44.7556   -4.0203 C.ar    1  UNL1        0.0064
     31 C         -26.4745   45.5886   -3.1102 C.ar    1  UNL1        0.0752
     32 C         -27.0000   46.8641   -2.8344 C.ar    1  UNL1        0.0038
     33 C         -25.2228   45.1336   -2.4659 C.2     1  UNL1        0.3380
     34 O         -24.1149   45.6379   -2.7949 O.2     1  UNL1       -0.2451
     35 O         -25.2564   44.1397   -1.4912 O.3     1  UNL1       -0.4771
     36 H         -24.4050   43.8193   -1.0455 H       1  UNL1        0.2954
@<TRIPOS>BOND
     1    24    25    1
     2    25    16    1
     3    16    17   ar
     4    17    18    1
     5    17    19   ar
     6    19    20   ar
     7    20    21   ar
     8    21    14    1
     9    14    15    1
    10    14     1    1
    11     1    26    1
    12    26    27    1
    13    27    28   ar
    14    28    29   ar
    15    29    30   ar
    16    30    31   ar
    17    31    33    1
    18    33    34    2
    19    33    35    1
    20    31    32   ar
    21     1     2   am
    22     2     3    2
    23     2     4    1
    24     4     5   ar
    25     5     6   ar
    26     6     7   ar
    27     7     8   ar
    28     8     9   ar
    29     9    10   ar
    30    10    11   ar
    31    11    12   ar
    32    12    13   ar
    33    21    22   ar
    34    22    23    1
    35    22    16   ar
    36    32    27   ar
    37    13     4   ar
    38    11     6   ar
    39    35    36    1
@<TRIPOS>MOLECULE
*****
 36 39 0 0 0
SMALL
GASTEIGER

@<TRIPOS>ATOM
      1 N         -29.1675   46.3122   -6.9121 N.am    1  UNL1       -0.2685
      2 C         -28.1724   46.3441   -7.9488 C.2     1  UNL1        0.2672
      3 O         -28.1463   45.4230   -8.8089 O.2     1  UNL1       -0.2682
      4 C         -27.1807   47.4388   -7.9929 C.ar    1  UNL1        0.1347
      5 C         -27.0582   48.2665   -9.1196 C.ar    1  UNL1        0.0238
      6 C         -26.1244   49.3114   -9.1095 C.ar    1  UNL1        0.0031
      7 C         -25.9833   50.1613  -10.2176 C.ar    1  UNL1        0.0001
      8 C         -25.0487   51.2011  -10.1888 C.ar    1  UNL1        0.0000
      9 C         -24.2511   51.3997   -9.0580 C.ar    1  UNL1        0.0000
     10 C         -24.3825   50.5598   -7.9482 C.ar    1  UNL1        0.0015
     11 C         -25.3170   49.5139   -7.9672 C.ar    1  UNL1        0.0192
     12 C         -25.4688   48.6604   -6.8691 C.ar    1  UNL1        0.0989
     13 N         -26.3854   47.6598   -6.9098 N.ar    1  UNL1       -0.2393
     14 C         -30.4587   47.0071   -7.0827 C.3     1  UNL1        0.1007
     15 C         -31.4491   46.1140   -7.8423 C.3     1  UNL1        0.0265
     16 C         -29.5075   50.6978   -7.5535 C.ar    1  UNL1        0.0324
     17 C         -29.6850   50.8540   -8.9383 C.ar    1  UNL1        0.1383
     18 F         -29.4182   52.0402   -9.5417 F       1  UNL1       -0.2044
     19 C         -30.1326   49.7842   -9.7127 C.ar    1  UNL1        0.0292
     20 C         -30.4129   48.5534   -9.1197 C.ar    1  UNL1        0.0018
     21 C         -30.2668   48.3752   -7.7294 C.ar    1  UNL1        0.0231
     22 C         -29.8180   49.4636   -6.9513 C.ar    1  UNL1        0.1358
     23 F         -29.6671   49.3225   -5.6092 F       1  UNL1       -0.2047
     24 C         -27.5067   51.9775   -6.7839 C.3     1  UNL1        0.0052
     25 C         -29.0249   51.8542   -6.7132 C.3     1  UNL1        0.0309
     26 C         -28.9242   45.4578   -5.7431 C.3     1  UNL1        0.1207
     27 C         -28.0455   46.1770   -4.7565 C.ar    1  UNL1       -0.0021
     28 C         -28.4177   47.4365   -4.2632 C.ar    1  UNL1       -0.0026
     29 C         -27.6575   48.0540   -3.2686 C.ar    1  UNL1       -0.0001
     30 C         -26.5273   47.4170   -2.7503 C.ar    1  UNL1        0.0064
     31 C         -26.1412   46.1531   -3.2284 C.ar    1  UNL1        0.0752
     32 C         -26.9056   45.5426   -4.2394 C.ar    1  UNL1        0.0038
     33 C         -24.9569   45.4703   -2.6626 C.2     1  UNL1        0.3380
     34 O         -25.0671   44.3285   -2.1390 O.2     1  UNL1       -0.2451
     35 O         -23.7081   46.0852   -2.6996 O.3     1  UNL1       -0.4771
     36 H         -22.8912   45.6275   -2.3130 H       1  UNL1        0.2954
@<TRIPOS>BOND
     1    24    25    1
     2    25    16    1
     3    16    17   ar
     4    17    18    1
     5    17    19   ar
     6    19    20   ar
     7    20    21   ar
     8    21    14    1
     9    14    15    1
    10    14     1    1
    11     1    26    1
    12    26    27    1
    13    27    28   ar
    14    28    29   ar
    15    29    30   ar
    16    30    31   ar
    17    31    33    1
    18    33    34    2
    19    33    35    1
    20    31    32   ar
    21     1     2   am
    22     2     3    2
    23     2     4    1
    24     4     5   ar
    25     5     6   ar
    26     6     7   ar
    27     7     8   ar
    28     8     9   ar
    29     9    10   ar
    30    10    11   ar
    31    11    12   ar
    32    12    13   ar
    33    21    22   ar
    34    22    23    1
    35    22    16   ar
    36    32    27   ar
    37    13     4   ar
    38    11     6   ar
    39    35    36    1
@<TRIPOS>MOLECULE
*****
 36 39 0 0 0
SMALL
GASTEIGER

@<TRIPOS>ATOM
      1 N         -29.0071   50.3050   -4.7754 N.am    1  UNL1       -0.2685
      2 C         -29.8940   49.2975   -4.2611 C.2     1  UNL1        0.2672
      3 O         -30.3510   49.4148   -3.0922 O.2     1  UNL1       -0.2682
      4 C         -30.2510   48.1283   -5.0914 C.ar    1  UNL1        0.1347
      5 C         -29.8809   48.0540   -6.4431 C.ar    1  UNL1        0.0238
      6 C         -30.2145   46.9148   -7.1879 C.ar    1  UNL1        0.0031
      7 C         -29.8519   46.8069   -8.5395 C.ar    1  UNL1        0.0001
      8 C         -30.1902   45.6612   -9.2665 C.ar    1  UNL1        0.0000
      9 C         -30.8901   44.6185   -8.6521 C.ar    1  UNL1        0.0000
     10 C         -31.2567   44.7145   -7.3064 C.ar    1  UNL1        0.0015
     11 C         -30.9221   45.8596   -6.5686 C.ar    1  UNL1        0.0192
     12 C         -31.2762   45.9794   -5.2203 C.ar    1  UNL1        0.0989
     13 N         -30.9345   47.0950   -4.5263 N.ar    1  UNL1       -0.2393
     14 C         -29.5304   51.4502   -5.5459 C.3     1  UNL1        0.1007
     15 C         -31.0472   51.5774   -5.3490 C.3     1  UNL1        0.0265
     16 C         -27.4136   51.6616   -8.7432 C.ar    1  UNL1        0.0324
     17 C         -28.2429   51.0042   -9.6671 C.ar    1  UNL1        0.1383
     18 F         -27.8445   50.8271  -10.9525 F       1  UNL1       -0.2044
     19 C         -29.4877   50.5175   -9.2694 C.ar    1  UNL1        0.0292
     20 C         -29.9222   50.6836   -7.9545 C.ar    1  UNL1        0.0018
     21 C         -29.1214   51.3602   -7.0127 C.ar    1  UNL1        0.0231
     22 C         -27.8650   51.8542   -7.4235 C.ar    1  UNL1        0.1358
     23 F         -27.0708   52.5101   -6.5387 F       1  UNL1       -0.2047
     24 C         -24.9619   51.1981   -8.8270 C.3     1  UNL1        0.0052
     25 C         -26.0671   52.1905   -9.1714 C.3     1  UNL1        0.0309
     26 C         -27.5901   50.2407   -4.3963 C.3     1  UNL1        0.1207
     27 C         -26.9793   48.9656   -4.9099 C.ar    1  UNL1       -0.0021
     28 C         -26.6928   47.9122   -4.0288 C.ar    1  UNL1       -0.0026
     29 C         -26.2269   46.6919   -4.5209 C.ar    1  UNL1       -0.0001
     30 C         -26.0531   46.5080   -5.8948 C.ar    1  UNL1        0.0064
     31 C         -26.3392   47.5499   -6.7936 C.ar    1  UNL1        0.0752
     32 C         -26.7969   48.7808   -6.2890 C.ar    1  UNL1        0.0038
     33 C         -26.1758   47.3461   -8.2498 C.2     1  UNL1        0.3380
     34 O         -26.5377   48.2379   -9.0644 O.2     1  UNL1       -0.2451
     35 O         -25.6235   46.1636   -8.7352 O.3     1  UNL1       -0.4771
     36 H         -25.5093   46.0129   -9.7305 H       1  UNL1        0.2954
@<TRIPOS>BOND
     1    24    25    1
     2    25    16    1
     3    16    17   ar
     4    17    18    1
     5    17    19   ar
     6    19    20   ar
     7    20    21   ar
     8    21    14    1
     9    14    15    1
    10    14     1    1
    11     1    26    1
    12    26    27    1
    13    27    28   ar
    14    28    29   ar
    15    29    30   ar
    16    30    31   ar
    17    31    33    1
    18    33    34    2
    19    33    35    1
    20    31    32   ar
    21     1     2   am
    22     2     3    2
    23     2     4    1
    24     4     5   ar
    25     5     6   ar
    26     6     7   ar
    27     7     8   ar
    28     8     9   ar
    29     9    10   ar
    30    10    11   ar
    31    11    12   ar
    32    12    13   ar
    33    21    22   ar
    34    22    23    1
    35    22    16   ar
    36    32    27   ar
    37    13     4   ar
    38    11     6   ar
    39    35    36    1
@<TRIPOS>MOLECULE
*****
 36 39 0 0 0
SMALL
GASTEIGER

@<TRIPOS>ATOM
      1 N         -29.1750   50.1354   -7.3454 N.am    1  UNL1       -0.2685
      2 C         -28.2343   51.2221   -7.3286 C.2     1  UNL1        0.2672
      3 O         -28.3416   52.1189   -6.4493 O.2     1  UNL1       -0.2682
      4 C         -27.1633   51.2930   -8.3444 C.ar    1  UNL1        0.1347
      5 C         -25.8183   51.4497   -7.9757 C.ar    1  UNL1        0.0238
      6 C         -24.8304   51.4837   -8.9691 C.ar    1  UNL1        0.0031
      7 C         -23.4758   51.6315   -8.6323 C.ar    1  UNL1        0.0001
      8 C         -22.5031   51.6599   -9.6365 C.ar    1  UNL1        0.0000
      9 C         -22.8737   51.5414  -10.9793 C.ar    1  UNL1        0.0000
     10 C         -24.2196   51.3937  -11.3271 C.ar    1  UNL1        0.0015
     11 C         -25.2030   51.3640  -10.3272 C.ar    1  UNL1        0.0192
     12 C         -26.5564   51.2159  -10.6491 C.ar    1  UNL1        0.0989
     13 N         -27.4882   51.1831   -9.6622 N.ar    1  UNL1       -0.2393
     14 C         -28.8892   48.8777   -6.6273 C.3     1  UNL1        0.1007
     15 C         -27.8321   49.1125   -5.5397 C.3     1  UNL1        0.0265
     16 C         -29.1868   45.8286   -8.9431 C.ar    1  UNL1        0.0324
     17 C         -27.9240   45.8255   -9.5588 C.ar    1  UNL1        0.1383
     18 F         -27.6146   44.8984  -10.5007 F       1  UNL1       -0.2044
     19 C         -26.9729   46.7845   -9.2123 C.ar    1  UNL1        0.0292
     20 C         -27.2640   47.7501   -8.2490 C.ar    1  UNL1        0.0018
     21 C         -28.5138   47.7624   -7.5980 C.ar    1  UNL1        0.0231
     22 C         -29.4698   46.7860   -7.9503 C.ar    1  UNL1        0.1358
     23 F         -30.6830   46.7723   -7.3407 F       1  UNL1       -0.2047
     24 C         -31.1847   45.3397  -10.3581 C.3     1  UNL1        0.0052
     25 C         -30.2171   44.7911   -9.3151 C.3     1  UNL1        0.0309
     26 C         -30.4826   50.3595   -7.9745 C.3     1  UNL1        0.1207
     27 C         -30.3382   50.3568   -9.4718 C.ar    1  UNL1       -0.0021
     28 C         -30.2511   49.1447  -10.1728 C.ar    1  UNL1       -0.0026
     29 C         -30.2255   49.1408  -11.5685 C.ar    1  UNL1       -0.0001
     30 C         -30.2974   50.3430  -12.2764 C.ar    1  UNL1        0.0064
     31 C         -30.3898   51.5670  -11.5919 C.ar    1  UNL1        0.0752
     32 C         -30.4029   51.5636  -10.1851 C.ar    1  UNL1        0.0038
     33 C         -30.4883   52.8375  -12.3435 C.2     1  UNL1        0.3380
     34 O         -31.2054   52.9141  -13.3779 O.2     1  UNL1       -0.2451
     35 O         -29.7856   53.9615  -11.9169 O.3     1  UNL1       -0.4771
     36 H         -29.8442   54.8357  -12.4255 H       1  UNL1        0.2954
@<TRIPOS>BOND
     1    24    25    1
     2    25    16    1
     3    16    17   ar
     4    17    18    1
     5    17    19   ar
     6    19    20   ar
     7    20    21   ar
     8    21    14    1
     9    14    15    1
    10    14     1    1
    11     1    26    1
    12    26    27    1
    13    27    28   ar
    14    28    29   ar
    15    29    30   ar
    16    30    31   ar
    17    31    33    1
    18    33    34    2
    19    33    35    1
    20    31    32   ar
    21     1     2   am
    22     2     3    2
    23     2     4    1
    24     4     5   ar
    25     5     6   ar
    26     6     7   ar
    27     7     8   ar
    28     8     9   ar
    29     9    10   ar
    30    10    11   ar
    31    11    12   ar
    32    12    13   ar
    33    21    22   ar
    34    22    23    1
    35    22    16   ar
    36    32    27   ar
    37    13     4   ar
    38    11     6   ar
    39    35    36    1
@<TRIPOS>MOLECULE
*****
 36 39 0 0 0
SMALL
GASTEIGER

@<TRIPOS>ATOM
      1 N         -28.3963   46.8173   -4.8656 N.am    1  UNL1       -0.2685
      2 C         -27.1652   46.7177   -5.6009 C.2     1  UNL1        0.2672
      3 O         -26.3128   45.8521   -5.2645 O.2     1  UNL1       -0.2682
      4 C         -26.8977   47.6342   -6.7288 C.ar    1  UNL1        0.1347
      5 C         -26.8797   49.0259   -6.5488 C.ar    1  UNL1        0.0238
      6 C         -26.5937   49.8587   -7.6390 C.ar    1  UNL1        0.0031
      7 C         -26.5605   51.2539   -7.4897 C.ar    1  UNL1        0.0001
      8 C         -26.2700   52.0695   -8.5878 C.ar    1  UNL1        0.0000
      9 C         -26.0115   51.5008   -9.8385 C.ar    1  UNL1        0.0000
     10 C         -26.0418   50.1124   -9.9996 C.ar    1  UNL1        0.0015
     11 C         -26.3321   49.2857   -8.9043 C.ar    1  UNL1        0.0192
     12 C         -26.3671   47.8935   -9.0390 C.ar    1  UNL1        0.0989
     13 N         -26.6438   47.1149   -7.9618 N.ar    1  UNL1       -0.2393
     14 C         -29.5970   46.0757   -5.2986 C.3     1  UNL1        0.1007
     15 C         -29.5142   44.6128   -4.8419 C.3     1  UNL1        0.0265
     16 C         -30.4542   47.6304   -8.7039 C.ar    1  UNL1        0.0324
     17 C         -30.0430   46.6142   -9.5825 C.ar    1  UNL1        0.1383
     18 F         -30.1453   46.7765  -10.9262 F       1  UNL1       -0.2044
     19 C         -29.5160   45.4246   -9.0808 C.ar    1  UNL1        0.0292
     20 C         -29.3976   45.2311   -7.7047 C.ar    1  UNL1        0.0018
     21 C         -29.8241   46.2236   -6.7998 C.ar    1  UNL1        0.0231
     22 C         -30.3610   47.4229   -7.3145 C.ar    1  UNL1        0.1358
     23 F         -30.7803   48.3979   -6.4675 F       1  UNL1       -0.2047
     24 C         -29.9686   50.0160   -9.2572 C.3     1  UNL1        0.0052
     25 C         -31.0263   48.9177   -9.2441 C.3     1  UNL1        0.0309
     26 C         -28.3898   47.5605   -3.5994 C.3     1  UNL1        0.1207
     27 C         -29.5047   48.5703   -3.5919 C.ar    1  UNL1       -0.0021
     28 C         -30.5508   48.4637   -2.6632 C.ar    1  UNL1       -0.0026
     29 C         -31.5262   49.4593   -2.5866 C.ar    1  UNL1       -0.0001
     30 C         -31.4610   50.5735   -3.4268 C.ar    1  UNL1        0.0064
     31 C         -30.4182   50.7004   -4.3603 C.ar    1  UNL1        0.0752
     32 C         -29.4456   49.6870   -4.4398 C.ar    1  UNL1        0.0038
     33 C         -30.3384   51.8918   -5.2339 C.2     1  UNL1        0.3380
     34 O         -29.5287   51.9227   -6.2000 O.2     1  UNL1       -0.2451
     35 O         -31.1555   52.9936   -4.9941 O.3     1  UNL1       -0.4771
     36 H         -31.1073   53.8153   -5.5847 H       1  UNL1        0.2954
@<TRIPOS>BOND
     1    24    25    1
     2    25    16    1
     3    16    17   ar
     4    17    18    1
     5    17    19   ar
     6    19    20   ar
     7    20    21   ar
     8    21    14    1
     9    14    15    1
    10    14     1    1
    11     1    26    1
    12    26    27    1
    13    27    28   ar
    14    28    29   ar
    15    29    30   ar
    16    30    31   ar
    17    31    33    1
    18    33    34    2
    19    33    35    1
    20    31    32   ar
    21     1     2   am
    22     2     3    2
    23     2     4    1
    24     4     5   ar
    25     5     6   ar
    26     6     7   ar
    27     7     8   ar
    28     8     9   ar
    29     9    10   ar
    30    10    11   ar
    31    11    12   ar
    32    12    13   ar
    33    21    22   ar
    34    22    23    1
    35    22    16   ar
    36    32    27   ar
    37    13     4   ar
    38    11     6   ar
    39    35    36    1
@<TRIPOS>MOLECULE
*****
 36 39 0 0 0
SMALL
GASTEIGER

@<TRIPOS>ATOM
      1 N         -28.6953   50.6212   -6.4993 N.am    1  UNL1       -0.2685
      2 C         -27.6080   50.4351   -5.5778 C.2     1  UNL1        0.2672
      3 O         -27.0462   51.4443   -5.0730 O.2     1  UNL1       -0.2682
      4 C         -27.1450   49.0728   -5.2408 C.ar    1  UNL1        0.1347
      5 C         -27.3292   48.5371   -3.9568 C.ar    1  UNL1        0.0238
      6 C         -26.9008   47.2304   -3.6867 C.ar    1  UNL1        0.0031
      7 C         -27.0778   46.6634   -2.4149 C.ar    1  UNL1        0.0001
      8 C         -26.6472   45.3568   -2.1642 C.ar    1  UNL1        0.0000
      9 C         -26.0393   44.6092   -3.1771 C.ar    1  UNL1        0.0000
     10 C         -25.8576   45.1631   -4.4477 C.ar    1  UNL1        0.0015
     11 C         -26.2860   46.4729   -4.7093 C.ar    1  UNL1        0.0192
     12 C         -26.1170   47.0496   -5.9728 C.ar    1  UNL1        0.0989
     13 N         -26.5466   48.3168   -6.2025 N.ar    1  UNL1       -0.2393
     14 C         -30.0931   50.6396   -6.0248 C.3     1  UNL1        0.1007
     15 C         -30.4045   51.9742   -5.3339 C.3     1  UNL1        0.0265
     16 C         -30.6507   46.9999   -4.9341 C.ar    1  UNL1        0.0324
     17 C         -30.7216   47.1380   -3.5379 C.ar    1  UNL1        0.1383
     18 F         -30.8863   46.0513   -2.7414 F       1  UNL1       -0.2044
     19 C         -30.6158   48.3990   -2.9520 C.ar    1  UNL1        0.0292
     20 C         -30.4444   49.5329   -3.7457 C.ar    1  UNL1        0.0018
     21 C         -30.3938   49.4266   -5.1500 C.ar    1  UNL1        0.0231
     22 C         -30.5064   48.1479   -5.7362 C.ar    1  UNL1        0.1358
     23 F         -30.4610   48.0136   -7.0867 F       1  UNL1       -0.2047
     24 C         -29.3892   45.0863   -5.9240 C.3     1  UNL1        0.0052
     25 C         -30.7665   45.6369   -5.5706 C.3     1  UNL1        0.0309
     26 C         -28.3738   50.9317   -7.8978 C.3     1  UNL1        0.1207
     27 C         -28.8484   49.8192   -8.7921 C.ar    1  UNL1       -0.0021
     28 C         -29.9606   50.0066   -9.6265 C.ar    1  UNL1       -0.0026
     29 C         -30.3342   49.0128  -10.5328 C.ar    1  UNL1       -0.0001
     30 C         -29.5967   47.8297  -10.6223 C.ar    1  UNL1        0.0064
     31 C         -28.4767   47.6256   -9.7982 C.ar    1  UNL1        0.0752
     32 C         -28.1136   48.6268   -8.8789 C.ar    1  UNL1        0.0038
     33 C         -27.6838   46.3816   -9.9101 C.2     1  UNL1        0.3380
     34 O         -26.9829   45.9813   -8.9413 O.2     1  UNL1       -0.2451
     35 O         -27.7011   45.6421  -11.0898 O.3     1  UNL1       -0.4771
     36 H         -27.1601   44.7901  -11.1778 H       1  UNL1        0.2954
@<TRIPOS>BOND
     1    24    25    1
     2    25    16    1
     3    16    17   ar
     4    17    18    1
     5    17    19   ar
     6    19    20   ar
     7    20    21   ar
     8    21    14    1
     9    14    15    1
    10    14     1    1
    11     1    26    1
    12    26    27    1
    13    27    28   ar
    14    28    29   ar
    15    29    30   ar
    16    30    31   ar
    17    31    33    1
    18    33    34    2
    19    33    35    1
    20    31    32   ar
    21     1     2   am
    22     2     3    2
    23     2     4    1
    24     4     5   ar
    25     5     6   ar
    26     6     7   ar
    27     7     8   ar
    28     8     9   ar
    29     9    10   ar
    30    10    11   ar
    31    11    12   ar
    32    12    13   ar
    33    21    22   ar
    34    22    23    1
    35    22    16   ar
    36    32    27   ar
    37    13     4   ar
    38    11     6   ar
    39    35    36    1
@<TRIPOS>MOLECULE
*****
 36 39 0 0 0
SMALL
GASTEIGER

@<TRIPOS>ATOM
      1 N         -30.4009   50.0428   -6.3496 N.am    1  UNL1       -0.2685
      2 C         -29.3925   50.9463   -5.8668 C.2     1  UNL1        0.2672
      3 O         -29.6671   51.7282   -4.9169 O.2     1  UNL1       -0.2682
      4 C         -28.0535   50.9671   -6.4915 C.ar    1  UNL1        0.1347
      5 C         -27.8554   51.5029   -7.7734 C.ar    1  UNL1        0.0238
      6 C         -26.5645   51.5293   -8.3180 C.ar    1  UNL1        0.0031
      7 C         -26.3325   52.0656   -9.5941 C.ar    1  UNL1        0.0001
      8 C         -25.0371   52.0868  -10.1205 C.ar    1  UNL1        0.0000
      9 C         -23.9676   51.5749   -9.3797 C.ar    1  UNL1        0.0000
     10 C         -24.1862   51.0381   -8.1075 C.ar    1  UNL1        0.0015
     11 C         -25.4819   51.0122   -7.5707 C.ar    1  UNL1        0.0192
     12 C         -25.7268   50.4819   -6.2994 C.ar    1  UNL1        0.0989
     13 N         -26.9890   50.4748   -5.7995 N.ar    1  UNL1       -0.2393
     14 C         -30.5099   48.6735   -5.8088 C.3     1  UNL1        0.1007
     15 C         -31.1803   48.6968   -4.4284 C.3     1  UNL1        0.0265
     16 C         -27.2018   47.1641   -7.0441 C.ar    1  UNL1        0.0324
     17 C         -26.5537   46.8878   -5.8286 C.ar    1  UNL1        0.1383
     18 F         -25.3039   46.3587   -5.8144 F       1  UNL1       -0.2044
     19 C         -27.1882   47.1626   -4.6177 C.ar    1  UNL1        0.0292
     20 C         -28.4717   47.7080   -4.6022 C.ar    1  UNL1        0.0018
     21 C         -29.1549   47.9729   -5.8060 C.ar    1  UNL1        0.0231
     22 C         -28.5086   47.6878   -7.0276 C.ar    1  UNL1        0.1358
     23 F         -29.1412   47.9325   -8.2039 F       1  UNL1       -0.2047
     24 C         -26.5978   48.0671   -9.2919 C.3     1  UNL1        0.0052
     25 C         -26.5182   46.8662   -8.3556 C.3     1  UNL1        0.0309
     26 C         -31.4038   50.5604   -7.2887 C.3     1  UNL1        0.1207
     27 C         -31.0696   50.1224   -8.6884 C.ar    1  UNL1       -0.0021
     28 C         -31.5826   48.9192   -9.1956 C.ar    1  UNL1       -0.0026
     29 C         -31.3603   48.5671  -10.5280 C.ar    1  UNL1       -0.0001
     30 C         -30.6347   49.4156  -11.3678 C.ar    1  UNL1        0.0064
     31 C         -30.1169   50.6273  -10.8792 C.ar    1  UNL1        0.0752
     32 C         -30.3349   50.9695   -9.5322 C.ar    1  UNL1        0.0038
     33 C         -29.3680   51.5351  -11.7759 C.2     1  UNL1        0.3380
     34 O         -29.0512   52.6938  -11.3925 O.2     1  UNL1       -0.2451
     35 O         -29.0089   51.1188  -13.0552 O.3     1  UNL1       -0.4771
     36 H         -28.4981   51.7332  -13.6780 H       1  UNL1        0.2954
@<TRIPOS>BOND
     1    24    25    1
     2    25    16    1
     3    16    17   ar
     4    17    18    1
     5    17    19   ar
     6    19    20   ar
     7    20    21   ar
     8    21    14    1
     9    14    15    1
    10    14     1    1
    11     1    26    1
    12    26    27    1
    13    27    28   ar
    14    28    29   ar
    15    29    30   ar
    16    30    31   ar
    17    31    33    1
    18    33    34    2
    19    33    35    1
    20    31    32   ar
    21     1     2   am
    22     2     3    2
    23     2     4    1
    24     4     5   ar
    25     5     6   ar
    26     6     7   ar
    27     7     8   ar
    28     8     9   ar
    29     9    10   ar
    30    10    11   ar
    31    11    12   ar
    32    12    13   ar
    33    21    22   ar
    34    22    23    1
    35    22    16   ar
    36    32    27   ar
    37    13     4   ar
    38    11     6   ar
    39    35    36    1
@<TRIPOS>MOLECULE
*****
 36 39 0 0 0
SMALL
GASTEIGER

@<TRIPOS>ATOM
      1 N         -30.5212   49.3784   -7.3321 N.am    1  UNL1       -0.2685
      2 C         -30.2431   50.3909   -8.3138 C.2     1  UNL1        0.2672
      3 O         -31.1952   50.8959   -8.9676 O.2     1  UNL1       -0.2682
      4 C         -28.8515   50.8209   -8.5634 C.ar    1  UNL1        0.1347
      5 C         -28.1504   50.3959   -9.7025 C.ar    1  UNL1        0.0238
      6 C         -26.8419   50.8498   -9.9162 C.ar    1  UNL1        0.0031
      7 C         -26.1172   50.4492  -11.0496 C.ar    1  UNL1        0.0001
      8 C         -24.8137   50.9147  -11.2485 C.ar    1  UNL1        0.0000
      9 C         -24.2260   51.7804  -10.3213 C.ar    1  UNL1        0.0000
     10 C         -24.9378   52.1864   -9.1886 C.ar    1  UNL1        0.0015
     11 C         -26.2459   51.7250   -8.9800 C.ar    1  UNL1        0.0192
     12 C         -26.9798   52.1176   -7.8554 C.ar    1  UNL1        0.0989
     13 N         -28.2468   51.6625   -7.6800 N.ar    1  UNL1       -0.2393
     14 C         -30.7471   49.7386   -5.9185 C.3     1  UNL1        0.1007
     15 C         -31.2088   51.1981   -5.8069 C.3     1  UNL1        0.0265
     16 C         -28.2305   47.8324   -3.7320 C.ar    1  UNL1        0.0324
     17 C         -27.1636   48.7449   -3.6799 C.ar    1  UNL1        0.1383
     18 F         -26.0225   48.4395   -3.0113 F       1  UNL1       -0.2044
     19 C         -27.2634   49.9776   -4.3241 C.ar    1  UNL1        0.0292
     20 C         -28.4233   50.3174   -5.0199 C.ar    1  UNL1        0.0018
     21 C         -29.5182   49.4315   -5.0686 C.ar    1  UNL1        0.0231
     22 C         -29.4119   48.1878   -4.4104 C.ar    1  UNL1        0.1358
     23 F         -30.4500   47.3129   -4.4398 F       1  UNL1       -0.2047
     24 C         -27.5589   45.4401   -3.9743 C.3     1  UNL1        0.0052
     25 C         -28.1256   46.4987   -3.0345 C.3     1  UNL1        0.0309
     26 C         -30.7133   47.9982   -7.7944 C.3     1  UNL1        0.1207
     27 C         -29.4125   47.4437   -8.3075 C.ar    1  UNL1       -0.0021
     28 C         -29.3480   46.8464   -9.5753 C.ar    1  UNL1       -0.0026
     29 C         -28.1208   46.4297  -10.0938 C.ar    1  UNL1       -0.0001
     30 C         -26.9476   46.6146   -9.3583 C.ar    1  UNL1        0.0064
     31 C         -26.9914   47.2153   -8.0885 C.ar    1  UNL1        0.0752
     32 C         -28.2334   47.6216   -7.5676 C.ar    1  UNL1        0.0038
     33 C         -25.7452   47.4304   -7.3206 C.2     1  UNL1        0.3380
     34 O         -25.1254   48.5255   -7.4021 O.2     1  UNL1       -0.2451
     35 O         -25.2423   46.4222   -6.5023 O.3     1  UNL1       -0.4771
     36 H         -24.3886   46.5583   -5.9741 H       1  UNL1        0.2954
@<TRIPOS>BOND
     1    24    25    1
     2    25    16    1
     3    16    17   ar
     4    17    18    1
     5    17    19   ar
     6    19    20   ar
     7    20    21   ar
     8    21    14    1
     9    14    15    1
    10    14     1    1
    11     1    26    1
    12    26    27    1
    13    27    28   ar
    14    28    29   ar
    15    29    30   ar
    16    30    31   ar
    17    31    33    1
    18    33    34    2
    19    33    35    1
    20    31    32   ar
    21     1     2   am
    22     2     3    2
    23     2     4    1
    24     4     5   ar
    25     5     6   ar
    26     6     7   ar
    27     7     8   ar
    28     8     9   ar
    29     9    10   ar
    30    10    11   ar
    31    11    12   ar
    32    12    13   ar
    33    21    22   ar
    34    22    23    1
    35    22    16   ar
    36    32    27   ar
    37    13     4   ar
    38    11     6   ar
    39    35    36    1
