@<TRIPOS>MOLECULE
*****
 50 55 0 0 0
SMALL
GASTEIGER

@<TRIPOS>ATOM
      1 C          59.1194   84.8307   11.0118 C.2     1  UNL1        0.2483
      2 O          57.9784   84.3348   11.2216 O.2     1  UNL1       -0.2701
      3 N          60.2095   84.5011   11.8886 N.am    1  UNL1       -0.2945
      4 H          61.1798   84.6993   11.5575 H       1  UNL1        0.1501
      5 C          60.3140   87.6804    8.7684 C.ar    1  UNL1        0.0482
      6 C          59.6262   87.3707    7.5757 C.ar    1  UNL1        0.0484
      7 C          58.8104   86.2357    7.5175 C.ar    1  UNL1        0.0146
      8 C          58.6571   85.4166    8.6349 C.ar    1  UNL1        0.0080
      9 C          59.3197   85.7138    9.8365 C.ar    1  UNL1        0.0806
     10 C          60.1370   86.8621    9.9015 C.ar    1  UNL1        0.1440
     11 F          60.7263   87.2190   11.0718 F       1  UNL1       -0.2042
     12 N          59.7390   88.2163    6.4221 N.pl3   1  UNL1       -0.3042
     13 C          60.8014   87.9646    5.4455 C.3     1  UNL1        0.1122
     14 C          61.2660   89.2850    4.8303 C.3     1  UNL1        0.1123
     15 N          60.1078   90.0799    4.4087 N.pl3   1  UNL1       -0.3034
     16 C          59.0443   90.3286    5.3871 C.3     1  UNL1        0.1123
     17 C          58.5799   89.0082    6.0021 C.3     1  UNL1        0.1122
     18 C          60.2305   90.9381    3.2638 C.ar    1  UNL1        0.0595
     19 C          59.0779   91.4575    2.6546 C.ar    1  UNL1        0.0154
     20 C          59.1850   92.3012    1.5479 C.ar    1  UNL1        0.0022
     21 C          60.4420   92.6312    1.0387 C.ar    1  UNL1        0.0123
     22 C          61.6004   92.1163    1.6310 C.ar    1  UNL1        0.0694
     23 CL         63.1633   92.5498    0.9503 Cl      1  UNL1       -0.0813
     24 C          61.4999   91.2649    2.7470 C.ar    1  UNL1        0.0815
     25 CL         62.9521   90.5763    3.4727 Cl      1  UNL1       -0.0801
     26 C          61.1851   88.9086    8.8634 C.3     1  UNL1        0.1722
     27 C          62.9936   89.4276   10.1910 C.3     1  UNL1        0.1746
     28 O          62.4873   88.5173    9.2412 O.3     1  UNL1       -0.3462
     29 C          60.0071   83.7749   13.1522 C.3     1  UNL1        0.1535
     30 C          59.9517   82.2802   12.9323 C.2     1  UNL1        0.2443
     31 O          60.9539   81.5646   13.2079 O.2     1  UNL1       -0.2730
     32 N          58.7148   81.6688   12.5318 N.am    1  UNL1       -0.2825
     33 H          57.8512   82.2572   12.5568 H       1  UNL1        0.1549
     34 C          58.5617   80.2611   12.2871 C.ar    1  UNL1        0.0535
     35 C          58.8677   79.3072   13.2719 C.ar    1  UNL1        0.0353
     36 C          58.7187   77.9482   12.9837 C.ar    1  UNL1        0.1002
     37 N          58.2931   77.5537   11.7544 N.ar    1  UNL1       -0.2422
     38 C          58.0066   78.4543   10.7775 C.ar    1  UNL1        0.1002
     39 C          58.1437   79.8225   11.0235 C.ar    1  UNL1        0.0353
     40 C          61.0941   84.1340   14.1876 C.3     1  UNL1        0.0569
     41 C          61.0770   85.5871   14.5733 C.ar    1  UNL1       -0.0017
     42 C          59.9487   86.3643   14.8161 C.ar    1  UNL1        0.0681
     43 N          60.3030   87.6426   15.0789 N.ar    1  UNL1       -0.3523
     44 C          61.6448   87.6795   15.0034 C.ar    1  UNL1        0.0563
     45 C          62.4709   88.7873   15.1876 C.ar    1  UNL1        0.0170
     46 C          63.8590   88.6026   15.0520 C.ar    1  UNL1        0.0015
     47 C          64.3846   87.3291   14.7402 C.ar    1  UNL1        0.0001
     48 C          63.5272   86.2288   14.5611 C.ar    1  UNL1        0.0012
     49 C          62.1548   86.4433   14.6981 C.ar    1  UNL1        0.0131
     50 H          59.6603   88.4383   15.2895 H       1  UNL1        0.1660
@<TRIPOS>BOND
     1    27    28    1
     2    28    26    1
     3    26     5    1
     4     5     6   ar
     5     6    12    1
     6    12    13    1
     7    13    14    1
     8    14    15    1
     9    15    18    1
    10    18    19   ar
    11    19    20   ar
    12    20    21   ar
    13    21    22   ar
    14    22    23    1
    15    22    24   ar
    16    24    25    1
    17    15    16    1
    18    16    17    1
    19     6     7   ar
    20     7     8   ar
    21     8     9   ar
    22     9     1    1
    23     1     2    2
    24     1     3   am
    25     3    29    1
    26    29    40    1
    27    40    41    1
    28    41    42   ar
    29    42    43   ar
    30    43    44   ar
    31    44    45   ar
    32    45    46   ar
    33    46    47   ar
    34    47    48   ar
    35    48    49   ar
    36    29    30    1
    37    30    31    2
    38    30    32   am
    39    32    34    1
    40    34    35   ar
    41    35    36   ar
    42    36    37   ar
    43    37    38   ar
    44    38    39   ar
    45     9    10   ar
    46    10    11    1
    47    10     5   ar
    48    17    12    1
    49    49    41   ar
    50    39    34   ar
    51    24    18   ar
    52    49    44   ar
    53     3     4    1
    54    43    50    1
    55    32    33    1
@<TRIPOS>MOLECULE
*****
 50 55 0 0 0
SMALL
GASTEIGER

@<TRIPOS>ATOM
      1 C          59.3616   85.3446   10.8801 C.2     1  UNL1        0.2483
      2 O          58.3472   85.5152   11.6107 O.2     1  UNL1       -0.2701
      3 N          60.3091   84.3152   11.2091 N.am    1  UNL1       -0.2945
      4 H          60.9828   84.0167   10.4692 H       1  UNL1        0.1501
      5 C          60.5761   88.0553    8.4805 C.ar    1  UNL1        0.0482
      6 C          59.7793   87.7709    7.3511 C.ar    1  UNL1        0.0484
      7 C          58.8845   86.6959    7.3835 C.ar    1  UNL1        0.0146
      8 C          58.7607   85.9130    8.5301 C.ar    1  UNL1        0.0080
      9 C          59.5322   86.1868    9.6706 C.ar    1  UNL1        0.0806
     10 C          60.4298   87.2751    9.6445 C.ar    1  UNL1        0.1440
     11 F          61.1303   87.6132   10.7577 F       1  UNL1       -0.2042
     12 N          59.8619   88.5825    6.1708 N.pl3   1  UNL1       -0.3042
     13 C          60.8668   88.2712    5.1515 C.3     1  UNL1        0.1122
     14 C          61.3419   89.5595    4.4788 C.3     1  UNL1        0.1123
     15 N          60.1900   90.3807    4.0919 N.pl3   1  UNL1       -0.3034
     16 C          59.1840   90.6890    5.1132 C.3     1  UNL1        0.1123
     17 C          58.7091   89.4008    5.7856 C.3     1  UNL1        0.1122
     18 C          60.2834   91.2047    2.9195 C.ar    1  UNL1        0.0595
     19 C          59.1143   91.6184    2.2627 C.ar    1  UNL1        0.0154
     20 C          59.1921   92.4282    1.1285 C.ar    1  UNL1        0.0022
     21 C          60.4362   92.8294    0.6392 C.ar    1  UNL1        0.0123
     22 C          61.6113   92.4200    1.2791 C.ar    1  UNL1        0.0694
     23 CL         63.1578   92.9401    0.6223 Cl      1  UNL1       -0.0813
     24 C          61.5404   91.6033    2.4230 C.ar    1  UNL1        0.0815
     25 CL         63.0169   91.0465    3.2100 Cl      1  UNL1       -0.0801
     26 C          61.5351   89.2200    8.4782 C.3     1  UNL1        0.1722
     27 C          63.1642   89.7955   10.0005 C.3     1  UNL1        0.1746
     28 O          62.7471   88.8154    9.0772 O.3     1  UNL1       -0.3462
     29 C          60.2620   83.5854   12.4859 C.3     1  UNL1        0.1535
     30 C          60.6840   84.4615   13.6435 C.2     1  UNL1        0.2443
     31 O          60.2004   84.2647   14.7924 O.2     1  UNL1       -0.2730
     32 N          61.7286   85.4295   13.4548 N.am    1  UNL1       -0.2825
     33 H          62.2728   85.3899   12.5631 H       1  UNL1        0.1549
     34 C          62.1933   86.3153   14.4866 C.ar    1  UNL1        0.0535
     35 C          62.3656   85.8749   15.8094 C.ar    1  UNL1        0.0353
     36 C          62.8043   86.7758   16.7830 C.ar    1  UNL1        0.1002
     37 N          63.0494   88.0716   16.4533 N.ar    1  UNL1       -0.2422
     38 C          62.8744   88.5287   15.1853 C.ar    1  UNL1        0.1002
     39 C          62.4356   87.6614   14.1820 C.ar    1  UNL1        0.0353
     40 C          58.8631   82.9839   12.7386 C.3     1  UNL1        0.0569
     41 C          58.5242   81.8713   11.7858 C.ar    1  UNL1       -0.0017
     42 C          58.0467   82.0129   10.4866 C.ar    1  UNL1        0.0681
     43 N          57.7919   80.8016    9.9421 N.ar    1  UNL1       -0.3523
     44 C          58.1036   79.8967   10.8862 C.ar    1  UNL1        0.0563
     45 C          57.9977   78.5095   10.7943 C.ar    1  UNL1        0.0170
     46 C          58.3727   77.7455   11.9145 C.ar    1  UNL1        0.0015
     47 C          58.8410   78.3774   13.0877 C.ar    1  UNL1        0.0001
     48 C          58.9386   79.7790   13.1518 C.ar    1  UNL1        0.0012
     49 C          58.5559   80.5107   12.0264 C.ar    1  UNL1        0.0131
     50 H          57.4208   80.6127    8.9844 H       1  UNL1        0.1660
@<TRIPOS>BOND
     1    27    28    1
     2    28    26    1
     3    26     5    1
     4     5     6   ar
     5     6    12    1
     6    12    13    1
     7    13    14    1
     8    14    15    1
     9    15    18    1
    10    18    19   ar
    11    19    20   ar
    12    20    21   ar
    13    21    22   ar
    14    22    23    1
    15    22    24   ar
    16    24    25    1
    17    15    16    1
    18    16    17    1
    19     6     7   ar
    20     7     8   ar
    21     8     9   ar
    22     9     1    1
    23     1     2    2
    24     1     3   am
    25     3    29    1
    26    29    40    1
    27    40    41    1
    28    41    42   ar
    29    42    43   ar
    30    43    44   ar
    31    44    45   ar
    32    45    46   ar
    33    46    47   ar
    34    47    48   ar
    35    48    49   ar
    36    29    30    1
    37    30    31    2
    38    30    32   am
    39    32    34    1
    40    34    35   ar
    41    35    36   ar
    42    36    37   ar
    43    37    38   ar
    44    38    39   ar
    45     9    10   ar
    46    10    11    1
    47    10     5   ar
    48    17    12    1
    49    49    41   ar
    50    39    34   ar
    51    24    18   ar
    52    49    44   ar
    53     3     4    1
    54    43    50    1
    55    32    33    1
@<TRIPOS>MOLECULE
*****
 50 55 0 0 0
SMALL
GASTEIGER

@<TRIPOS>ATOM
      1 C          58.8655   84.9560   10.8096 C.2     1  UNL1        0.2483
      2 O          57.7701   84.3339   10.8813 O.2     1  UNL1       -0.2701
      3 N          59.8580   84.7673   11.8318 N.am    1  UNL1       -0.2945
      4 H          60.8353   85.0721   11.6260 H       1  UNL1        0.1501
      5 C          60.2059   87.7775    8.6134 C.ar    1  UNL1        0.0482
      6 C          59.5316   87.5014    7.4048 C.ar    1  UNL1        0.0484
      7 C          58.6772   86.3968    7.3212 C.ar    1  UNL1        0.0146
      8 C          58.4723   85.5756    8.4288 C.ar    1  UNL1        0.0080
      9 C          59.1208   85.8399    9.6456 C.ar    1  UNL1        0.0806
     10 C          59.9770   86.9577    9.7361 C.ar    1  UNL1        0.1440
     11 F          60.5550   87.2847   10.9207 F       1  UNL1       -0.2042
     12 N          59.6976   88.3509    6.2606 N.pl3   1  UNL1       -0.3042
     13 C          60.7860   88.0841    5.3171 C.3     1  UNL1        0.1122
     14 C          61.2953   89.3986    4.7251 C.3     1  UNL1        0.1123
     15 N          60.1667   90.2179    4.2713 N.pl3   1  UNL1       -0.3034
     16 C          59.0771   90.4817    5.2164 C.3     1  UNL1        0.1123
     17 C          58.5681   89.1673    5.8083 C.3     1  UNL1        0.1122
     18 C          60.3426   91.0797    3.1361 C.ar    1  UNL1        0.0595
     19 C          59.2220   91.6489    2.5121 C.ar    1  UNL1        0.0154
     20 C          59.3810   92.4965    1.4146 C.ar    1  UNL1        0.0022
     21 C          60.6586   92.7810    0.9296 C.ar    1  UNL1        0.0123
     22 C          61.7856   92.2163    1.5370 C.ar    1  UNL1        0.0694
     23 CL         63.3757   92.5934    0.8866 Cl      1  UNL1       -0.0813
     24 C          61.6326   91.3605    2.6437 C.ar    1  UNL1        0.0815
     25 CL         63.0439   90.6097    3.3879 Cl      1  UNL1       -0.0801
     26 C          61.1181   88.9730    8.7355 C.3     1  UNL1        0.1722
     27 C          62.9592   89.3451   10.0676 C.3     1  UNL1        0.1746
     28 O          62.4174   88.5256    9.0567 O.3     1  UNL1       -0.3462
     29 C          59.5711   84.0401   13.0784 C.3     1  UNL1        0.1535
     30 C          58.8744   82.7260   12.8081 C.2     1  UNL1        0.2443
     31 O          57.7620   82.4787   13.3504 O.2     1  UNL1       -0.2730
     32 N          59.4216   81.8213   11.8354 N.am    1  UNL1       -0.2825
     33 H          60.1998   82.1700   11.2309 H       1  UNL1        0.1549
     34 C          58.8418   80.5460   11.5151 C.ar    1  UNL1        0.0535
     35 C          58.9533   79.4494   12.3860 C.ar    1  UNL1        0.0353
     36 C          58.3874   78.2239   12.0254 C.ar    1  UNL1        0.1002
     37 N          57.7455   78.0924   10.8344 N.ar    1  UNL1       -0.2422
     38 C          57.6379   79.1318    9.9652 C.ar    1  UNL1        0.1002
     39 C          58.1909   80.3738   10.2861 C.ar    1  UNL1        0.0353
     40 C          60.8539   83.8171   13.9074 C.3     1  UNL1        0.0569
     41 C          61.7451   82.7522   13.3309 C.ar    1  UNL1       -0.0017
     42 C          62.0996   81.5525   13.9402 C.ar    1  UNL1        0.0681
     43 N          62.9638   80.8640   13.1607 N.ar    1  UNL1       -0.3523
     44 C          63.1587   81.6186   12.0652 C.ar    1  UNL1        0.0563
     45 C          63.9809   81.3308   10.9767 C.ar    1  UNL1        0.0170
     46 C          64.0446   82.2725    9.9334 C.ar    1  UNL1        0.0015
     47 C          63.2927   83.4663    9.9997 C.ar    1  UNL1        0.0001
     48 C          62.4704   83.7299   11.1098 C.ar    1  UNL1        0.0012
     49 C          62.4304   82.7792   12.1310 C.ar    1  UNL1        0.0131
     50 H          63.3958   79.9376   13.3743 H       1  UNL1        0.1660
@<TRIPOS>BOND
     1    27    28    1
     2    28    26    1
     3    26     5    1
     4     5     6   ar
     5     6    12    1
     6    12    13    1
     7    13    14    1
     8    14    15    1
     9    15    18    1
    10    18    19   ar
    11    19    20   ar
    12    20    21   ar
    13    21    22   ar
    14    22    23    1
    15    22    24   ar
    16    24    25    1
    17    15    16    1
    18    16    17    1
    19     6     7   ar
    20     7     8   ar
    21     8     9   ar
    22     9     1    1
    23     1     2    2
    24     1     3   am
    25     3    29    1
    26    29    40    1
    27    40    41    1
    28    41    42   ar
    29    42    43   ar
    30    43    44   ar
    31    44    45   ar
    32    45    46   ar
    33    46    47   ar
    34    47    48   ar
    35    48    49   ar
    36    29    30    1
    37    30    31    2
    38    30    32   am
    39    32    34    1
    40    34    35   ar
    41    35    36   ar
    42    36    37   ar
    43    37    38   ar
    44    38    39   ar
    45     9    10   ar
    46    10    11    1
    47    10     5   ar
    48    17    12    1
    49    49    41   ar
    50    39    34   ar
    51    24    18   ar
    52    49    44   ar
    53     3     4    1
    54    43    50    1
    55    32    33    1
@<TRIPOS>MOLECULE
*****
 50 55 0 0 0
SMALL
GASTEIGER

@<TRIPOS>ATOM
      1 C          60.2595   85.6768    9.3779 C.2     1  UNL1        0.2483
      2 O          59.3921   86.2852    8.6928 O.2     1  UNL1       -0.2701
      3 N          60.3262   84.2420    9.3278 N.am    1  UNL1       -0.2945
      4 H          61.1943   83.7807    9.6800 H       1  UNL1        0.1501
      5 C          62.3895   86.9177   12.2941 C.ar    1  UNL1        0.0482
      6 C          63.0313   88.0196   11.6896 C.ar    1  UNL1        0.0484
      7 C          62.7779   88.3221   10.3474 C.ar    1  UNL1        0.0146
      8 C          61.8820   87.5535    9.6060 C.ar    1  UNL1        0.0080
      9 C          61.2206   86.4620   10.1910 C.ar    1  UNL1        0.0806
     10 C          61.4674   86.1588   11.5467 C.ar    1  UNL1        0.1440
     11 F          60.7833   85.1596   12.1614 F       1  UNL1       -0.2042
     12 N          63.9310   88.8478   12.4400 N.pl3   1  UNL1       -0.3042
     13 C          64.4600   90.0714   11.8325 C.3     1  UNL1        0.1122
     14 C          65.8756   90.3370   12.3456 C.3     1  UNL1        0.1123
     15 N          65.9139   90.2130   13.8065 N.pl3   1  UNL1       -0.3034
     16 C          65.3817   88.9885   14.4127 C.3     1  UNL1        0.1123
     17 C          63.9662   88.7231   13.8994 C.3     1  UNL1        0.1122
     18 C          66.8284   91.0316   14.5521 C.ar    1  UNL1        0.0595
     19 C          66.3848   91.7047   15.7008 C.ar    1  UNL1        0.0154
     20 C          67.2670   92.4946   16.4396 C.ar    1  UNL1        0.0022
     21 C          68.5975   92.6215   16.0371 C.ar    1  UNL1        0.0123
     22 C          69.0535   91.9618   14.8905 C.ar    1  UNL1        0.0694
     23 CL         70.7352   92.1580   14.4138 Cl      1  UNL1       -0.0813
     24 C          68.1695   91.1639   14.1406 C.ar    1  UNL1        0.0815
     25 CL         68.7242   90.3644   12.6700 Cl      1  UNL1       -0.0801
     26 C          62.6308   86.5814   13.7449 C.3     1  UNL1        0.1722
     27 C          61.3319   85.8258   15.4898 C.3     1  UNL1        0.1746
     28 O          61.4367   86.7906   14.4674 O.3     1  UNL1       -0.3462
     29 C          59.2865   83.4312    8.6747 C.3     1  UNL1        0.1535
     30 C          59.6078   81.9555    8.7417 C.2     1  UNL1        0.2443
     31 O          59.3574   81.2100    7.7547 O.2     1  UNL1       -0.2730
     32 N          60.3137   81.4354    9.8798 N.am    1  UNL1       -0.2825
     33 H          60.7213   82.1221   10.5544 H       1  UNL1        0.1549
     34 C          60.6559   80.0493   10.0431 C.ar    1  UNL1        0.0535
     35 C          59.8781   79.1897   10.8365 C.ar    1  UNL1        0.0353
     36 C          60.2583   77.8529   10.9793 C.ar    1  UNL1        0.1002
     37 N          61.3802   77.3927   10.3648 N.ar    1  UNL1       -0.2422
     38 C          62.1605   78.2064    9.6056 C.ar    1  UNL1        0.1002
     39 C          61.8172   79.5501    9.4382 C.ar    1  UNL1        0.0353
     40 C          57.8929   83.7139    9.2751 C.3     1  UNL1        0.0569
     41 C          57.8372   83.4802   10.7593 C.ar    1  UNL1       -0.0017
     42 C          57.7617   82.2469   11.3993 C.ar    1  UNL1        0.0681
     43 N          57.6663   82.4141   12.7378 N.ar    1  UNL1       -0.3523
     44 C          57.6801   83.7419   12.9484 C.ar    1  UNL1        0.0563
     45 C          57.5932   84.4037   14.1724 C.ar    1  UNL1        0.0170
     46 C          57.6173   85.8104   14.1627 C.ar    1  UNL1        0.0015
     47 C          57.7279   86.5161   12.9442 C.ar    1  UNL1        0.0001
     48 C          57.8152   85.8220   11.7241 C.ar    1  UNL1        0.0012
     49 C          57.7849   84.4270   11.7647 C.ar    1  UNL1        0.0131
     50 H          57.5897   81.6614   13.4574 H       1  UNL1        0.1660
@<TRIPOS>BOND
     1    27    28    1
     2    28    26    1
     3    26     5    1
     4     5     6   ar
     5     6    12    1
     6    12    13    1
     7    13    14    1
     8    14    15    1
     9    15    18    1
    10    18    19   ar
    11    19    20   ar
    12    20    21   ar
    13    21    22   ar
    14    22    23    1
    15    22    24   ar
    16    24    25    1
    17    15    16    1
    18    16    17    1
    19     6     7   ar
    20     7     8   ar
    21     8     9   ar
    22     9     1    1
    23     1     2    2
    24     1     3   am
    25     3    29    1
    26    29    40    1
    27    40    41    1
    28    41    42   ar
    29    42    43   ar
    30    43    44   ar
    31    44    45   ar
    32    45    46   ar
    33    46    47   ar
    34    47    48   ar
    35    48    49   ar
    36    29    30    1
    37    30    31    2
    38    30    32   am
    39    32    34    1
    40    34    35   ar
    41    35    36   ar
    42    36    37   ar
    43    37    38   ar
    44    38    39   ar
    45     9    10   ar
    46    10    11    1
    47    10     5   ar
    48    17    12    1
    49    49    41   ar
    50    39    34   ar
    51    24    18   ar
    52    49    44   ar
    53     3     4    1
    54    43    50    1
    55    32    33    1
@<TRIPOS>MOLECULE
*****
 50 55 0 0 0
SMALL
GASTEIGER

@<TRIPOS>ATOM
      1 C          59.1637   82.9263   12.6294 C.2     1  UNL1        0.2483
      2 O          57.9766   82.9809   13.0535 O.2     1  UNL1       -0.2701
      3 N          59.6354   81.7287   11.9900 N.am    1  UNL1       -0.2945
      4 H          60.5090   81.7902   11.4214 H       1  UNL1        0.1501
      5 C          60.8363   86.0679   14.0129 C.ar    1  UNL1        0.0482
      6 C          61.6937   86.3930   12.9402 C.ar    1  UNL1        0.0484
      7 C          61.7277   85.5768   11.8044 C.ar    1  UNL1        0.0146
      8 C          60.9076   84.4531   11.7161 C.ar    1  UNL1        0.0080
      9 C          60.0359   84.1189   12.7646 C.ar    1  UNL1        0.0806
     10 C          59.9928   84.9442   13.9082 C.ar    1  UNL1        0.1440
     11 F          59.1033   84.6920   14.9029 F       1  UNL1       -0.2042
     12 N          62.5222   87.5632   12.9909 N.pl3   1  UNL1       -0.3042
     13 C          62.5318   88.4888   11.8555 C.3     1  UNL1        0.1122
     14 C          63.9169   89.1198   11.7103 C.3     1  UNL1        0.1123
     15 N          64.3868   89.6092   13.0106 N.pl3   1  UNL1       -0.3034
     16 C          64.3741   88.6818   14.1463 C.3     1  UNL1        0.1123
     17 C          62.9891   88.0510   14.2913 C.3     1  UNL1        0.1122
     18 C          65.2301   90.7707   13.0552 C.ar    1  UNL1        0.0595
     19 C          65.8065   91.1680   14.2714 C.ar    1  UNL1        0.0154
     20 C          66.6364   92.2889   14.3252 C.ar    1  UNL1        0.0022
     21 C          66.8958   93.0237   13.1671 C.ar    1  UNL1        0.0123
     22 C          66.3235   92.6441   11.9480 C.ar    1  UNL1        0.0694
     23 CL         66.6688   93.6047   10.5156 Cl      1  UNL1       -0.0813
     24 C          65.4856   91.5151   11.8864 C.ar    1  UNL1        0.0815
     25 CL         64.7251   91.0551   10.3634 Cl      1  UNL1       -0.0801
     26 C          60.7667   86.9417   15.2408 C.3     1  UNL1        0.1722
     27 C          62.2957   86.1218   16.7550 C.3     1  UNL1        0.1746
     28 O          60.9352   86.1347   16.3862 O.3     1  UNL1       -0.3462
     29 C          58.8589   80.4789   11.9961 C.3     1  UNL1        0.1535
     30 C          58.4931   80.0443   10.5950 C.2     1  UNL1        0.2443
     31 O          57.6498   79.1218   10.4209 O.2     1  UNL1       -0.2730
     32 N          59.0119   80.7716    9.4699 N.am    1  UNL1       -0.2825
     33 H          59.5014   81.6756    9.6592 H       1  UNL1        0.1549
     34 C          58.7330   80.4323    8.1016 C.ar    1  UNL1        0.0535
     35 C          59.7533   80.0362    7.2209 C.ar    1  UNL1        0.0353
     36 C          59.4375   79.7312    5.8945 C.ar    1  UNL1        0.1002
     37 N          58.1539   79.8304    5.4582 N.ar    1  UNL1       -0.2422
     38 C          57.1501   80.2278    6.2839 C.ar    1  UNL1        0.1002
     39 C          57.4229   80.5436    7.6170 C.ar    1  UNL1        0.0353
     40 C          59.6109   79.3532   12.7375 C.3     1  UNL1        0.0569
     41 C          60.9589   79.7855   13.2442 C.ar    1  UNL1       -0.0017
     42 C          61.3899   79.7645   14.5670 C.ar    1  UNL1        0.0681
     43 N          62.6355   80.2816   14.6665 N.ar    1  UNL1       -0.3523
     44 C          62.9942   80.6295   13.4184 C.ar    1  UNL1        0.0563
     45 C          64.1933   81.2168   13.0170 C.ar    1  UNL1        0.0170
     46 C          64.3578   81.5086   11.6506 C.ar    1  UNL1        0.0015
     47 C          63.3327   81.2092   10.7262 C.ar    1  UNL1        0.0001
     48 C          62.1336   80.6154   11.1594 C.ar    1  UNL1        0.0012
     49 C          61.9975   80.3410   12.5212 C.ar    1  UNL1        0.0131
     50 H          63.1977   80.3932   15.5393 H       1  UNL1        0.1660
@<TRIPOS>BOND
     1    27    28    1
     2    28    26    1
     3    26     5    1
     4     5     6   ar
     5     6    12    1
     6    12    13    1
     7    13    14    1
     8    14    15    1
     9    15    18    1
    10    18    19   ar
    11    19    20   ar
    12    20    21   ar
    13    21    22   ar
    14    22    23    1
    15    22    24   ar
    16    24    25    1
    17    15    16    1
    18    16    17    1
    19     6     7   ar
    20     7     8   ar
    21     8     9   ar
    22     9     1    1
    23     1     2    2
    24     1     3   am
    25     3    29    1
    26    29    40    1
    27    40    41    1
    28    41    42   ar
    29    42    43   ar
    30    43    44   ar
    31    44    45   ar
    32    45    46   ar
    33    46    47   ar
    34    47    48   ar
    35    48    49   ar
    36    29    30    1
    37    30    31    2
    38    30    32   am
    39    32    34    1
    40    34    35   ar
    41    35    36   ar
    42    36    37   ar
    43    37    38   ar
    44    38    39   ar
    45     9    10   ar
    46    10    11    1
    47    10     5   ar
    48    17    12    1
    49    49    41   ar
    50    39    34   ar
    51    24    18   ar
    52    49    44   ar
    53     3     4    1
    54    43    50    1
    55    32    33    1
@<TRIPOS>MOLECULE
*****
 50 55 0 0 0
SMALL
GASTEIGER

@<TRIPOS>ATOM
      1 C          58.8469   85.6775   12.6815 C.2     1  UNL1        0.2483
      2 O          57.8162   85.9241   13.3662 O.2     1  UNL1       -0.2701
      3 N          58.8026   84.6531   11.6744 N.am    1  UNL1       -0.2945
      4 H          59.5587   84.6429   10.9543 H       1  UNL1        0.1501
      5 C          62.0300   87.6970   12.0726 C.ar    1  UNL1        0.0482
      6 C          62.4139   87.9738   13.4021 C.ar    1  UNL1        0.0484
      7 C          61.6230   87.5208   14.4635 C.ar    1  UNL1        0.0146
      8 C          60.4665   86.7820   14.2189 C.ar    1  UNL1        0.0080
      9 C          60.0735   86.4818   12.9049 C.ar    1  UNL1        0.0806
     10 C          60.8729   86.9300   11.8322 C.ar    1  UNL1        0.1440
     11 F          60.5620   86.5873   10.5554 F       1  UNL1       -0.2042
     12 N          63.6179   88.7019   13.6824 N.pl3   1  UNL1       -0.3042
     13 C          63.8176   90.0227   13.0811 C.3     1  UNL1        0.1122
     14 C          65.3045   90.2498   12.8063 C.3     1  UNL1        0.1123
     15 N          66.0955   89.8978   13.9901 N.pl3   1  UNL1       -0.3034
     16 C          65.8923   88.5762   14.5919 C.3     1  UNL1        0.1123
     17 C          64.4056   88.3492   14.8665 C.3     1  UNL1        0.1122
     18 C          67.3091   90.6177   14.2572 C.ar    1  UNL1        0.0595
     19 C          68.4454   90.3868   13.4668 C.ar    1  UNL1        0.0154
     20 C          69.6274   91.0881   13.7101 C.ar    1  UNL1        0.0022
     21 C          69.6859   92.0231   14.7448 C.ar    1  UNL1        0.0123
     22 C          68.5634   92.2600   15.5458 C.ar    1  UNL1        0.0694
     23 CL         68.6846   93.4390   16.8454 Cl      1  UNL1       -0.0813
     24 C          67.3684   91.5563   15.3064 C.ar    1  UNL1        0.0815
     25 CL         65.9622   91.8163   16.3383 Cl      1  UNL1       -0.0801
     26 C          62.8750   88.1577   10.9107 C.3     1  UNL1        0.1722
     27 C          63.2576   90.0480    9.6525 C.3     1  UNL1        0.1746
     28 O          62.2775   89.2996   10.3355 O.3     1  UNL1       -0.3462
     29 C          57.6663   83.7269   11.5478 C.3     1  UNL1        0.1535
     30 C          57.6206   83.0862   10.1793 C.2     1  UNL1        0.2443
     31 O          56.6606   83.3342    9.3985 O.2     1  UNL1       -0.2730
     32 N          58.7352   82.3001    9.7278 N.am    1  UNL1       -0.2825
     33 H          59.6106   82.3251   10.2986 H       1  UNL1        0.1549
     34 C          58.7841   81.6421    8.4512 C.ar    1  UNL1        0.0535
     35 C          59.8069   81.9097    7.5262 C.ar    1  UNL1        0.0353
     36 C          59.8051   81.2578    6.2904 C.ar    1  UNL1        0.1002
     37 N          58.8127   80.3813    5.9824 N.ar    1  UNL1       -0.2422
     38 C          57.8016   80.1167    6.8514 C.ar    1  UNL1        0.1002
     39 C          57.7648   80.7481    8.0969 C.ar    1  UNL1        0.0353
     40 C          57.6923   82.6503   12.6536 C.3     1  UNL1        0.0569
     41 C          58.9380   81.8091   12.6217 C.ar    1  UNL1       -0.0017
     42 C          60.2145   82.2082   13.0055 C.ar    1  UNL1        0.0681
     43 N          61.1059   81.2152   12.7867 N.ar    1  UNL1       -0.3523
     44 C          60.4037   80.1931   12.2675 C.ar    1  UNL1        0.0563
     45 C          60.8919   78.9498   11.8677 C.ar    1  UNL1        0.0170
     46 C          59.9759   78.0229   11.3377 C.ar    1  UNL1        0.0015
     47 C          58.6079   78.3547   11.2216 C.ar    1  UNL1        0.0001
     48 C          58.1431   79.6163   11.6342 C.ar    1  UNL1        0.0012
     49 C          59.0757   80.5164   12.1524 C.ar    1  UNL1        0.0131
     50 H          62.1323   81.2439   12.9769 H       1  UNL1        0.1660
@<TRIPOS>BOND
     1    27    28    1
     2    28    26    1
     3    26     5    1
     4     5     6   ar
     5     6    12    1
     6    12    13    1
     7    13    14    1
     8    14    15    1
     9    15    18    1
    10    18    19   ar
    11    19    20   ar
    12    20    21   ar
    13    21    22   ar
    14    22    23    1
    15    22    24   ar
    16    24    25    1
    17    15    16    1
    18    16    17    1
    19     6     7   ar
    20     7     8   ar
    21     8     9   ar
    22     9     1    1
    23     1     2    2
    24     1     3   am
    25     3    29    1
    26    29    40    1
    27    40    41    1
    28    41    42   ar
    29    42    43   ar
    30    43    44   ar
    31    44    45   ar
    32    45    46   ar
    33    46    47   ar
    34    47    48   ar
    35    48    49   ar
    36    29    30    1
    37    30    31    2
    38    30    32   am
    39    32    34    1
    40    34    35   ar
    41    35    36   ar
    42    36    37   ar
    43    37    38   ar
    44    38    39   ar
    45     9    10   ar
    46    10    11    1
    47    10     5   ar
    48    17    12    1
    49    49    41   ar
    50    39    34   ar
    51    24    18   ar
    52    49    44   ar
    53     3     4    1
    54    43    50    1
    55    32    33    1
@<TRIPOS>MOLECULE
*****
 50 55 0 0 0
SMALL
GASTEIGER

@<TRIPOS>ATOM
      1 C          58.9252   85.7419   12.4739 C.2     1  UNL1        0.2483
      2 O          57.8830   86.1513   13.0555 O.2     1  UNL1       -0.2701
      3 N          58.8341   84.6633   11.5284 N.am    1  UNL1       -0.2945
      4 H          59.6355   84.5175   10.8751 H       1  UNL1        0.1501
      5 C          61.8489   87.3890   14.2960 C.ar    1  UNL1        0.0482
      6 C          62.6749   87.7231   13.2016 C.ar    1  UNL1        0.0484
      7 C          62.2782   87.3882   11.9025 C.ar    1  UNL1        0.0146
      8 C          61.0638   86.7418   11.6782 C.ar    1  UNL1        0.0080
      9 C          60.2191   86.4132   12.7504 C.ar    1  UNL1        0.0806
     10 C          60.6119   86.7567   14.0613 C.ar    1  UNL1        0.1440
     11 F          59.7806   86.5239   15.1096 F       1  UNL1       -0.2042
     12 N          63.9132   88.4196   13.4019 N.pl3   1  UNL1       -0.3042
     13 C          64.9334   87.8379   14.2774 C.3     1  UNL1        0.1122
     14 C          65.7110   88.9506   14.9811 C.3     1  UNL1        0.1123
     15 N          66.1261   89.9678   14.0095 N.pl3   1  UNL1       -0.3034
     16 C          65.1037   90.5470   13.1324 C.3     1  UNL1        0.1123
     17 C          64.3264   89.4343   12.4289 C.3     1  UNL1        0.1122
     18 C          67.3577   90.6747   14.2232 C.ar    1  UNL1        0.0595
     19 C          68.4611   90.4199   13.3944 C.ar    1  UNL1        0.0154
     20 C          69.6601   91.1084   13.5856 C.ar    1  UNL1        0.0022
     21 C          69.7687   92.0543   14.6063 C.ar    1  UNL1        0.0123
     22 C          68.6795   92.3150   15.4452 C.ar    1  UNL1        0.0694
     23 CL         68.8637   93.5072   16.7252 Cl      1  UNL1       -0.0813
     24 C          67.4677   91.6244   15.2583 C.ar    1  UNL1        0.0815
     25 CL         66.1040   91.9146   16.3380 Cl      1  UNL1       -0.0801
     26 C          62.2444   87.7555   15.7050 C.3     1  UNL1        0.1722
     27 C          62.7368   89.9077   16.3594 C.3     1  UNL1        0.1746
     28 O          61.6976   89.0179   16.0196 O.3     1  UNL1       -0.3462
     29 C          57.6077   83.8674   11.3629 C.3     1  UNL1        0.1535
     30 C          57.5558   83.2008   10.0070 C.2     1  UNL1        0.2443
     31 O          56.6301   83.4872    9.1985 O.2     1  UNL1       -0.2730
     32 N          58.6324   82.3417    9.5986 N.am    1  UNL1       -0.2825
     33 H          59.4945   82.3281   10.1897 H       1  UNL1        0.1549
     34 C          58.6719   81.6543    8.3372 C.ar    1  UNL1        0.0535
     35 C          57.6683   80.7444    7.9654 C.ar    1  UNL1        0.0353
     36 C          57.7566   80.0871    6.7356 C.ar    1  UNL1        0.1002
     37 N          58.8134   80.3180    5.9124 N.ar    1  UNL1       -0.2422
     38 C          59.8072   81.1799    6.2545 C.ar    1  UNL1        0.1002
     39 C          59.7584   81.8565    7.4757 C.ar    1  UNL1        0.0353
     40 C          57.4583   82.8235   12.4900 C.3     1  UNL1        0.0569
     41 C          58.6584   81.9271   12.6198 C.ar    1  UNL1       -0.0017
     42 C          59.8854   82.2655   13.1821 C.ar    1  UNL1        0.0681
     43 N          60.7543   81.2348   13.0758 N.ar    1  UNL1       -0.3523
     44 C          60.0870   80.2491   12.4507 C.ar    1  UNL1        0.0563
     45 C          60.5713   78.9880   12.1060 C.ar    1  UNL1        0.0170
     46 C          59.6982   78.1071   11.4419 C.ar    1  UNL1        0.0015
     47 C          58.3754   78.5011   11.1418 C.ar    1  UNL1        0.0001
     48 C          57.9134   79.7795   11.5027 C.ar    1  UNL1        0.0012
     49 C          58.8033   80.6329   12.1571 C.ar    1  UNL1        0.0131
     50 H          61.7445   81.2158   13.4067 H       1  UNL1        0.1660
@<TRIPOS>BOND
     1    27    28    1
     2    28    26    1
     3    26     5    1
     4     5     6   ar
     5     6    12    1
     6    12    13    1
     7    13    14    1
     8    14    15    1
     9    15    18    1
    10    18    19   ar
    11    19    20   ar
    12    20    21   ar
    13    21    22   ar
    14    22    23    1
    15    22    24   ar
    16    24    25    1
    17    15    16    1
    18    16    17    1
    19     6     7   ar
    20     7     8   ar
    21     8     9   ar
    22     9     1    1
    23     1     2    2
    24     1     3   am
    25     3    29    1
    26    29    40    1
    27    40    41    1
    28    41    42   ar
    29    42    43   ar
    30    43    44   ar
    31    44    45   ar
    32    45    46   ar
    33    46    47   ar
    34    47    48   ar
    35    48    49   ar
    36    29    30    1
    37    30    31    2
    38    30    32   am
    39    32    34    1
    40    34    35   ar
    41    35    36   ar
    42    36    37   ar
    43    37    38   ar
    44    38    39   ar
    45     9    10   ar
    46    10    11    1
    47    10     5   ar
    48    17    12    1
    49    49    41   ar
    50    39    34   ar
    51    24    18   ar
    52    49    44   ar
    53     3     4    1
    54    43    50    1
    55    32    33    1
@<TRIPOS>MOLECULE
*****
 50 55 0 0 0
SMALL
GASTEIGER

@<TRIPOS>ATOM
      1 C          58.8020   85.1846   10.8560 C.2     1  UNL1        0.2483
      2 O          57.8593   84.3474   10.8080 O.2     1  UNL1       -0.2701
      3 N          59.6145   85.2726   12.0383 N.am    1  UNL1       -0.2945
      4 H          60.5311   85.7675   11.9653 H       1  UNL1        0.1501
      5 C          60.2486   87.8845    8.5759 C.ar    1  UNL1        0.0482
      6 C          59.5223   87.6338    7.3922 C.ar    1  UNL1        0.0484
      7 C          58.5986   86.5839    7.3517 C.ar    1  UNL1        0.0146
      8 C          58.3765   85.7932    8.4780 C.ar    1  UNL1        0.0080
      9 C          59.0766   86.0339    9.6709 C.ar    1  UNL1        0.0806
     10 C          60.0031   87.0970    9.7181 C.ar    1  UNL1        0.1440
     11 F          60.6358   87.4042   10.8798 F       1  UNL1       -0.2042
     12 N          59.7063   88.4546    6.2299 N.pl3   1  UNL1       -0.3042
     13 C          60.7892   88.1447    5.2933 C.3     1  UNL1        0.1122
     14 C          61.3259   89.4352    4.6732 C.3     1  UNL1        0.1123
     15 N          60.2148   90.2678    4.2009 N.pl3   1  UNL1       -0.3034
     16 C          59.1307   90.5747    5.1393 C.3     1  UNL1        0.1123
     17 C          58.5942   89.2843    5.7592 C.3     1  UNL1        0.1122
     18 C          60.4089   91.1008    3.0474 C.ar    1  UNL1        0.0595
     19 C          59.2987   91.6565    2.3934 C.ar    1  UNL1        0.0154
     20 C          59.4754   92.4764    1.2777 C.ar    1  UNL1        0.0022
     21 C          60.7605   92.7463    0.8043 C.ar    1  UNL1        0.0123
     22 C          61.8773   92.1946    1.4416 C.ar    1  UNL1        0.0694
     23 CL         63.4775   92.5525    0.8050 Cl      1  UNL1       -0.0813
     24 C          61.7065   91.3669    2.5668 C.ar    1  UNL1        0.0815
     25 CL         63.1053   90.6319    3.3496 Cl      1  UNL1       -0.0801
     26 C          61.2368   89.0220    8.6519 C.3     1  UNL1        0.1722
     27 C          63.0096   89.4614   10.0543 C.3     1  UNL1        0.1746
     28 O          62.4628   88.5301    9.1483 O.3     1  UNL1       -0.3462
     29 C          59.2632   84.5742   13.2847 C.3     1  UNL1        0.1535
     30 C          58.6766   83.2080   13.0107 C.2     1  UNL1        0.2443
     31 O          57.5008   82.9404   13.3825 O.2     1  UNL1       -0.2730
     32 N          59.4156   82.2666   12.2159 N.am    1  UNL1       -0.2825
     33 H          60.2685   82.6126   11.7204 H       1  UNL1        0.1549
     34 C          58.9510   80.9419   11.9085 C.ar    1  UNL1        0.0535
     35 C          59.1307   79.8748   12.8043 C.ar    1  UNL1        0.0353
     36 C          58.6768   78.6001   12.4560 C.ar    1  UNL1        0.1002
     37 N          58.0779   78.3936   11.2533 N.ar    1  UNL1       -0.2422
     38 C          57.9068   79.4041   10.3605 C.ar    1  UNL1        0.1002
     39 C          58.3475   80.6934   10.6685 C.ar    1  UNL1        0.0353
     40 C          60.4781   84.4665   14.2308 C.3     1  UNL1        0.0569
     41 C          61.6923   83.8870   13.5597 C.ar    1  UNL1       -0.0017
     42 C          62.3517   84.4089   12.4511 C.ar    1  UNL1        0.0681
     43 N          63.3666   83.5963   12.0790 N.ar    1  UNL1       -0.3523
     44 C          63.3532   82.5658   12.9423 C.ar    1  UNL1        0.0563
     45 C          64.2074   81.4640   12.9555 C.ar    1  UNL1        0.0170
     46 C          64.0085   80.4894   13.9504 C.ar    1  UNL1        0.0015
     47 C          62.9732   80.6365   14.8999 C.ar    1  UNL1        0.0001
     48 C          62.1271   81.7594   14.8633 C.ar    1  UNL1        0.0012
     49 C          62.3461   82.7076   13.8627 C.ar    1  UNL1        0.0131
     50 H          64.0206   83.7404   11.2778 H       1  UNL1        0.1660
@<TRIPOS>BOND
     1    27    28    1
     2    28    26    1
     3    26     5    1
     4     5     6   ar
     5     6    12    1
     6    12    13    1
     7    13    14    1
     8    14    15    1
     9    15    18    1
    10    18    19   ar
    11    19    20   ar
    12    20    21   ar
    13    21    22   ar
    14    22    23    1
    15    22    24   ar
    16    24    25    1
    17    15    16    1
    18    16    17    1
    19     6     7   ar
    20     7     8   ar
    21     8     9   ar
    22     9     1    1
    23     1     2    2
    24     1     3   am
    25     3    29    1
    26    29    40    1
    27    40    41    1
    28    41    42   ar
    29    42    43   ar
    30    43    44   ar
    31    44    45   ar
    32    45    46   ar
    33    46    47   ar
    34    47    48   ar
    35    48    49   ar
    36    29    30    1
    37    30    31    2
    38    30    32   am
    39    32    34    1
    40    34    35   ar
    41    35    36   ar
    42    36    37   ar
    43    37    38   ar
    44    38    39   ar
    45     9    10   ar
    46    10    11    1
    47    10     5   ar
    48    17    12    1
    49    49    41   ar
    50    39    34   ar
    51    24    18   ar
    52    49    44   ar
    53     3     4    1
    54    43    50    1
    55    32    33    1
@<TRIPOS>MOLECULE
*****
 50 55 0 0 0
SMALL
GASTEIGER

@<TRIPOS>ATOM
      1 C          59.0519   82.8537   12.6884 C.2     1  UNL1        0.2483
      2 O          57.9584   82.8037   13.3159 O.2     1  UNL1       -0.2701
      3 N          59.4485   81.7463   11.8626 N.am    1  UNL1       -0.2945
      4 H          60.2036   81.9071   11.1594 H       1  UNL1        0.1501
      5 C          60.5947   86.2691   11.9563 C.ar    1  UNL1        0.0482
      6 C          61.5310   86.3561   13.0086 C.ar    1  UNL1        0.0484
      7 C          61.6261   85.3193   13.9430 C.ar    1  UNL1        0.0146
      8 C          60.8147   84.1913   13.8331 C.ar    1  UNL1        0.0080
      9 C          59.8867   84.0764   12.7858 C.ar    1  UNL1        0.0806
     10 C          59.7936   85.1163   11.8368 C.ar    1  UNL1        0.1440
     11 F          58.9630   84.9979   10.7689 F       1  UNL1       -0.2042
     12 N          62.4024   87.4901   13.1244 N.pl3   1  UNL1       -0.3042
     13 C          62.5053   88.4362   12.0107 C.3     1  UNL1        0.1122
     14 C          63.9201   89.0123   11.9465 C.3     1  UNL1        0.1123
     15 N          64.3444   89.4568   13.2782 N.pl3   1  UNL1       -0.3034
     16 C          64.2383   88.5090   14.3920 C.3     1  UNL1        0.1123
     17 C          62.8236   87.9331   14.4560 C.3     1  UNL1        0.1122
     18 C          65.2305   90.5815   13.3885 C.ar    1  UNL1        0.0595
     19 C          65.8290   90.8797   14.6222 C.ar    1  UNL1        0.0154
     20 C          66.7002   91.9639   14.7391 C.ar    1  UNL1        0.0022
     21 C          66.9793   92.7603   13.6273 C.ar    1  UNL1        0.0123
     22 C          66.3855   92.4798   12.3917 C.ar    1  UNL1        0.0694
     23 CL         66.7569   93.5158   11.0197 Cl      1  UNL1       -0.0813
     24 C          65.5059   91.3884   12.2667 C.ar    1  UNL1        0.0815
     25 CL         64.7190   91.0538   10.7244 Cl      1  UNL1       -0.0801
     26 C          60.4850   87.3646   10.9248 C.3     1  UNL1        0.1722
     27 C          60.4824   87.8022    8.6640 C.3     1  UNL1        0.1746
     28 O          60.6714   86.8053    9.6425 O.3     1  UNL1       -0.3462
     29 C          58.7353   80.4594   11.8814 C.3     1  UNL1        0.1535
     30 C          58.4072   79.9847   10.4841 C.2     1  UNL1        0.2443
     31 O          57.6087   79.0220   10.3163 O.2     1  UNL1       -0.2730
     32 N          58.9068   80.7154    9.3525 N.am    1  UNL1       -0.2825
     33 H          59.3524   81.6438    9.5315 H       1  UNL1        0.1549
     34 C          58.6608   80.3404    7.9872 C.ar    1  UNL1        0.0535
     35 C          59.6968   79.8922    7.1510 C.ar    1  UNL1        0.0353
     36 C          59.4135   79.5536    5.8254 C.ar    1  UNL1        0.1002
     37 N          58.1466   79.6703    5.3467 N.ar    1  UNL1       -0.2422
     38 C          57.1287   80.1177    6.1285 C.ar    1  UNL1        0.1002
     39 C          57.3691   80.4683    7.4592 C.ar    1  UNL1        0.0353
     40 C          59.5342   79.3848   12.6492 C.3     1  UNL1        0.0569
     41 C          60.8706   79.8802   13.1278 C.ar    1  UNL1       -0.0017
     42 C          61.2856   79.9892   14.4514 C.ar    1  UNL1        0.0681
     43 N          62.5236   80.5294   14.5155 N.ar    1  UNL1       -0.3523
     44 C          62.8935   80.7631   13.2443 C.ar    1  UNL1        0.0563
     45 C          64.0904   81.3256   12.8027 C.ar    1  UNL1        0.0170
     46 C          64.2681   81.4898   11.4168 C.ar    1  UNL1        0.0015
     47 C          63.2580   81.0916   10.5134 C.ar    1  UNL1        0.0001
     48 C          62.0609   80.5257   10.9873 C.ar    1  UNL1        0.0012
     49 C          61.9114   80.3787   12.3673 C.ar    1  UNL1        0.0131
     50 H          63.0737   80.7298   15.3802 H       1  UNL1        0.1660
@<TRIPOS>BOND
     1    27    28    1
     2    28    26    1
     3    26     5    1
     4     5     6   ar
     5     6    12    1
     6    12    13    1
     7    13    14    1
     8    14    15    1
     9    15    18    1
    10    18    19   ar
    11    19    20   ar
    12    20    21   ar
    13    21    22   ar
    14    22    23    1
    15    22    24   ar
    16    24    25    1
    17    15    16    1
    18    16    17    1
    19     6     7   ar
    20     7     8   ar
    21     8     9   ar
    22     9     1    1
    23     1     2    2
    24     1     3   am
    25     3    29    1
    26    29    40    1
    27    40    41    1
    28    41    42   ar
    29    42    43   ar
    30    43    44   ar
    31    44    45   ar
    32    45    46   ar
    33    46    47   ar
    34    47    48   ar
    35    48    49   ar
    36    29    30    1
    37    30    31    2
    38    30    32   am
    39    32    34    1
    40    34    35   ar
    41    35    36   ar
    42    36    37   ar
    43    37    38   ar
    44    38    39   ar
    45     9    10   ar
    46    10    11    1
    47    10     5   ar
    48    17    12    1
    49    49    41   ar
    50    39    34   ar
    51    24    18   ar
    52    49    44   ar
    53     3     4    1
    54    43    50    1
    55    32    33    1
