@<TRIPOS>MOLECULE
*****
 45 50 0 0 0
SMALL
GASTEIGER

@<TRIPOS>ATOM
      1 C          -8.6116  -13.3299   29.0282 C.ar    1  UNL1        0.1318
      2 C          -9.3735  -14.2823   28.3332 C.ar    1  UNL1        0.0356
      3 C          -8.7659  -15.0699   27.3542 C.ar    1  UNL1        0.0191
      4 C          -7.3959  -14.9260   27.0833 C.ar    1  UNL1        0.0702
      5 C          -6.6718  -13.9630   27.7977 C.ar    1  UNL1        0.1149
      6 N          -7.2847  -13.2066   28.7461 N.ar    1  UNL1       -0.2279
      7 C         -10.8625  -10.4232   30.8800 C.3     1  UNL1        0.0471
      8 C         -11.0796  -11.8049   31.5251 C.3     1  UNL1        0.0252
      9 C         -10.4980  -12.9059   30.6253 C.3     1  UNL1        0.0923
     10 N          -9.1986  -12.5136   30.0593 N.pl3   1  UNL1       -0.2932
     11 C          -8.4722  -11.3798   30.6482 C.3     1  UNL1        0.0923
     12 C          -9.3530  -10.1195   30.6678 C.3     1  UNL1        0.0252
     13 C         -11.5433   -9.3254   31.7099 C.3     1  UNL1        0.2054
     14 O         -10.5841   -8.3351   32.0751 O.3     1  UNL1       -0.4758
     15 C          -7.8814   -7.4702   32.0097 C.3     1  UNL1        0.0344
     16 C          -8.9561   -6.7303   31.2471 C.ar    1  UNL1        0.0183
     17 C         -10.2959   -7.1795   31.3297 C.ar    1  UNL1        0.1347
     18 C         -11.3110   -6.4649   30.6685 C.ar    1  UNL1        0.0366
     19 C         -11.0063   -5.3270   29.9283 C.ar    1  UNL1        0.0033
     20 C          -9.6878   -4.8952   29.8165 C.ar    1  UNL1        0.0063
     21 C          -8.6447   -5.5934   30.4495 C.ar    1  UNL1        0.0744
     22 C          -7.2548   -5.1122   30.2434 C.2     1  UNL1        0.3378
     23 O          -6.3785   -5.8947   29.7855 O.2     1  UNL1       -0.2451
     24 O          -6.8882   -3.8150   30.5908 O.3     1  UNL1       -0.4771
     25 H          -5.9372   -3.4907   30.4626 H       1  UNL1        0.2954
     26 N          -6.7395  -15.7023   26.0663 N.am    1  UNL1       -0.2766
     27 C          -6.5482  -15.2515   24.7171 C.2     1  UNL1        0.2839
     28 O          -7.3347  -14.4014   24.2196 O.2     1  UNL1       -0.2665
     29 H          -6.4843  -16.6900   26.2903 H       1  UNL1        0.1553
     30 C          -5.4935  -15.8260   23.8634 C.ar    1  UNL1        0.1946
     31 O          -5.4452  -15.6151   22.5598 O.2     1  UNL1       -0.4492
     32 C          -4.4083  -16.2609   22.0851 C.ar    1  UNL1        0.1452
     33 C          -3.9828  -16.3214   20.7626 C.ar    1  UNL1        0.0375
     34 C          -2.8358  -17.0809   20.4726 C.ar    1  UNL1        0.0031
     35 C          -2.1351  -17.7652   21.5027 C.ar    1  UNL1        0.0002
     36 C          -2.6021  -17.6766   22.8361 C.ar    1  UNL1        0.0028
     37 C          -3.7429  -16.9136   23.0869 C.ar    1  UNL1        0.0337
     38 C          -4.4184  -16.6326   24.2578 C.ar    1  UNL1        0.0202
     39 C          -4.0577  -17.0987   25.6360 C.3     1  UNL1        0.0345
     40 C          -0.9255  -18.5656   21.1844 C.ar    1  UNL1        0.0000
     41 C          -0.8115  -19.8974   21.6267 C.ar    1  UNL1        0.0000
     42 C           0.3283  -20.6489   21.3245 C.ar    1  UNL1        0.0000
     43 C           1.3649  -20.0819   20.5801 C.ar    1  UNL1        0.0000
     44 C           1.2640  -18.7617   20.1358 C.ar    1  UNL1        0.0000
     45 C           0.1263  -18.0057   20.4342 C.ar    1  UNL1        0.0000
@<TRIPOS>BOND
     1    15    16    1
     2    16    17   ar
     3    17    14    1
     4    14    13    1
     5    13     7    1
     6     7     8    1
     7     8     9    1
     8     9    10    1
     9    10     1    1
    10     1     2   ar
    11     2     3   ar
    12     3     4   ar
    13     4    26    1
    14    26    27   am
    15    27    28    2
    16    27    30    1
    17    30    31   ar
    18    31    32   ar
    19    32    33   ar
    20    33    34   ar
    21    34    35   ar
    22    35    40    1
    23    40    41   ar
    24    41    42   ar
    25    42    43   ar
    26    43    44   ar
    27    44    45   ar
    28    35    36   ar
    29    36    37   ar
    30    37    38   ar
    31    38    39    1
    32     4     5   ar
    33     5     6   ar
    34    10    11    1
    35    11    12    1
    36    17    18   ar
    37    18    19   ar
    38    19    20   ar
    39    20    21   ar
    40    21    22    1
    41    22    23    2
    42    22    24    1
    43    21    16   ar
    44    12     7    1
    45     6     1   ar
    46    38    30   ar
    47    37    32   ar
    48    45    40   ar
    49    26    29    1
    50    24    25    1
@<TRIPOS>MOLECULE
*****
 45 50 0 0 0
SMALL
GASTEIGER

@<TRIPOS>ATOM
      1 C          -7.9276  -13.3129   28.5404 C.ar    1  UNL1        0.1318
      2 C          -8.6759  -14.3555   27.9715 C.ar    1  UNL1        0.0356
      3 C          -8.0698  -15.2208   27.0594 C.ar    1  UNL1        0.0191
      4 C          -6.7140  -15.0628   26.7312 C.ar    1  UNL1        0.0702
      5 C          -6.0033  -14.0088   27.3195 C.ar    1  UNL1        0.1149
      6 N          -6.6144  -13.1779   28.2046 N.ar    1  UNL1       -0.2279
      7 C          -9.1890  -11.7325   32.1260 C.3     1  UNL1        0.0471
      8 C          -8.3833  -10.7068   31.3066 C.3     1  UNL1        0.0252
      9 C          -7.6566  -11.4082   30.1490 C.3     1  UNL1        0.0923
     10 N          -8.5125  -12.4131   29.5008 N.pl3   1  UNL1       -0.2932
     11 C          -9.9610  -12.3889   29.7478 C.3     1  UNL1        0.0923
     12 C         -10.2578  -12.4505   31.2554 C.3     1  UNL1        0.0252
     13 C          -9.8235  -11.0654   33.3546 C.3     1  UNL1        0.2054
     14 O         -11.1743  -11.5013   33.4936 O.3     1  UNL1       -0.4758
     15 C         -13.3797  -12.6100   32.0921 C.3     1  UNL1        0.0344
     16 C         -12.6453  -13.4058   33.1465 C.ar    1  UNL1        0.0183
     17 C         -11.5684  -12.8045   33.8409 C.ar    1  UNL1        0.1347
     18 C         -10.9148  -13.5173   34.8621 C.ar    1  UNL1        0.0366
     19 C         -11.3133  -14.8100   35.1875 C.ar    1  UNL1        0.0033
     20 C         -12.3514  -15.4205   34.4896 C.ar    1  UNL1        0.0063
     21 C         -13.0169  -14.7453   33.4516 C.ar    1  UNL1        0.0744
     22 C         -14.0774  -15.4743   32.7100 C.2     1  UNL1        0.3378
     23 O         -13.7959  -16.0790   31.6399 O.2     1  UNL1       -0.2451
     24 O         -15.3963  -15.4652   33.1550 O.3     1  UNL1       -0.4771
     25 H         -16.1222  -15.9514   32.6422 H       1  UNL1        0.2954
     26 N          -6.0607  -15.9191   25.7786 N.am    1  UNL1       -0.2766
     27 C          -5.7535  -15.5274   24.4323 C.2     1  UNL1        0.2839
     28 O          -6.4391  -14.6355   23.8638 O.2     1  UNL1       -0.2665
     29 H          -5.8981  -16.9160   26.0445 H       1  UNL1        0.1553
     30 C          -4.6978  -16.2082   23.6620 C.ar    1  UNL1        0.1946
     31 O          -4.5377  -16.0223   22.3636 O.2     1  UNL1       -0.4492
     32 C          -3.5332  -16.7668   21.9706 C.ar    1  UNL1        0.1452
     33 C          -3.0219  -16.8856   20.6829 C.ar    1  UNL1        0.0375
     34 C          -1.9317  -17.7505   20.4831 C.ar    1  UNL1        0.0031
     35 C          -1.3719  -18.4800   21.5670 C.ar    1  UNL1        0.0002
     36 C          -1.9226  -18.3292   22.8623 C.ar    1  UNL1        0.0028
     37 C          -3.0035  -17.4619   23.0234 C.ar    1  UNL1        0.0337
     38 C          -3.7320  -17.1031   24.1400 C.ar    1  UNL1        0.0202
     39 C          -3.5147  -17.5792   25.5446 C.3     1  UNL1        0.0345
     40 C          -0.2212  -19.3917   21.3437 C.ar    1  UNL1        0.0000
     41 C           1.0398  -18.8784   20.9850 C.ar    1  UNL1        0.0000
     42 C           2.1218  -19.7392   20.7765 C.ar    1  UNL1        0.0000
     43 C           1.9585  -21.1185   20.9224 C.ar    1  UNL1        0.0000
     44 C           0.7127  -21.6402   21.2776 C.ar    1  UNL1        0.0000
     45 C          -0.3726  -20.7841   21.4882 C.ar    1  UNL1        0.0000
@<TRIPOS>BOND
     1    15    16    1
     2    16    17   ar
     3    17    14    1
     4    14    13    1
     5    13     7    1
     6     7     8    1
     7     8     9    1
     8     9    10    1
     9    10     1    1
    10     1     2   ar
    11     2     3   ar
    12     3     4   ar
    13     4    26    1
    14    26    27   am
    15    27    28    2
    16    27    30    1
    17    30    31   ar
    18    31    32   ar
    19    32    33   ar
    20    33    34   ar
    21    34    35   ar
    22    35    40    1
    23    40    41   ar
    24    41    42   ar
    25    42    43   ar
    26    43    44   ar
    27    44    45   ar
    28    35    36   ar
    29    36    37   ar
    30    37    38   ar
    31    38    39    1
    32     4     5   ar
    33     5     6   ar
    34    10    11    1
    35    11    12    1
    36    17    18   ar
    37    18    19   ar
    38    19    20   ar
    39    20    21   ar
    40    21    22    1
    41    22    23    2
    42    22    24    1
    43    21    16   ar
    44    12     7    1
    45     6     1   ar
    46    38    30   ar
    47    37    32   ar
    48    45    40   ar
    49    26    29    1
    50    24    25    1
@<TRIPOS>MOLECULE
*****
 45 50 0 0 0
SMALL
GASTEIGER

@<TRIPOS>ATOM
      1 C          -8.0117  -13.4587   28.5388 C.ar    1  UNL1        0.1318
      2 C          -8.7601  -14.4955   27.9597 C.ar    1  UNL1        0.0356
      3 C          -8.1561  -15.3478   27.0343 C.ar    1  UNL1        0.0191
      4 C          -6.8019  -15.1828   26.7026 C.ar    1  UNL1        0.0702
      5 C          -6.0910  -14.1349   27.3013 C.ar    1  UNL1        0.1149
      6 N          -6.7002  -13.3166   28.1994 N.ar    1  UNL1       -0.2279
      7 C          -9.3670  -11.9774   32.1324 C.3     1  UNL1        0.0471
      8 C          -8.4642  -10.9629   31.4055 C.3     1  UNL1        0.0252
      9 C          -7.7187  -11.6503   30.2515 C.3     1  UNL1        0.0923
     10 N          -8.5945  -12.5724   29.5130 N.pl3   1  UNL1       -0.2932
     11 C         -10.0503  -12.4756   29.6897 C.3     1  UNL1        0.0923
     12 C         -10.4276  -12.5905   31.1759 C.3     1  UNL1        0.0252
     13 C         -10.0261  -11.3328   33.3602 C.3     1  UNL1        0.2054
     14 O          -9.9422   -9.9126   33.2600 O.3     1  UNL1       -0.4758
     15 C          -8.6211   -7.8492   31.8267 C.3     1  UNL1        0.0344
     16 C         -10.1018   -8.0962   31.6517 C.ar    1  UNL1        0.0183
     17 C         -10.7261   -9.1177   32.4069 C.ar    1  UNL1        0.1347
     18 C         -12.1135   -9.3184   32.2921 C.ar    1  UNL1        0.0366
     19 C         -12.8731   -8.5269   31.4363 C.ar    1  UNL1        0.0033
     20 C         -12.2631   -7.5402   30.6672 C.ar    1  UNL1        0.0063
     21 C         -10.8764   -7.3218   30.7429 C.ar    1  UNL1        0.0744
     22 C         -10.2809   -6.2918   29.8539 C.2     1  UNL1        0.3378
     23 O          -9.6584   -6.6403   28.8142 O.2     1  UNL1       -0.2451
     24 O         -10.3600   -4.9392   30.1734 O.3     1  UNL1       -0.4771
     25 H          -9.9426   -4.2373   29.5740 H       1  UNL1        0.2954
     26 N          -6.1507  -16.0256   25.7364 N.am    1  UNL1       -0.2766
     27 C          -5.7926  -15.5955   24.4147 C.2     1  UNL1        0.2839
     28 O          -6.4316  -14.6603   23.8618 O.2     1  UNL1       -0.2665
     29 H          -6.0292  -17.0366   25.9690 H       1  UNL1        0.1553
     30 C          -4.7387  -16.2835   23.6483 C.ar    1  UNL1        0.1946
     31 O          -4.6068  -16.1409   22.3412 O.2     1  UNL1       -0.4492
     32 C          -3.5958  -16.8801   21.9551 C.ar    1  UNL1        0.1452
     33 C          -3.1068  -17.0351   20.6626 C.ar    1  UNL1        0.0375
     34 C          -2.0041  -17.8861   20.4720 C.ar    1  UNL1        0.0031
     35 C          -1.4099  -18.5661   21.5696 C.ar    1  UNL1        0.0002
     36 C          -1.9388  -18.3796   22.8694 C.ar    1  UNL1        0.0028
     37 C          -3.0330  -17.5274   23.0211 C.ar    1  UNL1        0.0337
     38 C          -3.7470  -17.1427   24.1385 C.ar    1  UNL1        0.0202
     39 C          -3.4940  -17.5646   25.5544 C.3     1  UNL1        0.0345
     40 C          -0.2463  -19.4636   21.3561 C.ar    1  UNL1        0.0000
     41 C          -0.3664  -20.8518   21.5581 C.ar    1  UNL1        0.0000
     42 C           0.7308  -21.6946   21.3552 C.ar    1  UNL1        0.0000
     43 C           1.9573  -21.1636   20.9502 C.ar    1  UNL1        0.0000
     44 C           2.0894  -19.7882   20.7468 C.ar    1  UNL1        0.0000
     45 C           0.9954  -18.9407   20.9472 C.ar    1  UNL1        0.0000
@<TRIPOS>BOND
     1    15    16    1
     2    16    17   ar
     3    17    14    1
     4    14    13    1
     5    13     7    1
     6     7     8    1
     7     8     9    1
     8     9    10    1
     9    10     1    1
    10     1     2   ar
    11     2     3   ar
    12     3     4   ar
    13     4    26    1
    14    26    27   am
    15    27    28    2
    16    27    30    1
    17    30    31   ar
    18    31    32   ar
    19    32    33   ar
    20    33    34   ar
    21    34    35   ar
    22    35    40    1
    23    40    41   ar
    24    41    42   ar
    25    42    43   ar
    26    43    44   ar
    27    44    45   ar
    28    35    36   ar
    29    36    37   ar
    30    37    38   ar
    31    38    39    1
    32     4     5   ar
    33     5     6   ar
    34    10    11    1
    35    11    12    1
    36    17    18   ar
    37    18    19   ar
    38    19    20   ar
    39    20    21   ar
    40    21    22    1
    41    22    23    2
    42    22    24    1
    43    21    16   ar
    44    12     7    1
    45     6     1   ar
    46    38    30   ar
    47    37    32   ar
    48    45    40   ar
    49    26    29    1
    50    24    25    1
@<TRIPOS>MOLECULE
*****
 45 50 0 0 0
SMALL
GASTEIGER

@<TRIPOS>ATOM
      1 C          -8.0360  -13.9367   28.1380 C.ar    1  UNL1        0.1318
      2 C          -8.7794  -14.8417   27.3641 C.ar    1  UNL1        0.0356
      3 C          -8.1354  -15.6085   26.3920 C.ar    1  UNL1        0.0191
      4 C          -6.7488  -15.4916   26.2059 C.ar    1  UNL1        0.0702
      5 C          -6.0440  -14.5757   26.9974 C.ar    1  UNL1        0.1149
      6 N          -6.6923  -13.8388   27.9375 N.ar    1  UNL1       -0.2279
      7 C         -10.1552  -10.9261   29.9792 C.3     1  UNL1        0.0471
      8 C         -10.6346  -12.3171   30.4349 C.3     1  UNL1        0.0252
      9 C         -10.0687  -13.4020   29.5060 C.3     1  UNL1        0.0923
     10 N          -8.6618  -13.1438   29.1646 N.pl3   1  UNL1       -0.2932
     11 C          -7.8944  -12.1794   29.9652 C.3     1  UNL1        0.0923
     12 C          -8.6050  -10.8163   30.0046 C.3     1  UNL1        0.0252
     13 C         -10.8086   -9.8243   30.8257 C.3     1  UNL1        0.2054
     14 O         -11.5896  -10.4151   31.8625 O.3     1  UNL1       -0.4758
     15 C         -13.2376  -12.6288   32.5265 C.3     1  UNL1        0.0344
     16 C         -11.8793  -12.4482   33.1641 C.ar    1  UNL1        0.0183
     17 C         -11.1018  -11.3150   32.8251 C.ar    1  UNL1        0.1347
     18 C          -9.8610  -11.1092   33.4546 C.ar    1  UNL1        0.0366
     19 C          -9.3899  -12.0149   34.3998 C.ar    1  UNL1        0.0033
     20 C         -10.1335  -13.1479   34.7173 C.ar    1  UNL1        0.0063
     21 C         -11.3703  -13.3954   34.0964 C.ar    1  UNL1        0.0744
     22 C         -12.0860  -14.6509   34.4389 C.2     1  UNL1        0.3378
     23 O         -12.7026  -14.7460   35.5346 O.2     1  UNL1       -0.2451
     24 O         -12.0513  -15.7496   33.5848 O.3     1  UNL1       -0.4771
     25 H         -12.5285  -16.6105   33.8242 H       1  UNL1        0.2954
     26 N          -6.0535  -16.2470   25.1990 N.am    1  UNL1       -0.2766
     27 C          -5.4094  -15.6561   24.0605 C.2     1  UNL1        0.2839
     28 O          -5.8076  -14.5452   23.6178 O.2     1  UNL1       -0.2665
     29 H          -6.1122  -17.2891   25.2386 H       1  UNL1        0.1553
     30 C          -4.3368  -16.3632   23.3389 C.ar    1  UNL1        0.1946
     31 O          -4.1241  -16.1951   22.0455 O.2     1  UNL1       -0.4492
     32 C          -3.1182  -16.9607   21.6996 C.ar    1  UNL1        0.1452
     33 C          -2.5602  -17.1030   20.4339 C.ar    1  UNL1        0.0375
     34 C          -1.4781  -17.9882   20.2855 C.ar    1  UNL1        0.0031
     35 C          -0.9727  -18.7143   21.3980 C.ar    1  UNL1        0.0002
     36 C          -1.5697  -18.5393   22.6695 C.ar    1  UNL1        0.0028
     37 C          -2.6411  -17.6523   22.7795 C.ar    1  UNL1        0.0337
     38 C          -3.4055  -17.2685   23.8634 C.ar    1  UNL1        0.0202
     39 C          -3.2501  -17.7318   25.2804 C.3     1  UNL1        0.0345
     40 C           0.1700  -19.6476   21.2291 C.ar    1  UNL1        0.0000
     41 C           1.4796  -19.1549   21.0731 C.ar    1  UNL1        0.0000
     42 C           2.5538  -20.0362   20.9153 C.ar    1  UNL1        0.0000
     43 C           2.3342  -21.4153   20.9106 C.ar    1  UNL1        0.0000
     44 C           1.0398  -21.9165   21.0642 C.ar    1  UNL1        0.0000
     45 C          -0.0381  -21.0401   21.2233 C.ar    1  UNL1        0.0000
@<TRIPOS>BOND
     1    15    16    1
     2    16    17   ar
     3    17    14    1
     4    14    13    1
     5    13     7    1
     6     7     8    1
     7     8     9    1
     8     9    10    1
     9    10     1    1
    10     1     2   ar
    11     2     3   ar
    12     3     4   ar
    13     4    26    1
    14    26    27   am
    15    27    28    2
    16    27    30    1
    17    30    31   ar
    18    31    32   ar
    19    32    33   ar
    20    33    34   ar
    21    34    35   ar
    22    35    40    1
    23    40    41   ar
    24    41    42   ar
    25    42    43   ar
    26    43    44   ar
    27    44    45   ar
    28    35    36   ar
    29    36    37   ar
    30    37    38   ar
    31    38    39    1
    32     4     5   ar
    33     5     6   ar
    34    10    11    1
    35    11    12    1
    36    17    18   ar
    37    18    19   ar
    38    19    20   ar
    39    20    21   ar
    40    21    22    1
    41    22    23    2
    42    22    24    1
    43    21    16   ar
    44    12     7    1
    45     6     1   ar
    46    38    30   ar
    47    37    32   ar
    48    45    40   ar
    49    26    29    1
    50    24    25    1
