@<TRIPOS>MOLECULE
*****
 38 42 0 0 0
SMALL
GASTEIGER

@<TRIPOS>ATOM
      1 C         -21.7387   -8.1774   -9.4631 C.2     1  UNL1        0.2506
      2 O         -22.5190   -8.0347   -8.4828 O.2     1  UNL1       -0.2699
      3 N         -22.0283   -7.5235  -10.7147 N.am    1  UNL1       -0.2680
      4 C         -20.9389   -6.9458  -11.5091 C.3     1  UNL1        0.1412
      5 C         -20.6207   -7.8471  -12.7002 C.3     1  UNL1        0.2268
      6 O         -21.7879   -8.5077  -13.1859 O.3     1  UNL1       -0.4739
      7 C         -22.9597   -7.8211  -13.5106 C.ar    1  UNL1        0.1362
      8 C         -23.3878   -7.8385  -14.8421 C.ar    1  UNL1        0.0366
      9 C         -24.5318   -7.1405  -15.2286 C.ar    1  UNL1        0.0031
     10 C         -25.2700   -6.4187  -14.2828 C.ar    1  UNL1        0.0004
     11 C         -24.8711   -6.4358  -12.9382 C.ar    1  UNL1        0.0004
     12 C         -23.7127   -7.1226  -12.5345 C.ar    1  UNL1        0.0317
     13 C         -23.4233   -7.1978  -11.0446 C.3     1  UNL1        0.1236
     14 C         -26.4927   -5.6968  -14.6907 C.ar    1  UNL1        0.0069
     15 C         -26.3626   -4.5124  -15.4630 C.ar    1  UNL1        0.0021
     16 C         -27.4971   -3.8006  -15.8880 C.ar    1  UNL1        0.0206
     17 C         -28.7442   -4.2926  -15.5229 C.ar    1  UNL1        0.0990
     18 N         -29.9480   -3.7674  -15.8132 N.ar    1  UNL1       -0.2241
     19 C         -30.8070   -4.6279  -15.2082 C.ar    1  UNL1        0.1750
     20 N         -30.1879   -5.6459  -14.5648 N.ar    1  UNL1       -0.3346
     21 C         -28.8830   -5.4223  -14.7738 C.ar    1  UNL1        0.0810
     22 C         -27.7852   -6.1637  -14.3263 C.ar    1  UNL1        0.0471
     23 I         -28.0899   -7.8607  -13.0812 I       1  UNL1       -0.0410
     24 H         -30.6370   -6.4226  -14.0313 H       1  UNL1        0.1675
     25 C         -19.6860   -8.8729   -8.1680 C.ar    1  UNL1        0.0503
     26 C         -18.5825   -9.7416   -8.0418 C.ar    1  UNL1        0.0328
     27 C         -18.3043  -10.6980   -9.0258 C.ar    1  UNL1        0.1069
     28 C         -19.1333  -10.8020  -10.1461 C.ar    1  UNL1        0.0186
     29 C         -20.2346   -9.9584  -10.2835 C.ar    1  UNL1        0.0071
     30 C         -20.5303   -9.0065   -9.2973 C.ar    1  UNL1        0.0667
     31 S         -16.9274  -11.7789   -8.8357 S.O2    1  UNL1        0.0105
     32 C         -16.5470  -11.9485   -7.1071 C.3     1  UNL1        0.1816
     33 O         -17.2494  -13.1295   -9.4119 O.2     1  UNL1       -0.1686
     34 O         -15.7380  -11.2159   -9.5620 O.2     1  UNL1       -0.1686
     35 N         -19.9363   -7.8401   -7.1877 N.pl3   1  UNL1       -0.3325
     36 H         -20.6984   -7.1463   -7.3571 H       1  UNL1        0.1468
     37 C         -19.7997   -8.5861   -4.8534 C.3     1  UNL1        0.0229
     38 C         -19.2008   -7.6908   -5.9322 C.3     1  UNL1        0.0871
@<TRIPOS>BOND
     1    37    38    1
     2    38    35    1
     3    35    25    1
     4    25    26   ar
     5    26    27   ar
     6    27    31    1
     7    31    32    1
     8    31    33    2
     9    31    34    2
    10    27    28   ar
    11    28    29   ar
    12    29    30   ar
    13    30     1    1
    14     1     2    2
    15     1     3   am
    16     3     4    1
    17     4     5    1
    18     5     6    1
    19     6     7    1
    20     7     8   ar
    21     8     9   ar
    22     9    10   ar
    23    10    14    1
    24    14    15   ar
    25    15    16   ar
    26    16    17   ar
    27    17    18   ar
    28    18    19   ar
    29    19    20   ar
    30    20    21   ar
    31    21    22   ar
    32    22    23    1
    33    10    11   ar
    34    11    12   ar
    35    12    13    1
    36    30    25   ar
    37    13     3    1
    38    12     7   ar
    39    22    14   ar
    40    21    17   ar
    41    35    36    1
    42    20    24    1
@<TRIPOS>MOLECULE
*****
 38 42 0 0 0
SMALL
GASTEIGER

@<TRIPOS>ATOM
      1 C         -22.0630   -8.1357   -9.5011 C.2     1  UNL1        0.2506
      2 O         -22.8685   -7.9917   -8.5416 O.2     1  UNL1       -0.2699
      3 N         -22.3081   -7.4652  -10.7535 N.am    1  UNL1       -0.2680
      4 C         -21.1888   -6.8951  -11.5110 C.3     1  UNL1        0.1412
      5 C         -20.8498   -7.7889  -12.7020 C.3     1  UNL1        0.2268
      6 O         -22.0119   -8.4279  -13.2271 O.3     1  UNL1       -0.4739
      7 C         -23.1644   -7.7216  -13.5773 C.ar    1  UNL1        0.1362
      8 C         -23.5550   -7.7195  -14.9204 C.ar    1  UNL1        0.0366
      9 C         -24.6778   -7.0015  -15.3315 C.ar    1  UNL1        0.0031
     10 C         -25.4322   -6.2787  -14.3994 C.ar    1  UNL1        0.0004
     11 C         -25.0716   -6.3149  -13.0443 C.ar    1  UNL1        0.0004
     12 C         -23.9348   -7.0221  -12.6155 C.ar    1  UNL1        0.0317
     13 C         -23.6885   -7.1164  -11.1190 C.3     1  UNL1        0.1236
     14 C         -26.6328   -5.5354  -14.8338 C.ar    1  UNL1        0.0069
     15 C         -26.4649   -4.3530  -15.6018 C.ar    1  UNL1        0.0021
     16 C         -27.5771   -3.6213  -16.0514 C.ar    1  UNL1        0.0206
     17 C         -28.8404   -4.0918  -15.7149 C.ar    1  UNL1        0.0990
     18 N         -30.0280   -3.5456  -16.0315 N.ar    1  UNL1       -0.2241
     19 C         -30.9152   -4.3914  -15.4467 C.ar    1  UNL1        0.1750
     20 N         -30.3284   -5.4204  -14.7907 N.ar    1  UNL1       -0.3346
     21 C         -29.0155   -5.2194  -14.9701 C.ar    1  UNL1        0.0810
     22 C         -27.9411   -5.9800  -14.4989 C.ar    1  UNL1        0.0471
     23 I         -28.3030   -7.6722  -13.2626 I       1  UNL1       -0.0410
     24 H         -30.8027   -6.1896  -14.2682 H       1  UNL1        0.1675
     25 C         -20.6268  -10.1165  -10.1241 C.ar    1  UNL1        0.0503
     26 C         -19.4358  -10.8456   -9.9286 C.ar    1  UNL1        0.0328
     27 C         -18.5247  -10.4797   -8.9305 C.ar    1  UNL1        0.1069
     28 C         -18.7913   -9.3730   -8.1196 C.ar    1  UNL1        0.0186
     29 C         -19.9589   -8.6342   -8.3045 C.ar    1  UNL1        0.0071
     30 C         -20.8714   -8.9835   -9.3102 C.ar    1  UNL1        0.0667
     31 S         -17.0387  -11.4000   -8.7174 S.O2    1  UNL1        0.0105
     32 C         -17.3035  -13.0759   -9.2492 C.3     1  UNL1        0.1816
     33 O         -15.9321  -10.7866   -9.5290 O.2     1  UNL1       -0.1686
     34 O         -16.6386  -11.3868   -7.2687 O.2     1  UNL1       -0.1686
     35 N         -21.6009  -10.5320  -11.1084 N.pl3   1  UNL1       -0.3325
     36 H         -22.5110  -10.0242  -11.1752 H       1  UNL1        0.1468
     37 C         -22.6136  -11.7535  -12.9810 C.3     1  UNL1        0.0229
     38 C         -21.4061  -11.6265  -12.0592 C.3     1  UNL1        0.0871
@<TRIPOS>BOND
     1    37    38    1
     2    38    35    1
     3    35    25    1
     4    25    26   ar
     5    26    27   ar
     6    27    31    1
     7    31    32    1
     8    31    33    2
     9    31    34    2
    10    27    28   ar
    11    28    29   ar
    12    29    30   ar
    13    30     1    1
    14     1     2    2
    15     1     3   am
    16     3     4    1
    17     4     5    1
    18     5     6    1
    19     6     7    1
    20     7     8   ar
    21     8     9   ar
    22     9    10   ar
    23    10    14    1
    24    14    15   ar
    25    15    16   ar
    26    16    17   ar
    27    17    18   ar
    28    18    19   ar
    29    19    20   ar
    30    20    21   ar
    31    21    22   ar
    32    22    23    1
    33    10    11   ar
    34    11    12   ar
    35    12    13    1
    36    30    25   ar
    37    13     3    1
    38    12     7   ar
    39    22    14   ar
    40    21    17   ar
    41    35    36    1
    42    20    24    1
@<TRIPOS>MOLECULE
*****
 38 42 0 0 0
SMALL
GASTEIGER

@<TRIPOS>ATOM
      1 C         -23.1038   -8.6466  -10.6517 C.2     1  UNL1        0.2506
      2 O         -24.2176   -9.2168  -10.4950 O.2     1  UNL1       -0.2699
      3 N         -22.8304   -7.9230  -11.8681 N.am    1  UNL1       -0.2680
      4 C         -22.0799   -6.6637  -11.8189 C.3     1  UNL1        0.1412
      5 C         -20.6458   -6.8867  -12.2945 C.3     1  UNL1        0.2268
      6 O         -20.5768   -7.8949  -13.3013 O.3     1  UNL1       -0.4739
      7 C         -21.3746   -7.8686  -14.4470 C.ar    1  UNL1        0.1362
      8 C         -20.7435   -7.7346  -15.6880 C.ar    1  UNL1        0.0366
      9 C         -21.4937   -7.6672  -16.8618 C.ar    1  UNL1        0.0031
     10 C         -22.8910   -7.7405  -16.8101 C.ar    1  UNL1        0.0004
     11 C         -23.5264   -7.9211  -15.5727 C.ar    1  UNL1        0.0004
     12 C         -22.7858   -7.9768  -14.3791 C.ar    1  UNL1        0.0317
     13 C         -23.5380   -8.3024  -13.0995 C.3     1  UNL1        0.1236
     14 C         -23.6827   -7.6892  -18.0564 C.ar    1  UNL1        0.0069
     15 C         -24.3171   -6.4705  -18.4145 C.ar    1  UNL1        0.0021
     16 C         -25.0671   -6.3688  -19.5984 C.ar    1  UNL1        0.0206
     17 C         -25.1688   -7.4996  -20.3993 C.ar    1  UNL1        0.0990
     18 N         -25.8386   -7.6232  -21.5591 N.ar    1  UNL1       -0.2241
     19 C         -25.6186   -8.9197  -21.8985 C.ar    1  UNL1        0.1750
     20 N         -24.8524   -9.5892  -21.0051 N.ar    1  UNL1       -0.3346
     21 C         -24.5734   -8.6781  -20.0626 C.ar    1  UNL1        0.0810
     22 C         -23.8187   -8.8291  -18.8953 C.ar    1  UNL1        0.0471
     23 I         -23.0044  -10.7301  -18.3991 I       1  UNL1       -0.0410
     24 H         -24.5536  -10.5883  -21.0520 H       1  UNL1        0.1675
     25 C         -20.8360   -9.3196   -9.7693 C.ar    1  UNL1        0.0503
     26 C         -19.9057   -9.3022   -8.7097 C.ar    1  UNL1        0.0328
     27 C         -20.2360   -8.7361   -7.4725 C.ar    1  UNL1        0.1069
     28 C         -21.5008   -8.1727   -7.2828 C.ar    1  UNL1        0.0186
     29 C         -22.4303   -8.1719   -8.3217 C.ar    1  UNL1        0.0071
     30 C         -22.1052   -8.7236   -9.5691 C.ar    1  UNL1        0.0667
     31 S         -19.0500   -8.7160   -6.1711 S.O2    1  UNL1        0.0105
     32 C         -19.8872   -8.8697   -4.6100 C.3     1  UNL1        0.1816
     33 O         -18.0852   -9.8569   -6.3357 O.2     1  UNL1       -0.1686
     34 O         -18.2811   -7.4250   -6.2071 O.2     1  UNL1       -0.1686
     35 N         -20.5218   -9.9632  -11.0252 N.pl3   1  UNL1       -0.3325
     36 H         -20.1380   -9.3931  -11.8115 H       1  UNL1        0.1468
     37 C         -21.5773  -11.6113  -12.5064 C.3     1  UNL1        0.0229
     38 C         -20.6852  -11.3926  -11.2898 C.3     1  UNL1        0.0871
@<TRIPOS>BOND
     1    37    38    1
     2    38    35    1
     3    35    25    1
     4    25    26   ar
     5    26    27   ar
     6    27    31    1
     7    31    32    1
     8    31    33    2
     9    31    34    2
    10    27    28   ar
    11    28    29   ar
    12    29    30   ar
    13    30     1    1
    14     1     2    2
    15     1     3   am
    16     3     4    1
    17     4     5    1
    18     5     6    1
    19     6     7    1
    20     7     8   ar
    21     8     9   ar
    22     9    10   ar
    23    10    14    1
    24    14    15   ar
    25    15    16   ar
    26    16    17   ar
    27    17    18   ar
    28    18    19   ar
    29    19    20   ar
    30    20    21   ar
    31    21    22   ar
    32    22    23    1
    33    10    11   ar
    34    11    12   ar
    35    12    13    1
    36    30    25   ar
    37    13     3    1
    38    12     7   ar
    39    22    14   ar
    40    21    17   ar
    41    35    36    1
    42    20    24    1
@<TRIPOS>MOLECULE
*****
 38 42 0 0 0
SMALL
GASTEIGER

@<TRIPOS>ATOM
      1 C         -22.3083   -9.7334  -13.3164 C.2     1  UNL1        0.2506
      2 O         -22.0378  -10.0088  -14.5169 O.2     1  UNL1       -0.2699
      3 N         -23.5732   -9.1269  -12.9843 N.am    1  UNL1       -0.2680
      4 C         -24.2805   -9.5283  -11.7635 C.3     1  UNL1        0.1412
      5 C         -24.1236   -8.4559  -10.6876 C.3     1  UNL1        0.2268
      6 O         -24.0522   -7.1490  -11.2547 O.3     1  UNL1       -0.4739
      7 C         -25.0033   -6.6685  -12.1572 C.ar    1  UNL1        0.1362
      8 C         -25.7838   -5.5733  -11.7731 C.ar    1  UNL1        0.0366
      9 C         -26.7726   -5.0746  -12.6210 C.ar    1  UNL1        0.0031
     10 C         -26.9896   -5.6631  -13.8729 C.ar    1  UNL1        0.0004
     11 C         -26.1789   -6.7322  -14.2818 C.ar    1  UNL1        0.0004
     12 C         -25.1875   -7.2557  -13.4335 C.ar    1  UNL1        0.0317
     13 C         -24.2704   -8.3262  -14.0009 C.3     1  UNL1        0.1236
     14 C         -28.0238   -5.1205  -14.7777 C.ar    1  UNL1        0.0069
     15 C         -29.3543   -5.6030  -14.6636 C.ar    1  UNL1        0.0021
     16 C         -30.3751   -5.1054  -15.4912 C.ar    1  UNL1        0.0206
     17 C         -30.0361   -4.1326  -16.4236 C.ar    1  UNL1        0.0990
     18 N         -30.8482   -3.5323  -17.3118 N.ar    1  UNL1       -0.2241
     19 C         -30.0078   -2.6935  -17.9710 C.ar    1  UNL1        0.1750
     20 N         -28.7287   -2.7548  -17.5308 N.ar    1  UNL1       -0.3346
     21 C         -28.7613   -3.6680  -16.5503 C.ar    1  UNL1        0.0810
     22 C         -27.7120   -4.1328  -15.7517 C.ar    1  UNL1        0.0471
     23 I         -25.7349   -3.4223  -16.0819 I       1  UNL1       -0.0410
     24 H         -27.9120   -2.2087  -17.8834 H       1  UNL1        0.1675
     25 C         -20.9443  -11.3919  -11.9884 C.ar    1  UNL1        0.0503
     26 C         -19.9458  -11.6242  -11.0202 C.ar    1  UNL1        0.0328
     27 C         -19.3556  -10.5607  -10.3269 C.ar    1  UNL1        0.1069
     28 C         -19.7527   -9.2488  -10.6001 C.ar    1  UNL1        0.0186
     29 C         -20.7314   -8.9990  -11.5609 C.ar    1  UNL1        0.0071
     30 C         -21.3190  -10.0556  -12.2710 C.ar    1  UNL1        0.0667
     31 S         -18.1013  -10.8789   -9.1328 S.O2    1  UNL1        0.0105
     32 C         -17.9047  -12.6355   -8.9401 C.3     1  UNL1        0.1816
     33 O         -16.7991  -10.2759   -9.5804 O.2     1  UNL1       -0.1686
     34 O         -18.4890  -10.2664   -7.8161 O.2     1  UNL1       -0.1686
     35 N         -21.6031  -12.4916  -12.6570 N.pl3   1  UNL1       -0.3325
     36 H         -22.6036  -12.6982  -12.4400 H       1  UNL1        0.1468
     37 C         -21.8914  -13.5419  -14.8565 C.3     1  UNL1        0.0229
     38 C         -20.9720  -13.3551  -13.6550 C.3     1  UNL1        0.0871
@<TRIPOS>BOND
     1    37    38    1
     2    38    35    1
     3    35    25    1
     4    25    26   ar
     5    26    27   ar
     6    27    31    1
     7    31    32    1
     8    31    33    2
     9    31    34    2
    10    27    28   ar
    11    28    29   ar
    12    29    30   ar
    13    30     1    1
    14     1     2    2
    15     1     3   am
    16     3     4    1
    17     4     5    1
    18     5     6    1
    19     6     7    1
    20     7     8   ar
    21     8     9   ar
    22     9    10   ar
    23    10    14    1
    24    14    15   ar
    25    15    16   ar
    26    16    17   ar
    27    17    18   ar
    28    18    19   ar
    29    19    20   ar
    30    20    21   ar
    31    21    22   ar
    32    22    23    1
    33    10    11   ar
    34    11    12   ar
    35    12    13    1
    36    30    25   ar
    37    13     3    1
    38    12     7   ar
    39    22    14   ar
    40    21    17   ar
    41    35    36    1
    42    20    24    1
@<TRIPOS>MOLECULE
*****
 38 42 0 0 0
SMALL
GASTEIGER

@<TRIPOS>ATOM
      1 C         -22.1839   -9.6126  -13.2543 C.2     1  UNL1        0.2506
      2 O         -21.9307   -9.9094  -14.4535 O.2     1  UNL1       -0.2699
      3 N         -23.4574   -9.0313  -12.9101 N.am    1  UNL1       -0.2680
      4 C         -24.1290   -9.4216  -11.6659 C.3     1  UNL1        0.1412
      5 C         -23.9786   -8.3202  -10.6187 C.3     1  UNL1        0.2268
      6 O         -23.9531   -7.0258  -11.2174 O.3     1  UNL1       -0.4739
      7 C         -24.9345   -6.5916  -12.1108 C.ar    1  UNL1        0.1362
      8 C         -25.7356   -5.5080  -11.7361 C.ar    1  UNL1        0.0366
      9 C         -26.7541   -5.0554  -12.5746 C.ar    1  UNL1        0.0031
     10 C         -26.9809   -5.6788  -13.8076 C.ar    1  UNL1        0.0004
     11 C         -26.1508   -6.7361  -14.2084 C.ar    1  UNL1        0.0004
     12 C         -25.1291   -7.2135  -13.3690 C.ar    1  UNL1        0.0317
     13 C         -24.1958   -8.2732  -13.9304 C.3     1  UNL1        0.1236
     14 C         -28.0471   -5.1848  -14.7031 C.ar    1  UNL1        0.0069
     15 C         -29.3549   -5.7217  -14.5711 C.ar    1  UNL1        0.0021
     16 C         -30.4050   -5.2716  -15.3892 C.ar    1  UNL1        0.0206
     17 C         -30.1175   -4.2907  -16.3304 C.ar    1  UNL1        0.0990
     18 N         -30.9641   -3.7296  -17.2121 N.ar    1  UNL1       -0.2241
     19 C         -30.1669   -2.8601  -17.8852 C.ar    1  UNL1        0.1750
     20 N         -28.8815   -2.8657  -17.4596 N.ar    1  UNL1       -0.3346
     21 C         -28.8648   -3.7740  -16.4742 C.ar    1  UNL1        0.0810
     22 C         -27.7880   -4.1902  -15.6855 C.ar    1  UNL1        0.0471
     23 I         -25.8461   -3.3998  -16.0423 I       1  UNL1       -0.0410
     24 H         -28.0923   -2.2879  -17.8244 H       1  UNL1        0.1675
     25 C         -20.5340   -8.8375  -11.5075 C.ar    1  UNL1        0.0503
     26 C         -19.6162   -9.1708  -10.4902 C.ar    1  UNL1        0.0328
     27 C         -19.3083  -10.5075  -10.2097 C.ar    1  UNL1        0.1069
     28 C         -19.9222  -11.5288  -10.9400 C.ar    1  UNL1        0.0186
     29 C         -20.8395  -11.2189  -11.9429 C.ar    1  UNL1        0.0071
     30 C         -21.1656   -9.8842  -12.2226 C.ar    1  UNL1        0.0667
     31 S         -18.1687  -10.8954   -8.9247 S.O2    1  UNL1        0.0105
     32 C         -18.5361   -9.9054   -7.4941 C.3     1  UNL1        0.1816
     33 O         -18.2733  -12.3513   -8.5656 O.2     1  UNL1       -0.1686
     34 O         -16.7673  -10.6125   -9.3886 O.2     1  UNL1       -0.1686
     35 N         -20.8027   -7.4574  -11.8446 N.pl3   1  UNL1       -0.3325
     36 H         -21.0455   -7.2082  -12.8293 H       1  UNL1        0.1468
     37 C         -21.4442   -5.1152  -11.4887 C.3     1  UNL1        0.0229
     38 C         -20.7792   -6.3494  -10.8899 C.3     1  UNL1        0.0871
@<TRIPOS>BOND
     1    37    38    1
     2    38    35    1
     3    35    25    1
     4    25    26   ar
     5    26    27   ar
     6    27    31    1
     7    31    32    1
     8    31    33    2
     9    31    34    2
    10    27    28   ar
    11    28    29   ar
    12    29    30   ar
    13    30     1    1
    14     1     2    2
    15     1     3   am
    16     3     4    1
    17     4     5    1
    18     5     6    1
    19     6     7    1
    20     7     8   ar
    21     8     9   ar
    22     9    10   ar
    23    10    14    1
    24    14    15   ar
    25    15    16   ar
    26    16    17   ar
    27    17    18   ar
    28    18    19   ar
    29    19    20   ar
    30    20    21   ar
    31    21    22   ar
    32    22    23    1
    33    10    11   ar
    34    11    12   ar
    35    12    13    1
    36    30    25   ar
    37    13     3    1
    38    12     7   ar
    39    22    14   ar
    40    21    17   ar
    41    35    36    1
    42    20    24    1
@<TRIPOS>MOLECULE
*****
 38 42 0 0 0
SMALL
GASTEIGER

@<TRIPOS>ATOM
      1 C         -21.6606  -10.6850  -12.6266 C.2     1  UNL1        0.2506
      2 O         -21.5833  -11.1620  -13.7914 O.2     1  UNL1       -0.2699
      3 N         -22.7679   -9.8339  -12.2692 N.am    1  UNL1       -0.2680
      4 C         -23.3747   -9.9410  -10.9381 C.3     1  UNL1        0.1412
      5 C         -22.9260   -8.7749  -10.0598 C.3     1  UNL1        0.2268
      6 O         -22.7248   -7.5879  -10.8247 O.3     1  UNL1       -0.4739
      7 C         -23.6935   -7.0800  -11.6928 C.ar    1  UNL1        0.1362
      8 C         -24.2446   -5.8268  -11.4066 C.ar    1  UNL1        0.0366
      9 C         -25.2410   -5.2875  -12.2201 C.ar    1  UNL1        0.0031
     10 C         -25.6960   -5.9946  -13.3396 C.ar    1  UNL1        0.0004
     11 C         -25.1142   -7.2308  -13.6572 C.ar    1  UNL1        0.0004
     12 C         -24.1191   -7.7948  -12.8398 C.ar    1  UNL1        0.0317
     13 C         -23.4525   -9.0718  -13.3235 C.3     1  UNL1        0.1236
     14 C         -26.7371   -5.4124  -14.2113 C.ar    1  UNL1        0.0069
     15 C         -26.3911   -4.3277  -15.0598 C.ar    1  UNL1        0.0021
     16 C         -27.3430   -3.7518  -15.9181 C.ar    1  UNL1        0.0206
     17 C         -28.6295   -4.2764  -15.9030 C.ar    1  UNL1        0.0990
     18 N         -29.6861   -3.8730  -16.6309 N.ar    1  UNL1       -0.2241
     19 C         -30.6748   -4.7065  -16.2160 C.ar    1  UNL1        0.1750
     20 N         -30.2742   -5.5927  -15.2738 N.ar    1  UNL1       -0.3346
     21 C         -28.9774   -5.3104  -15.0866 C.ar    1  UNL1        0.0810
     22 C         -28.0669   -5.9152  -14.2148 C.ar    1  UNL1        0.0471
     23 I         -28.7193   -7.4600  -12.9067 I       1  UNL1       -0.0410
     24 H         -30.8539   -6.3249  -14.8076 H       1  UNL1        0.1675
     25 C         -20.1147  -12.3450  -11.5181 C.ar    1  UNL1        0.0503
     26 C         -19.0680  -12.5875  -10.6049 C.ar    1  UNL1        0.0328
     27 C         -18.5491  -11.5542   -9.8154 C.ar    1  UNL1        0.1069
     28 C         -19.0671  -10.2618   -9.9362 C.ar    1  UNL1        0.0186
     29 C         -20.0953  -10.0009  -10.8407 C.ar    1  UNL1        0.0071
     30 C         -20.6128  -11.0254  -11.6461 C.ar    1  UNL1        0.0667
     31 S         -17.2328  -11.8826   -8.6930 S.O2    1  UNL1        0.0105
     32 C         -17.5420  -11.0363   -7.1601 C.3     1  UNL1        0.1816
     33 O         -17.1309  -13.3603   -8.4367 O.2     1  UNL1       -0.1686
     34 O         -15.9349  -11.4045   -9.2812 O.2     1  UNL1       -0.1686
     35 N         -20.6979  -13.4229  -12.2852 N.pl3   1  UNL1       -0.3325
     36 H         -21.5146  -13.9452  -11.8966 H       1  UNL1        0.1468
     37 C         -21.4244  -14.1234  -14.5225 C.3     1  UNL1        0.0229
     38 C         -20.2371  -13.8453  -13.6077 C.3     1  UNL1        0.0871
@<TRIPOS>BOND
     1    37    38    1
     2    38    35    1
     3    35    25    1
     4    25    26   ar
     5    26    27   ar
     6    27    31    1
     7    31    32    1
     8    31    33    2
     9    31    34    2
    10    27    28   ar
    11    28    29   ar
    12    29    30   ar
    13    30     1    1
    14     1     2    2
    15     1     3   am
    16     3     4    1
    17     4     5    1
    18     5     6    1
    19     6     7    1
    20     7     8   ar
    21     8     9   ar
    22     9    10   ar
    23    10    14    1
    24    14    15   ar
    25    15    16   ar
    26    16    17   ar
    27    17    18   ar
    28    18    19   ar
    29    19    20   ar
    30    20    21   ar
    31    21    22   ar
    32    22    23    1
    33    10    11   ar
    34    11    12   ar
    35    12    13    1
    36    30    25   ar
    37    13     3    1
    38    12     7   ar
    39    22    14   ar
    40    21    17   ar
    41    35    36    1
    42    20    24    1
@<TRIPOS>MOLECULE
*****
 38 42 0 0 0
SMALL
GASTEIGER

@<TRIPOS>ATOM
      1 C         -26.1039   -5.7488  -15.1056 C.2     1  UNL1        0.2506
      2 O         -25.4808   -5.9451  -16.1842 O.2     1  UNL1       -0.2699
      3 N         -25.4893   -6.0897  -13.8470 N.am    1  UNL1       -0.2680
      4 C         -25.6775   -5.2209  -12.6803 C.3     1  UNL1        0.1412
      5 C         -26.6830   -5.8457  -11.7155 C.3     1  UNL1        0.2268
      6 O         -26.6090   -7.2702  -11.7290 O.3     1  UNL1       -0.4739
      7 C         -25.4089   -7.9620  -11.5533 C.ar    1  UNL1        0.1362
      8 C         -25.2766   -8.7787  -10.4255 C.ar    1  UNL1        0.0366
      9 C         -24.0870   -9.4648  -10.1820 C.ar    1  UNL1        0.0031
     10 C         -23.0117   -9.3481  -11.0712 C.ar    1  UNL1        0.0004
     11 C         -23.1551   -8.5671  -12.2275 C.ar    1  UNL1        0.0004
     12 C         -24.3424   -7.8580  -12.4804 C.ar    1  UNL1        0.0317
     13 C         -24.4625   -7.1412  -13.8149 C.3     1  UNL1        0.1236
     14 C         -21.7596  -10.0916  -10.8220 C.ar    1  UNL1        0.0069
     15 C         -21.6004  -11.3777  -11.4024 C.ar    1  UNL1        0.0021
     16 C         -20.4208  -12.1158  -11.2069 C.ar    1  UNL1        0.0206
     17 C         -19.4230  -11.5465  -10.4252 C.ar    1  UNL1        0.0990
     18 N         -18.2298  -12.0790  -10.1062 N.ar    1  UNL1       -0.2241
     19 C         -17.6703  -11.1200   -9.3242 C.ar    1  UNL1        0.1750
     20 N         -18.4618  -10.0351   -9.1505 N.ar    1  UNL1       -0.3346
     21 C         -19.5669  -10.3177   -9.8542 C.ar    1  UNL1        0.0810
     22 C         -20.7214   -9.5462  -10.0182 C.ar    1  UNL1        0.0471
     23 I         -20.9003   -7.6808   -9.0127 I       1  UNL1       -0.0410
     24 H         -18.2475   -9.1791   -8.5929 H       1  UNL1        0.1675
     25 C         -27.8063   -4.1992  -16.1424 C.ar    1  UNL1        0.0503
     26 C         -29.1325   -3.7212  -16.1756 C.ar    1  UNL1        0.0328
     27 C         -30.0774   -4.1571  -15.2388 C.ar    1  UNL1        0.1069
     28 C         -29.7077   -5.0842  -14.2605 C.ar    1  UNL1        0.0186
     29 C         -28.4038   -5.5754  -14.2179 C.ar    1  UNL1        0.0071
     30 C         -27.4533   -5.1562  -15.1597 C.ar    1  UNL1        0.0667
     31 S         -31.7300   -3.5539  -15.3122 S.O2    1  UNL1        0.0105
     32 C         -31.9713   -2.3426  -14.0331 C.3     1  UNL1        0.1816
     33 O         -31.9896   -2.9246  -16.6524 O.2     1  UNL1       -0.1686
     34 O         -32.6930   -4.6915  -15.1189 O.2     1  UNL1       -0.1686
     35 N         -26.8119   -3.7002  -17.0656 N.pl3   1  UNL1       -0.3325
     36 H         -25.9252   -3.2928  -16.6933 H       1  UNL1        0.1468
     37 C         -26.0725   -4.8435  -19.1078 C.3     1  UNL1        0.0229
     38 C         -26.9395   -3.7346  -18.5224 C.3     1  UNL1        0.0871
@<TRIPOS>BOND
     1    37    38    1
     2    38    35    1
     3    35    25    1
     4    25    26   ar
     5    26    27   ar
     6    27    31    1
     7    31    32    1
     8    31    33    2
     9    31    34    2
    10    27    28   ar
    11    28    29   ar
    12    29    30   ar
    13    30     1    1
    14     1     2    2
    15     1     3   am
    16     3     4    1
    17     4     5    1
    18     5     6    1
    19     6     7    1
    20     7     8   ar
    21     8     9   ar
    22     9    10   ar
    23    10    14    1
    24    14    15   ar
    25    15    16   ar
    26    16    17   ar
    27    17    18   ar
    28    18    19   ar
    29    19    20   ar
    30    20    21   ar
    31    21    22   ar
    32    22    23    1
    33    10    11   ar
    34    11    12   ar
    35    12    13    1
    36    30    25   ar
    37    13     3    1
    38    12     7   ar
    39    22    14   ar
    40    21    17   ar
    41    35    36    1
    42    20    24    1
@<TRIPOS>MOLECULE
*****
 38 42 0 0 0
SMALL
GASTEIGER

@<TRIPOS>ATOM
      1 C         -21.6086  -10.8983  -12.5233 C.2     1  UNL1        0.2506
      2 O         -21.5581  -11.3880  -13.6843 O.2     1  UNL1       -0.2699
      3 N         -22.7192  -10.0619  -12.1425 N.am    1  UNL1       -0.2680
      4 C         -23.2838  -10.1630  -10.7925 C.3     1  UNL1        0.1412
      5 C         -22.8291   -8.9791   -9.9417 C.3     1  UNL1        0.2268
      6 O         -22.6715   -7.7981  -10.7261 O.3     1  UNL1       -0.4739
      7 C         -23.6745   -7.3173  -11.5702 C.ar    1  UNL1        0.1362
      8 C         -24.2384   -6.0701  -11.2820 C.ar    1  UNL1        0.0366
      9 C         -25.2679   -5.5577  -12.0711 C.ar    1  UNL1        0.0031
     10 C         -25.7441   -6.2859  -13.1681 C.ar    1  UNL1        0.0004
     11 C         -25.1509   -7.5158  -13.4889 C.ar    1  UNL1        0.0004
     12 C         -24.1220   -8.0529  -12.6955 C.ar    1  UNL1        0.0317
     13 C         -23.4483   -9.3243  -13.1843 C.3     1  UNL1        0.1236
     14 C         -26.8208   -5.7320  -14.0147 C.ar    1  UNL1        0.0069
     15 C         -26.5102   -4.6787  -14.9148 C.ar    1  UNL1        0.0021
     16 C         -27.4972   -4.1308  -15.7515 C.ar    1  UNL1        0.0206
     17 C         -28.7825   -4.6512  -15.6631 C.ar    1  UNL1        0.0990
     18 N         -29.8689   -4.2709  -16.3590 N.ar    1  UNL1       -0.2241
     19 C         -30.8399   -5.0867  -15.8732 C.ar    1  UNL1        0.1750
     20 N         -30.4003   -5.9402  -14.9183 N.ar    1  UNL1       -0.3346
     21 C         -29.0964   -5.6550  -14.7967 C.ar    1  UNL1        0.0810
     22 C         -28.1502   -6.2311  -13.9436 C.ar    1  UNL1        0.0471
     23 I         -28.7478   -7.7272  -12.5553 I       1  UNL1       -0.0410
     24 H         -30.9604   -6.6541  -14.4022 H       1  UNL1        0.1675
     25 C         -19.8736  -10.1937  -10.8298 C.ar    1  UNL1        0.0503
     26 C         -18.8910  -10.5676   -9.8900 C.ar    1  UNL1        0.0328
     27 C         -18.5414  -11.9115   -9.7116 C.ar    1  UNL1        0.1069
     28 C         -19.1777  -12.9001  -10.4674 C.ar    1  UNL1        0.0186
     29 C         -20.1584  -12.5505  -11.3944 C.ar    1  UNL1        0.0071
     30 C         -20.5260  -11.2090  -11.5711 C.ar    1  UNL1        0.0667
     31 S         -17.3207  -12.3510   -8.5212 S.O2    1  UNL1        0.0105
     32 C         -15.7037  -12.0838   -9.2108 C.3     1  UNL1        0.1816
     33 O         -17.4818  -11.5121   -7.2843 O.2     1  UNL1       -0.1686
     34 O         -17.4773  -13.7981   -8.1463 O.2     1  UNL1       -0.1686
     35 N         -20.1882   -8.8022  -11.0643 N.pl3   1  UNL1       -0.3325
     36 H         -20.9434   -8.3461  -10.5054 H       1  UNL1        0.1468
     37 C         -20.5180   -7.1511  -12.8502 C.3     1  UNL1        0.0229
     38 C         -19.5053   -7.9485  -12.0363 C.3     1  UNL1        0.0871
@<TRIPOS>BOND
     1    37    38    1
     2    38    35    1
     3    35    25    1
     4    25    26   ar
     5    26    27   ar
     6    27    31    1
     7    31    32    1
     8    31    33    2
     9    31    34    2
    10    27    28   ar
    11    28    29   ar
    12    29    30   ar
    13    30     1    1
    14     1     2    2
    15     1     3   am
    16     3     4    1
    17     4     5    1
    18     5     6    1
    19     6     7    1
    20     7     8   ar
    21     8     9   ar
    22     9    10   ar
    23    10    14    1
    24    14    15   ar
    25    15    16   ar
    26    16    17   ar
    27    17    18   ar
    28    18    19   ar
    29    19    20   ar
    30    20    21   ar
    31    21    22   ar
    32    22    23    1
    33    10    11   ar
    34    11    12   ar
    35    12    13    1
    36    30    25   ar
    37    13     3    1
    38    12     7   ar
    39    22    14   ar
    40    21    17   ar
    41    35    36    1
    42    20    24    1
@<TRIPOS>MOLECULE
*****
 38 42 0 0 0
SMALL
GASTEIGER

@<TRIPOS>ATOM
      1 C         -22.4243   -6.1617  -11.7217 C.2     1  UNL1        0.2506
      2 O         -22.2448   -4.9658  -11.3641 O.2     1  UNL1       -0.2699
      3 N         -23.4378   -6.4769  -12.6971 N.am    1  UNL1       -0.2680
      4 C         -23.1835   -7.5045  -13.7124 C.3     1  UNL1        0.1412
      5 C         -23.9247   -8.7914  -13.3561 C.3     1  UNL1        0.2268
      6 O         -25.1569   -8.5210  -12.6902 O.3     1  UNL1       -0.4739
      7 C         -26.1127   -7.6430  -13.2056 C.ar    1  UNL1        0.1362
      8 C         -27.3606   -8.1625  -13.5650 C.ar    1  UNL1        0.0366
      9 C         -28.3400   -7.3374  -14.1175 C.ar    1  UNL1        0.0031
     10 C         -28.0854   -5.9744  -14.3120 C.ar    1  UNL1        0.0004
     11 C         -26.8523   -5.4395  -13.9108 C.ar    1  UNL1        0.0004
     12 C         -25.8495   -6.2599  -13.3654 C.ar    1  UNL1        0.0317
     13 C         -24.5953   -5.5820  -12.8396 C.3     1  UNL1        0.1236
     14 C         -29.1314   -5.0983  -14.8787 C.ar    1  UNL1        0.0069
     15 C         -30.4625   -5.2246  -14.4009 C.ar    1  UNL1        0.0021
     16 C         -31.4879   -4.4025  -14.8979 C.ar    1  UNL1        0.0206
     17 C         -31.1547   -3.4697  -15.8723 C.ar    1  UNL1        0.0990
     18 N         -31.9754   -2.5977  -16.4848 N.ar    1  UNL1       -0.2241
     19 C         -31.1436   -1.9502  -17.3411 C.ar    1  UNL1        0.1750
     20 N         -29.8624   -2.3846  -17.2815 N.ar    1  UNL1       -0.3346
     21 C         -29.8835   -3.3448  -16.3467 C.ar    1  UNL1        0.0810
     22 C         -28.8303   -4.1401  -15.8849 C.ar    1  UNL1        0.0471
     23 I         -26.8971   -3.9438  -16.7492 I       1  UNL1       -0.0410
     24 H         -29.0517   -2.0406  -17.8418 H       1  UNL1        0.1675
     25 C         -22.0719   -8.1197  -10.1671 C.ar    1  UNL1        0.0503
     26 C         -21.2230   -9.1430   -9.6974 C.ar    1  UNL1        0.0328
     27 C         -19.9038   -9.2488  -10.1542 C.ar    1  UNL1        0.1069
     28 C         -19.4197   -8.3348  -11.0942 C.ar    1  UNL1        0.0186
     29 C         -20.2472   -7.3223  -11.5774 C.ar    1  UNL1        0.0071
     30 C         -21.5742   -7.2156  -11.1371 C.ar    1  UNL1        0.0667
     31 S         -18.8700  -10.5447   -9.5609 S.O2    1  UNL1        0.0105
     32 C         -19.4011  -12.0893  -10.2637 C.3     1  UNL1        0.1816
     33 O         -17.4417  -10.2832   -9.9496 O.2     1  UNL1       -0.1686
     34 O         -18.9568  -10.6153   -8.0620 O.2     1  UNL1       -0.1686
     35 N         -23.4123   -7.9672   -9.6471 N.pl3   1  UNL1       -0.3325
     36 H         -23.8624   -7.0248   -9.6581 H       1  UNL1        0.1468
     37 C         -25.6586   -8.9554   -9.6067 C.3     1  UNL1        0.0229
     38 C         -24.2225   -9.0583   -9.1059 C.3     1  UNL1        0.0871
@<TRIPOS>BOND
     1    37    38    1
     2    38    35    1
     3    35    25    1
     4    25    26   ar
     5    26    27   ar
     6    27    31    1
     7    31    32    1
     8    31    33    2
     9    31    34    2
    10    27    28   ar
    11    28    29   ar
    12    29    30   ar
    13    30     1    1
    14     1     2    2
    15     1     3   am
    16     3     4    1
    17     4     5    1
    18     5     6    1
    19     6     7    1
    20     7     8   ar
    21     8     9   ar
    22     9    10   ar
    23    10    14    1
    24    14    15   ar
    25    15    16   ar
    26    16    17   ar
    27    17    18   ar
    28    18    19   ar
    29    19    20   ar
    30    20    21   ar
    31    21    22   ar
    32    22    23    1
    33    10    11   ar
    34    11    12   ar
    35    12    13    1
    36    30    25   ar
    37    13     3    1
    38    12     7   ar
    39    22    14   ar
    40    21    17   ar
    41    35    36    1
    42    20    24    1
