@<TRIPOS>MOLECULE
*****
 47 52 0 0 0
SMALL
GASTEIGER

@<TRIPOS>ATOM
      1 N         -11.4905   -9.3469   31.4513 N.ar    1  UNL1       -0.2357
      2 N         -12.4951   -9.3948   32.3226 N.ar    1  UNL1       -0.1663
      3 C         -12.6545  -10.6783   32.7326 C.ar    1  UNL1        0.1260
      4 C         -11.7173  -11.4573   32.0858 C.ar    1  UNL1        0.0880
      5 C         -11.4368  -12.8203   32.0540 C.ar    1  UNL1        0.1380
      6 N         -10.4594  -13.2402   31.1948 N.ar    1  UNL1       -0.2117
      7 C          -9.7613  -12.3607   30.4027 C.ar    1  UNL1        0.1653
      8 N         -10.0530  -11.0247   30.4537 N.ar    1  UNL1       -0.2079
      9 C         -11.0254  -10.6015   31.2945 C.ar    1  UNL1        0.1652
     10 C          -6.9159   -7.4834   29.7856 C.2     1  UNL1        0.4050
     11 O          -6.2948   -8.3686   29.1338 O.2     1  UNL1       -0.2262
     12 N          -8.3486   -7.5588   29.9153 N.am    1  UNL1       -0.2459
     13 C          -9.0789   -8.6240   29.2103 C.3     1  UNL1        0.0987
     14 C         -10.6018   -8.4495   29.3078 C.3     1  UNL1        0.0461
     15 C         -11.1047   -8.1221   30.7349 C.3     1  UNL1        0.1102
     16 C         -10.1319   -7.2477   31.5683 C.3     1  UNL1        0.0461
     17 C          -9.0840   -6.5553   30.6966 C.3     1  UNL1        0.0987
     18 C          -5.1548   -6.6550   31.3156 C.3     1  UNL1        0.2573
     19 O          -6.2087   -6.4360   30.3860 O.3     1  UNL1       -0.4304
     20 N         -12.1574  -13.7664   32.8580 N.pl3   1  UNL1       -0.2879
     21 C         -11.7573  -13.9923   34.2494 C.3     1  UNL1        0.1242
     22 C         -12.9484  -14.5409   35.0399 C.3     1  UNL1        0.1636
     23 O         -13.4915  -15.6813   34.4004 O.3     1  UNL1       -0.3501
     24 C         -14.0303  -15.3167   33.1428 C.3     1  UNL1        0.1636
     25 C         -12.9290  -14.8217   32.1992 C.3     1  UNL1        0.1242
     26 C          -8.7046  -12.8535   29.4872 C.ar    1  UNL1        0.0360
     27 C          -7.4599  -12.2031   29.4102 C.ar    1  UNL1        0.0043
     28 C          -6.4626  -12.6769   28.5524 C.ar    1  UNL1        0.0148
     29 C          -6.6856  -13.8181   27.7632 C.ar    1  UNL1        0.0516
     30 C          -7.9349  -14.4502   27.8176 C.ar    1  UNL1        0.0148
     31 C          -8.9326  -13.9784   28.6743 C.ar    1  UNL1        0.0043
     32 N          -5.6846  -14.3120   26.8568 N.am    1  UNL1       -0.2681
     33 C          -5.9582  -15.1835   25.7493 C.2     1  UNL1        0.3082
     34 O          -7.1477  -15.4112   25.3974 O.2     1  UNL1       -0.2522
     35 N          -4.8652  -15.7935   25.0459 N.am    1  UNL1       -0.2681
     36 H          -4.7116  -13.9413   26.9496 H       1  UNL1        0.1564
     37 H          -3.9327  -15.8009   25.5177 H       1  UNL1        0.1564
     38 C          -4.9989  -16.5000   23.8006 C.ar    1  UNL1        0.0516
     39 C          -5.8650  -16.0489   22.7898 C.ar    1  UNL1        0.0149
     40 C          -5.9594  -16.7399   21.5782 C.ar    1  UNL1        0.0077
     41 C          -5.1804  -17.8864   21.3481 C.ar    1  UNL1        0.0755
     42 C          -4.2975  -18.3220   22.3518 C.ar    1  UNL1        0.0077
     43 C          -4.2036  -17.6293   23.5623 C.ar    1  UNL1        0.0149
     44 C          -5.2839  -18.6153   20.0648 C.2     1  UNL1        0.3380
     45 O          -4.3034  -19.2738   19.6232 O.2     1  UNL1       -0.2451
     46 O          -6.4674  -18.5813   19.3316 O.3     1  UNL1       -0.4771
     47 H          -6.5490  -19.0769   18.4519 H       1  UNL1        0.2954
@<TRIPOS>BOND
     1    18    19    1
     2    19    10    1
     3    10    11    2
     4    10    12   am
     5    12    13    1
     6    13    14    1
     7    14    15    1
     8    15     1    1
     9     1     2   ar
    10     2     3   ar
    11     3     4   ar
    12     4     5   ar
    13     5    20    1
    14    20    21    1
    15    21    22    1
    16    22    23    1
    17    23    24    1
    18    24    25    1
    19     5     6   ar
    20     6     7   ar
    21     7    26    1
    22    26    27   ar
    23    27    28   ar
    24    28    29   ar
    25    29    32    1
    26    32    33   am
    27    33    34    2
    28    33    35   am
    29    35    38    1
    30    38    39   ar
    31    39    40   ar
    32    40    41   ar
    33    41    44    1
    34    44    45    2
    35    44    46    1
    36    41    42   ar
    37    42    43   ar
    38    29    30   ar
    39    30    31   ar
    40     7     8   ar
    41     8     9   ar
    42    15    16    1
    43    16    17    1
    44    17    12    1
    45     9     1   ar
    46     9     4   ar
    47    25    20    1
    48    31    26   ar
    49    43    38   ar
    50    32    36    1
    51    35    37    1
    52    46    47    1
@<TRIPOS>MOLECULE
*****
 47 52 0 0 0
SMALL
GASTEIGER

@<TRIPOS>ATOM
      1 N          -7.8449  -19.1691   20.9850 N.ar    1  UNL1       -0.2357
      2 N          -6.9663  -19.5839   20.0758 N.ar    1  UNL1       -0.1663
      3 C          -5.7376  -19.1182   20.4141 C.ar    1  UNL1        0.1260
      4 C          -5.8600  -18.3808   21.5736 C.ar    1  UNL1        0.0880
      5 C          -4.9816  -17.6278   22.3477 C.ar    1  UNL1        0.1380
      6 N          -5.5078  -16.9436   23.4083 N.ar    1  UNL1       -0.2117
      7 C          -6.8448  -17.0030   23.7200 C.ar    1  UNL1        0.1653
      8 N          -7.6885  -17.7524   22.9459 N.ar    1  UNL1       -0.2079
      9 C          -7.1777  -18.4253   21.8887 C.ar    1  UNL1        0.1652
     10 C         -12.0203  -16.8462   23.0695 C.2     1  UNL1        0.4050
     11 O         -11.9586  -15.5974   22.8939 O.2     1  UNL1       -0.2262
     12 N         -11.2941  -17.7318   22.1956 N.am    1  UNL1       -0.2459
     13 C         -10.5570  -17.1690   21.0532 C.3     1  UNL1        0.0987
     14 C          -9.9958  -18.2588   20.1277 C.3     1  UNL1        0.0461
     15 C          -9.2906  -19.4152   20.8776 C.3     1  UNL1        0.1102
     16 C          -9.9212  -19.7618   22.2515 C.3     1  UNL1        0.0461
     17 C         -11.3289  -19.1855   22.4048 C.3     1  UNL1        0.0987
     18 C         -14.0686  -17.9505   23.9142 C.3     1  UNL1        0.2573
     19 O         -12.7884  -17.3650   24.1175 O.3     1  UNL1       -0.4304
     20 N          -3.5825  -17.5338   22.0402 N.pl3   1  UNL1       -0.2879
     21 C          -2.6987  -18.6687   22.3191 C.3     1  UNL1        0.1242
     22 C          -1.4635  -18.5867   21.4179 C.3     1  UNL1        0.1636
     23 O          -0.8386  -17.3220   21.5385 O.3     1  UNL1       -0.3501
     24 C          -1.7042  -16.3100   21.0573 C.3     1  UNL1        0.1636
     25 C          -2.9647  -16.2118   21.9231 C.3     1  UNL1        0.1242
     26 C          -7.3773  -16.2511   24.8814 C.ar    1  UNL1        0.0360
     27 C          -6.5517  -15.9421   25.9773 C.ar    1  UNL1        0.0043
     28 C          -7.0555  -15.2245   27.0663 C.ar    1  UNL1        0.0148
     29 C          -8.3922  -14.7907   27.0760 C.ar    1  UNL1        0.0516
     30 C          -9.2236  -15.1224   25.9981 C.ar    1  UNL1        0.0148
     31 C          -8.7219  -15.8391   24.9088 C.ar    1  UNL1        0.0043
     32 N          -8.9403  -14.0709   28.1936 N.am    1  UNL1       -0.2681
     33 C          -8.2204  -13.0861   28.9506 C.2     1  UNL1        0.3082
     34 O          -7.1066  -12.6585   28.5420 O.2     1  UNL1       -0.2522
     35 N          -8.7804  -12.5925   30.1771 N.am    1  UNL1       -0.2681
     36 H          -9.9540  -14.2010   28.4126 H       1  UNL1        0.1564
     37 H          -9.5502  -13.1486   30.6136 H       1  UNL1        0.1564
     38 C          -8.2684  -11.4609   30.9018 C.ar    1  UNL1        0.0516
     39 C          -7.7500  -10.3366   30.2368 C.ar    1  UNL1        0.0149
     40 C          -7.2802   -9.2385   30.9637 C.ar    1  UNL1        0.0077
     41 C          -7.3322   -9.2373   32.3677 C.ar    1  UNL1        0.0755
     42 C          -7.8729  -10.3536   33.0298 C.ar    1  UNL1        0.0077
     43 C          -8.3430  -11.4502   32.3015 C.ar    1  UNL1        0.0149
     44 C          -6.8333   -8.0737   33.1332 C.2     1  UNL1        0.3380
     45 O          -7.5229   -7.0214   33.2178 O.2     1  UNL1       -0.2451
     46 O          -5.5955   -8.1301   33.7690 O.3     1  UNL1       -0.4771
     47 H          -5.2446   -7.3391   34.2958 H       1  UNL1        0.2954
@<TRIPOS>BOND
     1    18    19    1
     2    19    10    1
     3    10    11    2
     4    10    12   am
     5    12    13    1
     6    13    14    1
     7    14    15    1
     8    15     1    1
     9     1     2   ar
    10     2     3   ar
    11     3     4   ar
    12     4     5   ar
    13     5    20    1
    14    20    21    1
    15    21    22    1
    16    22    23    1
    17    23    24    1
    18    24    25    1
    19     5     6   ar
    20     6     7   ar
    21     7    26    1
    22    26    27   ar
    23    27    28   ar
    24    28    29   ar
    25    29    32    1
    26    32    33   am
    27    33    34    2
    28    33    35   am
    29    35    38    1
    30    38    39   ar
    31    39    40   ar
    32    40    41   ar
    33    41    44    1
    34    44    45    2
    35    44    46    1
    36    41    42   ar
    37    42    43   ar
    38    29    30   ar
    39    30    31   ar
    40     7     8   ar
    41     8     9   ar
    42    15    16    1
    43    16    17    1
    44    17    12    1
    45     9     1   ar
    46     9     4   ar
    47    25    20    1
    48    31    26   ar
    49    43    38   ar
    50    32    36    1
    51    35    37    1
    52    46    47    1
@<TRIPOS>MOLECULE
*****
 47 52 0 0 0
SMALL
GASTEIGER

@<TRIPOS>ATOM
      1 N          -7.7122  -19.2648   21.0221 N.ar    1  UNL1       -0.2357
      2 N          -7.0169  -19.6380   19.9507 N.ar    1  UNL1       -0.1663
      3 C          -5.7955  -19.0491   19.9980 C.ar    1  UNL1        0.1260
      4 C          -5.7333  -18.2758   21.1388 C.ar    1  UNL1        0.0880
      5 C          -4.7849  -17.4137   21.6820 C.ar    1  UNL1        0.1380
      6 N          -5.1312  -16.7340   22.8169 N.ar    1  UNL1       -0.2117
      7 C          -6.3557  -16.8999   23.4180 C.ar    1  UNL1        0.1653
      8 N          -7.2707  -17.7554   22.8671 N.ar    1  UNL1       -0.2079
      9 C          -6.9397  -18.4251   21.7386 C.ar    1  UNL1        0.1652
     10 C         -12.2160  -16.6761   20.5871 C.2     1  UNL1        0.4050
     11 O         -12.2801  -16.0960   19.4675 O.2     1  UNL1       -0.2262
     12 N         -11.3543  -17.8179   20.7568 N.am    1  UNL1       -0.2459
     13 C         -10.6237  -18.3461   19.5939 C.3     1  UNL1        0.0987
     14 C          -9.9011  -19.6643   19.9090 C.3     1  UNL1        0.0461
     15 C          -9.1155  -19.6446   21.2429 C.3     1  UNL1        0.1102
     16 C          -9.7756  -18.7933   22.3586 C.3     1  UNL1        0.0461
     17 C         -11.2432  -18.4855   22.0608 C.3     1  UNL1        0.0987
     18 C         -12.3904  -15.6602   22.8379 C.3     1  UNL1        0.2573
     19 O         -12.9773  -16.2027   21.6613 O.3     1  UNL1       -0.4304
     20 N          -3.5026  -17.2075   21.0704 N.pl3   1  UNL1       -0.2879
     21 C          -2.5316  -16.3100   21.7018 C.3     1  UNL1        0.1242
     22 C          -1.1188  -16.6853   21.2462 C.3     1  UNL1        0.1636
     23 O          -1.0413  -16.7213   19.8329 O.3     1  UNL1       -0.3501
     24 C          -1.8686  -17.7555   19.3321 C.3     1  UNL1        0.1636
     25 C          -3.3430  -17.4732   19.6397 C.3     1  UNL1        0.1242
     26 C          -6.6928  -16.1491   24.6510 C.ar    1  UNL1        0.0360
     27 C          -8.0298  -16.0099   25.0649 C.ar    1  UNL1        0.0043
     28 C          -8.3424  -15.3091   26.2336 C.ar    1  UNL1        0.0148
     29 C          -7.3233  -14.7436   27.0187 C.ar    1  UNL1        0.0516
     30 C          -5.9933  -14.8568   26.5927 C.ar    1  UNL1        0.0148
     31 C          -5.6788  -15.5570   25.4254 C.ar    1  UNL1        0.0043
     32 N          -7.6202  -13.9992   28.2125 N.am    1  UNL1       -0.2681
     33 C          -6.8654  -12.8648   28.6649 C.2     1  UNL1        0.3082
     34 O          -5.9974  -12.3385   27.9164 O.2     1  UNL1       -0.2522
     35 N          -7.1077  -12.3352   29.9772 N.am    1  UNL1       -0.2681
     36 H          -8.4937  -14.2365   28.7353 H       1  UNL1        0.1564
     37 H          -7.6234  -12.9419   30.6541 H       1  UNL1        0.1564
     38 C          -6.5806  -11.0853   30.4546 C.ar    1  UNL1        0.0516
     39 C          -5.4612  -11.0368   31.3030 C.ar    1  UNL1        0.0149
     40 C          -4.9528   -9.8079   31.7343 C.ar    1  UNL1        0.0077
     41 C          -5.5445   -8.6044   31.3153 C.ar    1  UNL1        0.0755
     42 C          -6.6497   -8.6551   30.4480 C.ar    1  UNL1        0.0077
     43 C          -7.1562   -9.8846   30.0168 C.ar    1  UNL1        0.0149
     44 C          -5.0039   -7.3061   31.7748 C.2     1  UNL1        0.3380
     45 O          -4.6516   -7.1496   32.9755 O.2     1  UNL1       -0.2451
     46 O          -4.8783   -6.2431   30.8839 O.3     1  UNL1       -0.4771
     47 H          -4.5092   -5.3501   31.1880 H       1  UNL1        0.2954
@<TRIPOS>BOND
     1    18    19    1
     2    19    10    1
     3    10    11    2
     4    10    12   am
     5    12    13    1
     6    13    14    1
     7    14    15    1
     8    15     1    1
     9     1     2   ar
    10     2     3   ar
    11     3     4   ar
    12     4     5   ar
    13     5    20    1
    14    20    21    1
    15    21    22    1
    16    22    23    1
    17    23    24    1
    18    24    25    1
    19     5     6   ar
    20     6     7   ar
    21     7    26    1
    22    26    27   ar
    23    27    28   ar
    24    28    29   ar
    25    29    32    1
    26    32    33   am
    27    33    34    2
    28    33    35   am
    29    35    38    1
    30    38    39   ar
    31    39    40   ar
    32    40    41   ar
    33    41    44    1
    34    44    45    2
    35    44    46    1
    36    41    42   ar
    37    42    43   ar
    38    29    30   ar
    39    30    31   ar
    40     7     8   ar
    41     8     9   ar
    42    15    16    1
    43    16    17    1
    44    17    12    1
    45     9     1   ar
    46     9     4   ar
    47    25    20    1
    48    31    26   ar
    49    43    38   ar
    50    32    36    1
    51    35    37    1
    52    46    47    1
@<TRIPOS>MOLECULE
*****
 47 52 0 0 0
SMALL
GASTEIGER

@<TRIPOS>ATOM
      1 N          -7.7873  -19.7205   21.0627 N.ar    1  UNL1       -0.2357
      2 N          -7.2001  -20.2981   20.0177 N.ar    1  UNL1       -0.1663
      3 C          -5.8996  -19.9127   19.9816 C.ar    1  UNL1        0.1260
      4 C          -5.6734  -19.0581   21.0407 C.ar    1  UNL1        0.0880
      5 C          -4.5807  -18.3146   21.4775 C.ar    1  UNL1        0.1380
      6 N          -4.7726  -17.4865   22.5486 N.ar    1  UNL1       -0.2117
      7 C          -5.9849  -17.3962   23.1892 C.ar    1  UNL1        0.1653
      8 N          -7.0439  -18.1393   22.7433 N.ar    1  UNL1       -0.2079
      9 C          -6.8653  -18.9546   21.6779 C.ar    1  UNL1        0.1652
     10 C         -11.8161  -16.4461   20.5910 C.2     1  UNL1        0.4050
     11 O         -11.8283  -15.9317   19.4380 O.2     1  UNL1       -0.2262
     12 N         -11.1484  -17.7037   20.8102 N.am    1  UNL1       -0.2459
     13 C         -10.5621  -18.4154   19.6635 C.3     1  UNL1        0.0987
     14 C         -10.0549  -19.8145   20.0434 C.3     1  UNL1        0.0461
     15 C          -9.2240  -19.8464   21.3493 C.3     1  UNL1        0.1102
     16 C          -9.6895  -18.8313   22.4255 C.3     1  UNL1        0.0461
     17 C         -11.0969  -18.3009   22.1514 C.3     1  UNL1        0.0987
     18 C         -11.8342  -15.6307   22.9284 C.3     1  UNL1        0.2573
     19 O         -12.4452  -15.7884   21.6537 O.3     1  UNL1       -0.4304
     20 N          -3.3053  -18.3756   20.8215 N.pl3   1  UNL1       -0.2879
     21 C          -3.1145  -17.6958   19.5376 C.3     1  UNL1        0.1242
     22 C          -1.6265  -17.3975   19.3346 C.3     1  UNL1        0.1636
     23 O          -0.8543  -18.5742   19.4877 O.3     1  UNL1       -0.3501
     24 C          -0.9499  -19.0421   20.8207 C.3     1  UNL1        0.1636
     25 C          -2.3853  -19.4661   21.1494 C.3     1  UNL1        0.1242
     26 C          -6.1528  -16.4907   24.3509 C.ar    1  UNL1        0.0360
     27 C          -7.4278  -16.0289   24.7239 C.ar    1  UNL1        0.0043
     28 C          -7.5827  -15.1827   25.8260 C.ar    1  UNL1        0.0148
     29 C          -6.4667  -14.7907   26.5849 C.ar    1  UNL1        0.0516
     30 C          -5.1926  -15.2266   26.1975 C.ar    1  UNL1        0.0148
     31 C          -5.0359  -16.0725   25.0967 C.ar    1  UNL1        0.0043
     32 N          -6.5966  -13.9034   27.7088 N.am    1  UNL1       -0.2681
     33 C          -7.8439  -13.5812   28.3426 C.2     1  UNL1        0.3082
     34 O          -8.8891  -14.2258   28.0550 O.2     1  UNL1       -0.2522
     35 N          -7.8904  -12.5186   29.3070 N.am    1  UNL1       -0.2681
     36 H          -5.7224  -13.5425   28.1538 H       1  UNL1        0.1564
     37 H          -7.0908  -11.8457   29.3216 H       1  UNL1        0.1564
     38 C          -9.0162  -12.2500   30.1604 C.ar    1  UNL1        0.0516
     39 C         -10.3358  -12.3440   29.6863 C.ar    1  UNL1        0.0149
     40 C         -11.4144  -12.1014   30.5421 C.ar    1  UNL1        0.0077
     41 C         -11.1953  -11.7738   31.8908 C.ar    1  UNL1        0.0755
     42 C          -9.8749  -11.7033   32.3683 C.ar    1  UNL1        0.0077
     43 C          -8.7976  -11.9472   31.5114 C.ar    1  UNL1        0.0149
     44 C         -12.3395  -11.5170   32.7929 C.2     1  UNL1        0.3380
     45 O         -13.0506  -12.4710   33.2104 O.2     1  UNL1       -0.2451
     46 O         -12.6417  -10.2170   33.1908 O.3     1  UNL1       -0.4771
     47 H         -13.4227  -10.0301   33.8083 H       1  UNL1        0.2954
@<TRIPOS>BOND
     1    18    19    1
     2    19    10    1
     3    10    11    2
     4    10    12   am
     5    12    13    1
     6    13    14    1
     7    14    15    1
     8    15     1    1
     9     1     2   ar
    10     2     3   ar
    11     3     4   ar
    12     4     5   ar
    13     5    20    1
    14    20    21    1
    15    21    22    1
    16    22    23    1
    17    23    24    1
    18    24    25    1
    19     5     6   ar
    20     6     7   ar
    21     7    26    1
    22    26    27   ar
    23    27    28   ar
    24    28    29   ar
    25    29    32    1
    26    32    33   am
    27    33    34    2
    28    33    35   am
    29    35    38    1
    30    38    39   ar
    31    39    40   ar
    32    40    41   ar
    33    41    44    1
    34    44    45    2
    35    44    46    1
    36    41    42   ar
    37    42    43   ar
    38    29    30   ar
    39    30    31   ar
    40     7     8   ar
    41     8     9   ar
    42    15    16    1
    43    16    17    1
    44    17    12    1
    45     9     1   ar
    46     9     4   ar
    47    25    20    1
    48    31    26   ar
    49    43    38   ar
    50    32    36    1
    51    35    37    1
    52    46    47    1
@<TRIPOS>MOLECULE
*****
 47 52 0 0 0
SMALL
GASTEIGER

@<TRIPOS>ATOM
      1 N         -11.6153  -10.4775   31.6485 N.ar    1  UNL1       -0.2357
      2 N         -11.6155   -9.3328   32.3269 N.ar    1  UNL1       -0.1663
      3 C         -10.4187   -8.7196   32.1459 C.ar    1  UNL1        0.1260
      4 C          -9.6442   -9.5178   31.3296 C.ar    1  UNL1        0.0880
      5 C          -8.3381   -9.4486   30.8532 C.ar    1  UNL1        0.1380
      6 N          -7.8801  -10.5084   30.1206 N.ar    1  UNL1       -0.2117
      7 C          -8.6725  -11.5960   29.8425 C.ar    1  UNL1        0.1653
      8 N          -9.9544  -11.6401   30.3193 N.ar    1  UNL1       -0.2079
      9 C         -10.4129  -10.5995   31.0532 C.ar    1  UNL1        0.1652
     10 C         -12.1885  -15.1352   33.9182 C.2     1  UNL1        0.4050
     11 O         -11.8464  -15.0748   35.1320 O.2     1  UNL1       -0.2262
     12 N         -12.5942  -13.9393   33.2252 N.am    1  UNL1       -0.2459
     13 C         -12.6869  -12.6736   33.9699 C.3     1  UNL1        0.0987
     14 C         -13.3048  -11.5465   33.1292 C.3     1  UNL1        0.0461
     15 C         -12.7240  -11.4421   31.6979 C.3     1  UNL1        0.1102
     16 C         -12.3328  -12.8043   31.0682 C.3     1  UNL1        0.0461
     17 C         -12.9649  -13.9858   31.8044 C.3     1  UNL1        0.0987
     18 C         -13.2577  -16.8335   32.4686 C.3     1  UNL1        0.2573
     19 O         -12.1650  -16.3634   33.2483 O.3     1  UNL1       -0.4304
     20 N          -7.4804   -8.3332   31.1381 N.pl3   1  UNL1       -0.2879
     21 C          -7.1064   -7.4101   30.0634 C.3     1  UNL1        0.1242
     22 C          -6.7200   -6.0563   30.6654 C.3     1  UNL1        0.1636
     23 O          -5.7283   -6.2165   31.6632 O.3     1  UNL1       -0.3501
     24 C          -6.2541   -6.9575   32.7492 C.3     1  UNL1        0.1636
     25 C          -6.6122   -8.3829   32.3158 C.3     1  UNL1        0.1242
     26 C          -8.1418  -12.7240   29.0401 C.ar    1  UNL1        0.0360
     27 C          -8.9996  -13.7286   28.5572 C.ar    1  UNL1        0.0043
     28 C          -8.4963  -14.7855   27.7928 C.ar    1  UNL1        0.0148
     29 C          -7.1266  -14.8526   27.4854 C.ar    1  UNL1        0.0516
     30 C          -6.2665  -13.8682   27.9897 C.ar    1  UNL1        0.0148
     31 C          -6.7676  -12.8111   28.7535 C.ar    1  UNL1        0.0043
     32 N          -6.5809  -15.9409   26.7202 N.am    1  UNL1       -0.2681
     33 C          -5.7614  -15.7756   25.5531 C.2     1  UNL1        0.3082
     34 O          -5.3138  -14.6372   25.2458 O.2     1  UNL1       -0.2522
     35 N          -5.4562  -16.9181   24.7389 N.am    1  UNL1       -0.2681
     36 H          -6.7078  -16.9116   27.0866 H       1  UNL1        0.1564
     37 H          -6.0476  -17.7707   24.8637 H       1  UNL1        0.1564
     38 C          -4.4790  -16.9212   23.6840 C.ar    1  UNL1        0.0516
     39 C          -4.4911  -15.9491   22.6691 C.ar    1  UNL1        0.0149
     40 C          -3.5156  -15.9592   21.6676 C.ar    1  UNL1        0.0077
     41 C          -2.5019  -16.9321   21.6689 C.ar    1  UNL1        0.0755
     42 C          -2.4784  -17.8893   22.6983 C.ar    1  UNL1        0.0077
     43 C          -3.4539  -17.8771   23.6995 C.ar    1  UNL1        0.0149
     44 C          -1.4720  -16.9398   20.6067 C.2     1  UNL1        0.3380
     45 O          -1.8067  -17.0047   19.3927 O.2     1  UNL1       -0.2451
     46 O          -0.1210  -16.8747   20.9384 O.3     1  UNL1       -0.4771
     47 H           0.5923  -16.8791   20.2190 H       1  UNL1        0.2954
@<TRIPOS>BOND
     1    18    19    1
     2    19    10    1
     3    10    11    2
     4    10    12   am
     5    12    13    1
     6    13    14    1
     7    14    15    1
     8    15     1    1
     9     1     2   ar
    10     2     3   ar
    11     3     4   ar
    12     4     5   ar
    13     5    20    1
    14    20    21    1
    15    21    22    1
    16    22    23    1
    17    23    24    1
    18    24    25    1
    19     5     6   ar
    20     6     7   ar
    21     7    26    1
    22    26    27   ar
    23    27    28   ar
    24    28    29   ar
    25    29    32    1
    26    32    33   am
    27    33    34    2
    28    33    35   am
    29    35    38    1
    30    38    39   ar
    31    39    40   ar
    32    40    41   ar
    33    41    44    1
    34    44    45    2
    35    44    46    1
    36    41    42   ar
    37    42    43   ar
    38    29    30   ar
    39    30    31   ar
    40     7     8   ar
    41     8     9   ar
    42    15    16    1
    43    16    17    1
    44    17    12    1
    45     9     1   ar
    46     9     4   ar
    47    25    20    1
    48    31    26   ar
    49    43    38   ar
    50    32    36    1
    51    35    37    1
    52    46    47    1
@<TRIPOS>MOLECULE
*****
 47 52 0 0 0
SMALL
GASTEIGER

@<TRIPOS>ATOM
      1 N          -8.1772  -10.7844   31.1803 N.ar    1  UNL1       -0.2357
      2 N          -8.9496  -10.4369   32.2066 N.ar    1  UNL1       -0.1663
      3 C          -9.9565  -11.3394   32.3184 C.ar    1  UNL1        0.1260
      4 C          -9.8067  -12.2788   31.3191 C.ar    1  UNL1        0.0880
      5 C         -10.5439  -13.3826   30.9001 C.ar    1  UNL1        0.1380
      6 N         -10.1143  -14.0352   29.7779 N.ar    1  UNL1       -0.2117
      7 C          -8.9909  -13.6395   29.0925 C.ar    1  UNL1        0.1653
      8 N          -8.2807  -12.5529   29.5255 N.ar    1  UNL1       -0.2079
      9 C          -8.7042  -11.8954   30.6300 C.ar    1  UNL1        0.1652
     10 C          -6.9097   -5.7628   31.7737 C.2     1  UNL1        0.4050
     11 O          -6.9786   -5.4358   32.9913 O.2     1  UNL1       -0.2262
     12 N          -6.7206   -7.1438   31.4098 N.am    1  UNL1       -0.2459
     13 C          -6.5233   -8.1456   32.4693 C.3     1  UNL1        0.0987
     14 C          -6.1568   -9.5263   31.9050 C.3     1  UNL1        0.0461
     15 C          -7.0426   -9.9723   30.7162 C.3     1  UNL1        0.1102
     16 C          -7.5012   -8.8132   29.7934 C.3     1  UNL1        0.0461
     17 C          -6.6701   -7.5464   29.9979 C.3     1  UNL1        0.0987
     18 C          -8.2134   -4.5939   30.0237 C.3     1  UNL1        0.2573
     19 O          -7.0249   -4.7828   30.7818 O.3     1  UNL1       -0.4304
     20 N         -11.7297  -13.8128   31.5855 N.pl3   1  UNL1       -0.2879
     21 C         -11.9511  -15.2405   31.8299 C.3     1  UNL1        0.1242
     22 C         -12.8973  -15.4133   33.0212 C.3     1  UNL1        0.1636
     23 O         -14.0851  -14.6670   32.8298 O.3     1  UNL1       -0.3501
     24 C         -13.7850  -13.2834   32.8050 C.3     1  UNL1        0.1636
     25 C         -12.9026  -12.9370   31.6011 C.3     1  UNL1        0.1242
     26 C          -8.5533  -14.3759   27.8826 C.ar    1  UNL1        0.0360
     27 C          -9.4383  -14.5862   26.8099 C.ar    1  UNL1        0.0043
     28 C          -9.0186  -15.2729   25.6667 C.ar    1  UNL1        0.0148
     29 C          -7.7014  -15.7527   25.5680 C.ar    1  UNL1        0.0516
     30 C          -6.8270  -15.5691   26.6473 C.ar    1  UNL1        0.0148
     31 C          -7.2446  -14.8828   27.7904 C.ar    1  UNL1        0.0043
     32 N          -7.2519  -16.4813   24.4127 N.am    1  UNL1       -0.2681
     33 C          -5.9295  -16.3853   23.8622 C.2     1  UNL1        0.3082
     34 O          -5.0188  -15.7848   24.4951 O.2     1  UNL1       -0.2522
     35 N          -5.6533  -16.9792   22.5846 N.am    1  UNL1       -0.2681
     36 H          -7.8943  -17.1963   24.0020 H       1  UNL1        0.1564
     37 H          -6.4701  -17.2247   21.9805 H       1  UNL1        0.1564
     38 C          -4.3338  -17.1397   22.0359 C.ar    1  UNL1        0.0516
     39 C          -3.2829  -17.6798   22.7968 C.ar    1  UNL1        0.0149
     40 C          -2.0146  -17.8482   22.2331 C.ar    1  UNL1        0.0077
     41 C          -1.7759  -17.4930   20.8948 C.ar    1  UNL1        0.0755
     42 C          -2.8348  -16.9748   20.1288 C.ar    1  UNL1        0.0077
     43 C          -4.1026  -16.8080   20.6938 C.ar    1  UNL1        0.0149
     44 C          -0.4321  -17.6720   20.3023 C.2     1  UNL1        0.3380
     45 O           0.1549  -18.7857   20.3747 O.2     1  UNL1       -0.2451
     46 O           0.1977  -16.6105   19.6573 O.3     1  UNL1       -0.4771
     47 H           1.1177  -16.7223   19.2480 H       1  UNL1        0.2954
@<TRIPOS>BOND
     1    18    19    1
     2    19    10    1
     3    10    11    2
     4    10    12   am
     5    12    13    1
     6    13    14    1
     7    14    15    1
     8    15     1    1
     9     1     2   ar
    10     2     3   ar
    11     3     4   ar
    12     4     5   ar
    13     5    20    1
    14    20    21    1
    15    21    22    1
    16    22    23    1
    17    23    24    1
    18    24    25    1
    19     5     6   ar
    20     6     7   ar
    21     7    26    1
    22    26    27   ar
    23    27    28   ar
    24    28    29   ar
    25    29    32    1
    26    32    33   am
    27    33    34    2
    28    33    35   am
    29    35    38    1
    30    38    39   ar
    31    39    40   ar
    32    40    41   ar
    33    41    44    1
    34    44    45    2
    35    44    46    1
    36    41    42   ar
    37    42    43   ar
    38    29    30   ar
    39    30    31   ar
    40     7     8   ar
    41     8     9   ar
    42    15    16    1
    43    16    17    1
    44    17    12    1
    45     9     1   ar
    46     9     4   ar
    47    25    20    1
    48    31    26   ar
    49    43    38   ar
    50    32    36    1
    51    35    37    1
    52    46    47    1
