@<TRIPOS>MOLECULE
*****
 45 50 0 0 0
SMALL
GASTEIGER

@<TRIPOS>ATOM
      1 C         -62.3115  -40.8103  -20.1445 C.ar    1  UNL1        0.0702
      2 C         -62.8650  -41.4051  -21.2888 C.ar    1  UNL1        0.0191
      3 C         -62.2823  -42.5490  -21.8365 C.ar    1  UNL1        0.0356
      4 C         -61.1469  -43.1115  -21.2277 C.ar    1  UNL1        0.1318
      5 N         -60.6389  -42.5223  -20.1087 N.ar    1  UNL1       -0.2279
      6 C         -61.1894  -41.4084  -19.5584 C.ar    1  UNL1        0.1149
      7 N         -60.5140  -44.2943  -21.7643 N.pl3   1  UNL1       -0.2932
      8 C         -61.2387  -45.5744  -21.7603 C.3     1  UNL1        0.0923
      9 C         -60.2575  -46.7346  -21.5670 C.3     1  UNL1        0.0252
     10 C         -59.1293  -46.7539  -22.6342 C.3     1  UNL1        0.0472
     11 C         -58.9590  -45.3943  -23.3538 C.3     1  UNL1        0.0252
     12 C         -59.1917  -44.2111  -22.4083 C.3     1  UNL1        0.0923
     13 C         -59.3562  -47.8805  -23.6557 C.3     1  UNL1        0.2054
     14 O         -60.7061  -47.8549  -24.1148 O.3     1  UNL1       -0.4750
     15 C         -61.5752  -48.9564  -24.1072 C.ar    1  UNL1        0.1440
     16 C         -61.2790  -50.1415  -23.4037 C.ar    1  UNL1        0.0438
     17 C         -62.1728  -51.2284  -23.4201 C.ar    1  UNL1        0.0785
     18 C         -63.3774  -51.1083  -24.1333 C.ar    1  UNL1        0.0071
     19 C         -63.6737  -49.9366  -24.8313 C.ar    1  UNL1        0.0090
     20 C         -62.7774  -48.8655  -24.8227 C.ar    1  UNL1        0.0640
     21 I         -63.2683  -47.1071  -25.8908 I       1  UNL1       -0.0394
     22 C         -61.8729  -52.4796  -22.6817 C.2     1  UNL1        0.3381
     23 O         -60.7056  -52.6900  -22.2570 O.2     1  UNL1       -0.2451
     24 O         -62.8561  -53.4346  -22.4249 O.3     1  UNL1       -0.4771
     25 H         -63.8329  -53.2836  -22.6413 H       1  UNL1        0.2954
     26 C         -62.9874  -38.3679  -20.1846 C.2     1  UNL1        0.2839
     27 O         -62.1617  -38.0587  -21.0853 O.2     1  UNL1       -0.2665
     28 N         -62.8979  -39.6461  -19.5375 N.am    1  UNL1       -0.2766
     29 H         -63.1757  -39.7031  -18.5322 H       1  UNL1        0.1553
     30 C         -66.1996  -38.5046  -20.5349 C.3     1  UNL1        0.0345
     31 C         -65.3723  -37.4261  -19.9029 C.ar    1  UNL1        0.0202
     32 C         -63.9804  -37.3657  -19.7593 C.ar    1  UNL1        0.1946
     33 O         -63.6356  -36.2322  -19.1739 O.2     1  UNL1       -0.4492
     34 C         -64.7323  -35.5649  -18.9101 C.ar    1  UNL1        0.1452
     35 C         -64.8390  -34.3237  -18.2925 C.ar    1  UNL1        0.0375
     36 C         -66.1252  -33.7880  -18.1053 C.ar    1  UNL1        0.0031
     37 C         -67.2796  -34.4970  -18.5353 C.ar    1  UNL1        0.0002
     38 C         -67.1261  -35.7577  -19.1606 C.ar    1  UNL1        0.0028
     39 C         -65.8349  -36.2579  -19.3303 C.ar    1  UNL1        0.0337
     40 C         -68.6334  -33.9220  -18.3311 C.ar    1  UNL1        0.0000
     41 C         -68.8206  -32.8169  -17.4789 C.ar    1  UNL1        0.0000
     42 C         -70.0965  -32.2776  -17.2883 C.ar    1  UNL1        0.0000
     43 C         -71.1976  -32.8336  -17.9430 C.ar    1  UNL1        0.0000
     44 C         -71.0252  -33.9304  -18.7904 C.ar    1  UNL1        0.0000
     45 C         -69.7515  -34.4733  -18.9855 C.ar    1  UNL1        0.0000
@<TRIPOS>BOND
     1    30    31    1
     2    31    32   ar
     3    32    26    1
     4    26    27    2
     5    26    28   am
     6    28     1    1
     7     1     2   ar
     8     2     3   ar
     9     3     4   ar
    10     4     7    1
    11     7     8    1
    12     8     9    1
    13     9    10    1
    14    10    13    1
    15    13    14    1
    16    14    15    1
    17    15    16   ar
    18    16    17   ar
    19    17    22    1
    20    22    23    2
    21    22    24    1
    22    17    18   ar
    23    18    19   ar
    24    19    20   ar
    25    20    21    1
    26    10    11    1
    27    11    12    1
    28     4     5   ar
    29     5     6   ar
    30    32    33   ar
    31    33    34   ar
    32    34    35   ar
    33    35    36   ar
    34    36    37   ar
    35    37    40    1
    36    40    41   ar
    37    41    42   ar
    38    42    43   ar
    39    43    44   ar
    40    44    45   ar
    41    37    38   ar
    42    38    39   ar
    43    39    31   ar
    44     6     1   ar
    45    39    34   ar
    46    12     7    1
    47    45    40   ar
    48    20    15   ar
    49    28    29    1
    50    24    25    1
@<TRIPOS>MOLECULE
*****
 45 50 0 0 0
SMALL
GASTEIGER

@<TRIPOS>ATOM
      1 C         -62.2901  -41.1227  -20.1638 C.ar    1  UNL1        0.0702
      2 C         -63.0478  -41.9333  -21.0232 C.ar    1  UNL1        0.0191
      3 C         -62.4909  -43.0916  -21.5675 C.ar    1  UNL1        0.0356
      4 C         -61.1720  -43.4506  -21.2390 C.ar    1  UNL1        0.1318
      5 N         -60.4638  -42.6535  -20.3902 N.ar    1  UNL1       -0.2279
      6 C         -60.9855  -41.5215  -19.8487 C.ar    1  UNL1        0.1149
      7 N         -60.5592  -44.6410  -21.7821 N.pl3   1  UNL1       -0.2932
      8 C         -61.2406  -45.9377  -21.6481 C.3     1  UNL1        0.0923
      9 C         -60.2101  -47.0616  -21.5015 C.3     1  UNL1        0.0252
     10 C         -59.1923  -47.1027  -22.6739 C.3     1  UNL1        0.0472
     11 C         -59.1352  -45.7752  -23.4675 C.3     1  UNL1        0.0252
     12 C         -59.3098  -44.5545  -22.5578 C.3     1  UNL1        0.0923
     13 C         -59.4841  -48.2825  -23.6158 C.3     1  UNL1        0.2054
     14 O         -60.7740  -48.8214  -23.3336 O.3     1  UNL1       -0.4750
     15 C         -61.8565  -48.8161  -24.2263 C.ar    1  UNL1        0.1440
     16 C         -62.1087  -47.7342  -25.0939 C.ar    1  UNL1        0.0438
     17 C         -63.2057  -47.7612  -25.9749 C.ar    1  UNL1        0.0785
     18 C         -64.0373  -48.8936  -25.9919 C.ar    1  UNL1        0.0071
     19 C         -63.7908  -49.9665  -25.1339 C.ar    1  UNL1        0.0090
     20 C         -62.7084  -49.9293  -24.2521 C.ar    1  UNL1        0.0640
     21 I         -62.3692  -51.5787  -22.9721 I       1  UNL1       -0.0394
     22 C         -63.4797  -46.6296  -26.8941 C.2     1  UNL1        0.3381
     23 O         -62.9394  -45.5106  -26.6861 O.2     1  UNL1       -0.2451
     24 O         -64.3128  -46.7696  -28.0037 O.3     1  UNL1       -0.4771
     25 H         -64.6929  -47.6621  -28.2911 H       1  UNL1        0.2954
     26 C         -62.8978  -38.6629  -20.2254 C.2     1  UNL1        0.2839
     27 O         -62.0733  -38.3873  -21.1379 O.2     1  UNL1       -0.2665
     28 N         -62.8374  -39.9357  -19.5645 N.am    1  UNL1       -0.2766
     29 H         -63.1063  -39.9735  -18.5558 H       1  UNL1        0.1553
     30 C         -66.1124  -38.6944  -20.5795 C.3     1  UNL1        0.0345
     31 C         -65.2509  -37.6433  -19.9471 C.ar    1  UNL1        0.0202
     32 C         -63.8580  -37.6286  -19.8018 C.ar    1  UNL1        0.1946
     33 O         -63.4769  -36.5066  -19.2165 O.2     1  UNL1       -0.4492
     34 C         -64.5515  -35.8036  -18.9544 C.ar    1  UNL1        0.1452
     35 C         -64.6181  -34.5592  -18.3375 C.ar    1  UNL1        0.0375
     36 C         -65.8863  -33.9815  -18.1521 C.ar    1  UNL1        0.0031
     37 C         -67.0628  -34.6526  -18.5832 C.ar    1  UNL1        0.0002
     38 C         -66.9500  -35.9180  -19.2077 C.ar    1  UNL1        0.0028
     39 C         -65.6756  -36.4603  -19.3756 C.ar    1  UNL1        0.0337
     40 C         -68.3973  -34.0333  -18.3809 C.ar    1  UNL1        0.0000
     41 C         -68.5476  -32.9168  -17.5365 C.ar    1  UNL1        0.0000
     42 C         -69.8054  -32.3358  -17.3476 C.ar    1  UNL1        0.0000
     43 C         -70.9249  -32.8612  -17.9964 C.ar    1  UNL1        0.0000
     44 C         -70.7890  -33.9690  -18.8360 C.ar    1  UNL1        0.0000
     45 C         -69.5335  -34.5536  -19.0293 C.ar    1  UNL1        0.0000
@<TRIPOS>BOND
     1    30    31    1
     2    31    32   ar
     3    32    26    1
     4    26    27    2
     5    26    28   am
     6    28     1    1
     7     1     2   ar
     8     2     3   ar
     9     3     4   ar
    10     4     7    1
    11     7     8    1
    12     8     9    1
    13     9    10    1
    14    10    13    1
    15    13    14    1
    16    14    15    1
    17    15    16   ar
    18    16    17   ar
    19    17    22    1
    20    22    23    2
    21    22    24    1
    22    17    18   ar
    23    18    19   ar
    24    19    20   ar
    25    20    21    1
    26    10    11    1
    27    11    12    1
    28     4     5   ar
    29     5     6   ar
    30    32    33   ar
    31    33    34   ar
    32    34    35   ar
    33    35    36   ar
    34    36    37   ar
    35    37    40    1
    36    40    41   ar
    37    41    42   ar
    38    42    43   ar
    39    43    44   ar
    40    44    45   ar
    41    37    38   ar
    42    38    39   ar
    43    39    31   ar
    44     6     1   ar
    45    39    34   ar
    46    12     7    1
    47    45    40   ar
    48    20    15   ar
    49    28    29    1
    50    24    25    1
@<TRIPOS>MOLECULE
*****
 45 50 0 0 0
SMALL
GASTEIGER

@<TRIPOS>ATOM
      1 C         -62.1128  -41.1124  -20.0279 C.ar    1  UNL1        0.0702
      2 C         -60.7442  -41.2227  -20.3185 C.ar    1  UNL1        0.0191
      3 C         -60.2386  -42.3961  -20.8803 C.ar    1  UNL1        0.0356
      4 C         -61.1093  -43.4617  -21.1677 C.ar    1  UNL1        0.1318
      5 N         -62.4361  -43.3223  -20.8893 N.ar    1  UNL1       -0.2279
      6 C         -62.9503  -42.1895  -20.3423 C.ar    1  UNL1        0.1149
      7 N         -60.6251  -44.6928  -21.7484 N.pl3   1  UNL1       -0.2932
      8 C         -61.5193  -45.8573  -21.8392 C.3     1  UNL1        0.0923
      9 C         -60.7163  -47.1519  -21.6789 C.3     1  UNL1        0.0252
     10 C         -59.5598  -47.2751  -22.7083 C.3     1  UNL1        0.0472
     11 C         -59.1746  -45.9181  -23.3452 C.3     1  UNL1        0.0252
     12 C         -59.2792  -44.7633  -22.3433 C.3     1  UNL1        0.0923
     13 C         -59.8991  -48.3057  -23.7977 C.3     1  UNL1        0.2054
     14 O         -61.2133  -48.0683  -24.2980 O.3     1  UNL1       -0.4750
     15 C         -61.5137  -47.7118  -25.6215 C.ar    1  UNL1        0.1440
     16 C         -60.6243  -46.9615  -26.4171 C.ar    1  UNL1        0.0438
     17 C         -60.9592  -46.6193  -27.7404 C.ar    1  UNL1        0.0785
     18 C         -62.1877  -47.0542  -28.2658 C.ar    1  UNL1        0.0071
     19 C         -63.0709  -47.7969  -27.4807 C.ar    1  UNL1        0.0090
     20 C         -62.7395  -48.1228  -26.1637 C.ar    1  UNL1        0.0640
     21 I         -64.1057  -49.2535  -25.0108 I       1  UNL1       -0.0394
     22 C         -60.0305  -45.8321  -28.5879 C.2     1  UNL1        0.3381
     23 O         -60.1552  -44.5802  -28.6556 O.2     1  UNL1       -0.2451
     24 O         -59.0011  -46.4375  -29.3081 O.3     1  UNL1       -0.4771
     25 H         -58.7763  -47.4198  -29.2169 H       1  UNL1        0.2954
     26 C         -62.8058  -38.6806  -20.1994 C.2     1  UNL1        0.2839
     27 O         -62.0305  -38.4316  -21.1615 O.2     1  UNL1       -0.2665
     28 N         -62.6742  -39.9110  -19.4719 N.am    1  UNL1       -0.2766
     29 H         -62.8986  -39.8996  -18.4518 H       1  UNL1        0.1553
     30 C         -66.0164  -38.7519  -20.5829 C.3     1  UNL1        0.0345
     31 C         -65.1731  -37.6865  -19.9500 C.ar    1  UNL1        0.0202
     32 C         -63.7817  -37.6545  -19.7920 C.ar    1  UNL1        0.1946
     33 O         -63.4191  -36.5242  -19.2112 O.2     1  UNL1       -0.4492
     34 C         -64.5042  -35.8319  -18.9640 C.ar    1  UNL1        0.1452
     35 C         -64.5909  -34.5841  -18.3566 C.ar    1  UNL1        0.0375
     36 C         -65.8674  -34.0199  -18.1870 C.ar    1  UNL1        0.0031
     37 C         -67.0320  -34.7075  -18.6242 C.ar    1  UNL1        0.0002
     38 C         -66.8987  -35.9759  -19.2386 C.ar    1  UNL1        0.0028
     39 C         -65.6167  -36.5045  -19.3909 C.ar    1  UNL1        0.0337
     40 C         -68.3754  -34.1025  -18.4386 C.ar    1  UNL1        0.0000
     41 C         -68.5546  -33.0112  -17.5671 C.ar    1  UNL1        0.0000
     42 C         -69.8207  -32.4435  -17.3941 C.ar    1  UNL1        0.0000
     43 C         -70.9198  -32.9572  -18.0858 C.ar    1  UNL1        0.0000
     44 C         -70.7552  -34.0400  -18.9525 C.ar    1  UNL1        0.0000
     45 C         -69.4913  -34.6111  -19.1301 C.ar    1  UNL1        0.0000
@<TRIPOS>BOND
     1    30    31    1
     2    31    32   ar
     3    32    26    1
     4    26    27    2
     5    26    28   am
     6    28     1    1
     7     1     2   ar
     8     2     3   ar
     9     3     4   ar
    10     4     7    1
    11     7     8    1
    12     8     9    1
    13     9    10    1
    14    10    13    1
    15    13    14    1
    16    14    15    1
    17    15    16   ar
    18    16    17   ar
    19    17    22    1
    20    22    23    2
    21    22    24    1
    22    17    18   ar
    23    18    19   ar
    24    19    20   ar
    25    20    21    1
    26    10    11    1
    27    11    12    1
    28     4     5   ar
    29     5     6   ar
    30    32    33   ar
    31    33    34   ar
    32    34    35   ar
    33    35    36   ar
    34    36    37   ar
    35    37    40    1
    36    40    41   ar
    37    41    42   ar
    38    42    43   ar
    39    43    44   ar
    40    44    45   ar
    41    37    38   ar
    42    38    39   ar
    43    39    31   ar
    44     6     1   ar
    45    39    34   ar
    46    12     7    1
    47    45    40   ar
    48    20    15   ar
    49    28    29    1
    50    24    25    1
@<TRIPOS>MOLECULE
*****
 45 50 0 0 0
SMALL
GASTEIGER

@<TRIPOS>ATOM
      1 C         -62.3629  -40.7238  -20.1609 C.ar    1  UNL1        0.0702
      2 C         -62.8743  -41.2604  -21.3526 C.ar    1  UNL1        0.0191
      3 C         -62.2921  -42.3963  -21.9172 C.ar    1  UNL1        0.0356
      4 C         -61.2002  -43.0096  -21.2785 C.ar    1  UNL1        0.1318
      5 N         -60.7332  -42.4766  -20.1144 N.ar    1  UNL1       -0.2279
      6 C         -61.2841  -41.3715  -19.5468 C.ar    1  UNL1        0.1149
      7 N         -60.5694  -44.1860  -21.8312 N.pl3   1  UNL1       -0.2932
      8 C         -61.3299  -45.4409  -21.9338 C.3     1  UNL1        0.0923
      9 C         -60.3972  -46.6398  -21.7362 C.3     1  UNL1        0.0252
     10 C         -59.2046  -46.6459  -22.7311 C.3     1  UNL1        0.0472
     11 C         -58.9493  -45.2607  -23.3724 C.3     1  UNL1        0.0252
     12 C         -59.2070  -44.1156  -22.3872 C.3     1  UNL1        0.0923
     13 C         -59.3990  -47.7162  -23.8177 C.3     1  UNL1        0.2054
     14 O         -59.9577  -47.1236  -24.9884 O.3     1  UNL1       -0.4750
     15 C         -61.1310  -47.5580  -25.6234 C.ar    1  UNL1        0.1440
     16 C         -62.1018  -48.3336  -24.9578 C.ar    1  UNL1        0.0438
     17 C         -63.2663  -48.7546  -25.6266 C.ar    1  UNL1        0.0785
     18 C         -63.4580  -48.3731  -26.9652 C.ar    1  UNL1        0.0071
     19 C         -62.4986  -47.6056  -27.6275 C.ar    1  UNL1        0.0090
     20 C         -61.3384  -47.2013  -26.9634 C.ar    1  UNL1        0.0640
     21 I         -59.9128  -46.0356  -28.0038 I       1  UNL1       -0.0394
     22 C         -64.2958  -49.5690  -24.9358 C.2     1  UNL1        0.3381
     23 O         -64.0342  -50.7557  -24.6032 O.2     1  UNL1       -0.2451
     24 O         -65.5534  -49.0531  -24.6241 O.3     1  UNL1       -0.4771
     25 H         -65.7938  -48.0803  -24.7642 H       1  UNL1        0.2954
     26 C         -63.0251  -38.2774  -20.1566 C.2     1  UNL1        0.2839
     27 O         -62.1858  -37.9533  -21.0393 O.2     1  UNL1       -0.2665
     28 N         -62.9512  -39.5698  -19.5365 N.am    1  UNL1       -0.2766
     29 H         -63.2428  -39.6472  -18.5364 H       1  UNL1        0.1553
     30 C         -66.2323  -38.3843  -20.5600 C.3     1  UNL1        0.0345
     31 C         -65.4082  -37.3268  -19.8894 C.ar    1  UNL1        0.0202
     32 C         -64.0184  -37.2792  -19.7228 C.ar    1  UNL1        0.1946
     33 O         -63.6757  -36.1623  -19.1049 O.2     1  UNL1       -0.4492
     34 C         -64.7723  -35.4943  -18.8422 C.ar    1  UNL1        0.1452
     35 C         -64.8808  -34.2675  -18.1966 C.ar    1  UNL1        0.0375
     36 C         -66.1664  -33.7279  -18.0166 C.ar    1  UNL1        0.0031
     37 C         -67.3184  -34.4187  -18.4815 C.ar    1  UNL1        0.0002
     38 C         -67.1630  -35.6651  -19.1345 C.ar    1  UNL1        0.0028
     39 C         -65.8724  -36.1696  -19.2961 C.ar    1  UNL1        0.0337
     40 C         -68.6716  -33.8398  -18.2845 C.ar    1  UNL1        0.0000
     41 C         -69.7920  -34.4061  -18.9219 C.ar    1  UNL1        0.0000
     42 C         -71.0651  -33.8588  -18.7348 C.ar    1  UNL1        0.0000
     43 C         -71.2344  -32.7426  -17.9128 C.ar    1  UNL1        0.0000
     44 C         -70.1308  -32.1712  -17.2755 C.ar    1  UNL1        0.0000
     45 C         -68.8555  -32.7148  -17.4582 C.ar    1  UNL1        0.0000
@<TRIPOS>BOND
     1    30    31    1
     2    31    32   ar
     3    32    26    1
     4    26    27    2
     5    26    28   am
     6    28     1    1
     7     1     2   ar
     8     2     3   ar
     9     3     4   ar
    10     4     7    1
    11     7     8    1
    12     8     9    1
    13     9    10    1
    14    10    13    1
    15    13    14    1
    16    14    15    1
    17    15    16   ar
    18    16    17   ar
    19    17    22    1
    20    22    23    2
    21    22    24    1
    22    17    18   ar
    23    18    19   ar
    24    19    20   ar
    25    20    21    1
    26    10    11    1
    27    11    12    1
    28     4     5   ar
    29     5     6   ar
    30    32    33   ar
    31    33    34   ar
    32    34    35   ar
    33    35    36   ar
    34    36    37   ar
    35    37    40    1
    36    40    41   ar
    37    41    42   ar
    38    42    43   ar
    39    43    44   ar
    40    44    45   ar
    41    37    38   ar
    42    38    39   ar
    43    39    31   ar
    44     6     1   ar
    45    39    34   ar
    46    12     7    1
    47    45    40   ar
    48    20    15   ar
    49    28    29    1
    50    24    25    1
@<TRIPOS>MOLECULE
*****
 45 50 0 0 0
SMALL
GASTEIGER

@<TRIPOS>ATOM
      1 C         -65.1598  -53.1435  -24.6622 C.ar    1  UNL1        0.0702
      2 C         -66.0701  -53.4473  -23.6381 C.ar    1  UNL1        0.0191
      3 C         -67.2041  -54.2135  -23.9119 C.ar    1  UNL1        0.0356
      4 C         -67.4225  -54.6925  -25.2155 C.ar    1  UNL1        0.1318
      5 N         -66.5148  -54.3953  -26.1876 N.ar    1  UNL1       -0.2279
      6 C         -65.4041  -53.6510  -25.9440 C.ar    1  UNL1        0.1149
      7 N         -68.5842  -55.4878  -25.5396 N.pl3   1  UNL1       -0.2932
      8 C         -69.9189  -55.0336  -25.1199 C.3     1  UNL1        0.0923
      9 C         -70.8093  -56.2386  -24.8012 C.3     1  UNL1        0.0252
     10 C         -70.9239  -57.2340  -25.9879 C.3     1  UNL1        0.0472
     11 C         -69.7936  -57.0592  -27.0306 C.3     1  UNL1        0.0252
     12 C         -68.4578  -56.6954  -26.3738 C.3     1  UNL1        0.0923
     13 C         -72.3016  -57.1307  -26.6628 C.3     1  UNL1        0.2054
     14 O         -72.1730  -56.4977  -27.9343 O.3     1  UNL1       -0.4750
     15 C         -72.9399  -55.4047  -28.3655 C.ar    1  UNL1        0.1440
     16 C         -73.3518  -54.3831  -27.4860 C.ar    1  UNL1        0.0438
     17 C         -74.1229  -53.3022  -27.9523 C.ar    1  UNL1        0.0785
     18 C         -74.4608  -53.2449  -29.3149 C.ar    1  UNL1        0.0071
     19 C         -74.0550  -54.2550  -30.1885 C.ar    1  UNL1        0.0090
     20 C         -73.3010  -55.3324  -29.7183 C.ar    1  UNL1        0.0640
     21 I         -72.7038  -56.8390  -31.0775 I       1  UNL1       -0.0394
     22 C         -74.5602  -52.2201  -27.0366 C.2     1  UNL1        0.3381
     23 O         -74.6059  -51.0312  -27.4511 O.2     1  UNL1       -0.2451
     24 O         -74.9426  -52.4807  -25.7211 O.3     1  UNL1       -0.4771
     25 H         -75.0327  -53.4197  -25.3552 H       1  UNL1        0.2954
     26 C         -63.7563  -51.0475  -24.9088 C.2     1  UNL1        0.2839
     27 O         -64.3494  -50.6619  -25.9519 O.2     1  UNL1       -0.2665
     28 N         -63.9682  -52.3780  -24.4134 N.am    1  UNL1       -0.2766
     29 H         -63.1683  -52.8539  -23.9392 H       1  UNL1        0.1553
     30 C         -62.2801  -48.4896  -26.2271 C.3     1  UNL1        0.0345
     31 C         -62.1540  -49.0273  -24.8336 C.ar    1  UNL1        0.0202
     32 C         -62.7887  -50.1401  -24.2673 C.ar    1  UNL1        0.1946
     33 O         -62.3875  -50.3018  -23.0186 O.2     1  UNL1       -0.4492
     34 C         -61.5433  -49.3391  -22.7386 C.ar    1  UNL1        0.1452
     35 C         -60.8808  -49.1187  -21.5361 C.ar    1  UNL1        0.0375
     36 C         -60.0137  -48.0153  -21.4529 C.ar    1  UNL1        0.0031
     37 C         -59.8228  -47.1529  -22.5665 C.ar    1  UNL1        0.0002
     38 C         -60.5164  -47.4140  -23.7726 C.ar    1  UNL1        0.0028
     39 C         -61.3681  -48.5180  -23.8190 C.ar    1  UNL1        0.0337
     40 C         -58.9053  -45.9895  -22.4667 C.ar    1  UNL1        0.0000
     41 C         -57.5165  -46.1822  -22.3382 C.ar    1  UNL1        0.0000
     42 C         -56.6550  -45.0849  -22.2443 C.ar    1  UNL1        0.0000
     43 C         -57.1676  -43.7862  -22.2762 C.ar    1  UNL1        0.0000
     44 C         -58.5435  -43.5819  -22.4026 C.ar    1  UNL1        0.0000
     45 C         -59.4097  -44.6754  -22.4979 C.ar    1  UNL1        0.0000
@<TRIPOS>BOND
     1    30    31    1
     2    31    32   ar
     3    32    26    1
     4    26    27    2
     5    26    28   am
     6    28     1    1
     7     1     2   ar
     8     2     3   ar
     9     3     4   ar
    10     4     7    1
    11     7     8    1
    12     8     9    1
    13     9    10    1
    14    10    13    1
    15    13    14    1
    16    14    15    1
    17    15    16   ar
    18    16    17   ar
    19    17    22    1
    20    22    23    2
    21    22    24    1
    22    17    18   ar
    23    18    19   ar
    24    19    20   ar
    25    20    21    1
    26    10    11    1
    27    11    12    1
    28     4     5   ar
    29     5     6   ar
    30    32    33   ar
    31    33    34   ar
    32    34    35   ar
    33    35    36   ar
    34    36    37   ar
    35    37    40    1
    36    40    41   ar
    37    41    42   ar
    38    42    43   ar
    39    43    44   ar
    40    44    45   ar
    41    37    38   ar
    42    38    39   ar
    43    39    31   ar
    44     6     1   ar
    45    39    34   ar
    46    12     7    1
    47    45    40   ar
    48    20    15   ar
    49    28    29    1
    50    24    25    1
@<TRIPOS>MOLECULE
*****
 45 50 0 0 0
SMALL
GASTEIGER

@<TRIPOS>ATOM
      1 C         -62.5150  -40.8496  -20.2544 C.ar    1  UNL1        0.0702
      2 C         -61.2024  -41.2704  -19.9901 C.ar    1  UNL1        0.0191
      3 C         -60.6787  -42.3870  -20.6435 C.ar    1  UNL1        0.0356
      4 C         -61.4670  -43.0795  -21.5790 C.ar    1  UNL1        0.1318
      5 N         -62.7329  -42.6404  -21.8277 N.ar    1  UNL1       -0.2279
      6 C         -63.2635  -41.5562  -21.2034 C.ar    1  UNL1        0.1149
      7 N         -60.9618  -44.2401  -22.2755 N.pl3   1  UNL1       -0.2932
      8 C         -61.8956  -45.1290  -22.9839 C.3     1  UNL1        0.0923
      9 C         -61.3946  -46.5753  -22.9235 C.3     1  UNL1        0.0252
     10 C         -59.9569  -46.7391  -23.4877 C.3     1  UNL1        0.0472
     11 C         -59.1808  -45.4016  -23.5537 C.3     1  UNL1        0.0252
     12 C         -59.5125  -44.4864  -22.3703 C.3     1  UNL1        0.0923
     13 C         -59.9803  -47.4182  -24.8670 C.3     1  UNL1        0.2054
     14 O         -60.2729  -46.4552  -25.8773 O.3     1  UNL1       -0.4750
     15 C         -61.4408  -46.4404  -26.6548 C.ar    1  UNL1        0.1440
     16 C         -62.0548  -47.6248  -27.1097 C.ar    1  UNL1        0.0438
     17 C         -63.2246  -47.5729  -27.8903 C.ar    1  UNL1        0.0785
     18 C         -63.7850  -46.3207  -28.1943 C.ar    1  UNL1        0.0071
     19 C         -63.1793  -45.1459  -27.7459 C.ar    1  UNL1        0.0090
     20 C         -62.0112  -45.2022  -26.9826 C.ar    1  UNL1        0.0640
     21 I         -61.1289  -43.3975  -26.3205 I       1  UNL1       -0.0394
     22 C         -63.8810  -48.8127  -28.3726 C.2     1  UNL1        0.3381
     23 O         -63.8872  -49.8404  -27.6439 O.2     1  UNL1       -0.2451
     24 O         -64.5132  -48.8741  -29.6141 O.3     1  UNL1       -0.4771
     25 H         -64.6395  -48.0607  -30.2025 H       1  UNL1        0.2954
     26 C         -63.1167  -38.3878  -20.2225 C.2     1  UNL1        0.2839
     27 O         -62.2614  -38.0727  -21.0930 O.2     1  UNL1       -0.2665
     28 N         -63.0805  -39.6900  -19.6195 N.am    1  UNL1       -0.2766
     29 H         -63.3834  -39.7735  -18.6233 H       1  UNL1        0.1553
     30 C         -66.3320  -38.4596  -20.5643 C.3     1  UNL1        0.0345
     31 C         -65.4824  -37.4035  -19.9240 C.ar    1  UNL1        0.0202
     32 C         -64.0891  -37.3712  -19.7841 C.ar    1  UNL1        0.1946
     33 O         -63.7210  -36.2505  -19.1883 O.2     1  UNL1       -0.4492
     34 C         -64.8040  -35.5651  -18.9145 C.ar    1  UNL1        0.1452
     35 C         -64.8851  -34.3283  -18.2841 C.ar    1  UNL1        0.0375
     36 C         -66.1603  -33.7701  -18.0875 C.ar    1  UNL1        0.0031
     37 C         -67.3293  -34.4525  -18.5211 C.ar    1  UNL1        0.0002
     38 C         -67.2018  -35.7096  -19.1595 C.ar    1  UNL1        0.0028
     39 C         -65.9208  -36.2326  -19.3383 C.ar    1  UNL1        0.0337
     40 C         -68.6713  -33.8538  -18.3069 C.ar    1  UNL1        0.0000
     41 C         -68.8352  -32.7560  -17.4407 C.ar    1  UNL1        0.0000
     42 C         -70.1000  -32.1943  -17.2408 C.ar    1  UNL1        0.0000
     43 C         -71.2130  -32.7206  -17.9000 C.ar    1  UNL1        0.0000
     44 C         -71.0636  -33.8099  -18.7612 C.ar    1  UNL1        0.0000
     45 C         -69.8011  -34.3751  -18.9657 C.ar    1  UNL1        0.0000
@<TRIPOS>BOND
     1    30    31    1
     2    31    32   ar
     3    32    26    1
     4    26    27    2
     5    26    28   am
     6    28     1    1
     7     1     2   ar
     8     2     3   ar
     9     3     4   ar
    10     4     7    1
    11     7     8    1
    12     8     9    1
    13     9    10    1
    14    10    13    1
    15    13    14    1
    16    14    15    1
    17    15    16   ar
    18    16    17   ar
    19    17    22    1
    20    22    23    2
    21    22    24    1
    22    17    18   ar
    23    18    19   ar
    24    19    20   ar
    25    20    21    1
    26    10    11    1
    27    11    12    1
    28     4     5   ar
    29     5     6   ar
    30    32    33   ar
    31    33    34   ar
    32    34    35   ar
    33    35    36   ar
    34    36    37   ar
    35    37    40    1
    36    40    41   ar
    37    41    42   ar
    38    42    43   ar
    39    43    44   ar
    40    44    45   ar
    41    37    38   ar
    42    38    39   ar
    43    39    31   ar
    44     6     1   ar
    45    39    34   ar
    46    12     7    1
    47    45    40   ar
    48    20    15   ar
    49    28    29    1
    50    24    25    1
@<TRIPOS>MOLECULE
*****
 45 50 0 0 0
SMALL
GASTEIGER

@<TRIPOS>ATOM
      1 C         -63.5360  -50.8332  -24.2197 C.ar    1  UNL1        0.0702
      2 C         -62.8278  -51.8404  -23.5462 C.ar    1  UNL1        0.0191
      3 C         -63.5050  -52.9401  -23.0169 C.ar    1  UNL1        0.0356
      4 C         -64.8982  -53.0418  -23.1748 C.ar    1  UNL1        0.1318
      5 N         -65.5590  -52.0570  -23.8463 N.ar    1  UNL1       -0.2279
      6 C         -64.9205  -50.9775  -24.3696 C.ar    1  UNL1        0.1149
      7 N         -65.6356  -54.1637  -22.6411 N.pl3   1  UNL1       -0.2932
      8 C         -67.0744  -54.0267  -22.3677 C.3     1  UNL1        0.0923
      9 C         -67.4637  -54.8783  -21.1554 C.3     1  UNL1        0.0252
     10 C         -67.0840  -56.3749  -21.3234 C.3     1  UNL1        0.0472
     11 C         -66.0170  -56.6052  -22.4206 C.3     1  UNL1        0.0252
     12 C         -64.9848  -55.4734  -22.4641 C.3     1  UNL1        0.0923
     13 C         -68.3309  -57.2327  -21.5946 C.3     1  UNL1        0.2054
     14 O         -68.6781  -57.1614  -22.9760 O.3     1  UNL1       -0.4750
     15 C         -69.8931  -56.6641  -23.4713 C.ar    1  UNL1        0.1440
     16 C         -71.1031  -56.7937  -22.7600 C.ar    1  UNL1        0.0438
     17 C         -72.3043  -56.2852  -23.2881 C.ar    1  UNL1        0.0785
     18 C         -72.2773  -55.6268  -24.5291 C.ar    1  UNL1        0.0071
     19 C         -71.0810  -55.4970  -25.2364 C.ar    1  UNL1        0.0090
     20 C         -69.8938  -56.0149  -24.7140 C.ar    1  UNL1        0.0640
     21 I         -68.1031  -55.7923  -25.8173 I       1  UNL1       -0.0394
     22 C         -73.5832  -56.4137  -22.5477 C.2     1  UNL1        0.3381
     23 O         -73.5834  -56.3698  -21.2886 O.2     1  UNL1       -0.2451
     24 O         -74.8021  -56.5669  -23.2077 O.3     1  UNL1       -0.4771
     25 H         -74.8893  -56.5033  -24.2137 H       1  UNL1        0.2954
     26 C         -63.3084  -49.0430  -25.9994 C.2     1  UNL1        0.2839
     27 O         -63.9765  -49.6806  -26.8572 O.2     1  UNL1       -0.2665
     28 N         -62.8704  -49.6981  -24.7996 N.am    1  UNL1       -0.2766
     29 H         -61.9576  -49.4005  -24.3882 H       1  UNL1        0.1553
     30 C         -63.7648  -47.4110  -28.7541 C.3     1  UNL1        0.0345
     31 C         -63.1245  -46.9407  -27.4829 C.ar    1  UNL1        0.0202
     32 C         -62.9212  -47.6521  -26.2937 C.ar    1  UNL1        0.1946
     33 O         -62.2925  -46.8916  -25.4145 O.2     1  UNL1       -0.4492
     34 C         -62.0979  -45.7175  -25.9634 C.ar    1  UNL1        0.1452
     35 C         -61.4787  -44.6102  -25.3942 C.ar    1  UNL1        0.0375
     36 C         -61.3777  -43.4404  -26.1674 C.ar    1  UNL1        0.0031
     37 C         -61.8945  -43.3947  -27.4907 C.ar    1  UNL1        0.0002
     38 C         -62.5168  -44.5451  -28.0323 C.ar    1  UNL1        0.0028
     39 C         -62.5987  -45.6881  -27.2365 C.ar    1  UNL1        0.0337
     40 C         -61.7833  -42.1531  -28.2978 C.ar    1  UNL1        0.0000
     41 C         -60.6635  -41.3102  -28.1637 C.ar    1  UNL1        0.0000
     42 C         -60.5615  -40.1416  -28.9248 C.ar    1  UNL1        0.0000
     43 C         -61.5732  -39.8008  -29.8251 C.ar    1  UNL1        0.0000
     44 C         -62.6894  -40.6282  -29.9667 C.ar    1  UNL1        0.0000
     45 C         -62.7963  -41.7985  -29.2089 C.ar    1  UNL1        0.0000
@<TRIPOS>BOND
     1    30    31    1
     2    31    32   ar
     3    32    26    1
     4    26    27    2
     5    26    28   am
     6    28     1    1
     7     1     2   ar
     8     2     3   ar
     9     3     4   ar
    10     4     7    1
    11     7     8    1
    12     8     9    1
    13     9    10    1
    14    10    13    1
    15    13    14    1
    16    14    15    1
    17    15    16   ar
    18    16    17   ar
    19    17    22    1
    20    22    23    2
    21    22    24    1
    22    17    18   ar
    23    18    19   ar
    24    19    20   ar
    25    20    21    1
    26    10    11    1
    27    11    12    1
    28     4     5   ar
    29     5     6   ar
    30    32    33   ar
    31    33    34   ar
    32    34    35   ar
    33    35    36   ar
    34    36    37   ar
    35    37    40    1
    36    40    41   ar
    37    41    42   ar
    38    42    43   ar
    39    43    44   ar
    40    44    45   ar
    41    37    38   ar
    42    38    39   ar
    43    39    31   ar
    44     6     1   ar
    45    39    34   ar
    46    12     7    1
    47    45    40   ar
    48    20    15   ar
    49    28    29    1
    50    24    25    1
@<TRIPOS>MOLECULE
*****
 45 50 0 0 0
SMALL
GASTEIGER

@<TRIPOS>ATOM
      1 C         -63.5085  -50.7533  -24.2258 C.ar    1  UNL1        0.0702
      2 C         -62.8098  -51.6585  -23.4122 C.ar    1  UNL1        0.0191
      3 C         -63.4634  -52.7694  -22.8767 C.ar    1  UNL1        0.0356
      4 C         -64.8214  -52.9858  -23.1687 C.ar    1  UNL1        0.1318
      5 N         -65.4719  -52.0992  -23.9738 N.ar    1  UNL1       -0.2279
      6 C         -64.8559  -51.0109  -24.5058 C.ar    1  UNL1        0.1149
      7 N         -65.5337  -54.1230  -22.6333 N.pl3   1  UNL1       -0.2932
      8 C         -66.9645  -54.0025  -22.3137 C.3     1  UNL1        0.0923
      9 C         -67.3101  -54.8791  -21.1059 C.3     1  UNL1        0.0252
     10 C         -66.9246  -56.3693  -21.3129 C.3     1  UNL1        0.0472
     11 C         -65.8901  -56.5711  -22.4463 C.3     1  UNL1        0.0252
     12 C         -64.8682  -55.4305  -22.5005 C.3     1  UNL1        0.0923
     13 C         -68.1729  -57.2320  -21.5616 C.3     1  UNL1        0.2054
     14 O         -69.3349  -56.4059  -21.5958 O.3     1  UNL1       -0.4750
     15 C         -70.0638  -56.0973  -22.7543 C.ar    1  UNL1        0.1440
     16 C         -69.4350  -55.8143  -23.9838 C.ar    1  UNL1        0.0438
     17 C         -70.1974  -55.5059  -25.1257 C.ar    1  UNL1        0.0785
     18 C         -71.5991  -55.5037  -25.0281 C.ar    1  UNL1        0.0071
     19 C         -72.2250  -55.7831  -23.8123 C.ar    1  UNL1        0.0090
     20 C         -71.4636  -56.0756  -22.6786 C.ar    1  UNL1        0.0640
     21 I         -72.4533  -56.4971  -20.8574 I       1  UNL1       -0.0394
     22 C         -69.5469  -55.2087  -26.4253 C.2     1  UNL1        0.3381
     23 O         -69.2132  -56.1545  -27.1878 O.2     1  UNL1       -0.2451
     24 O         -69.3045  -53.9005  -26.8433 O.3     1  UNL1       -0.4771
     25 H         -69.6409  -53.0939  -26.3335 H       1  UNL1        0.2954
     26 C         -63.3733  -48.9079  -25.9579 C.2     1  UNL1        0.2839
     27 O         -64.1145  -49.5036  -26.7851 O.2     1  UNL1       -0.2665
     28 N         -62.8633  -49.6113  -24.8152 N.am    1  UNL1       -0.2766
     29 H         -61.9173  -49.3445  -24.4618 H       1  UNL1        0.1553
     30 C         -63.5626  -47.3276  -28.7733 C.3     1  UNL1        0.0345
     31 C         -63.0680  -46.8260  -27.4501 C.ar    1  UNL1        0.0202
     32 C         -62.9799  -47.5149  -26.2338 C.ar    1  UNL1        0.1946
     33 O         -62.4601  -46.7296  -25.3067 O.2     1  UNL1       -0.4492
     34 C         -62.2277  -45.5609  -25.8525 C.ar    1  UNL1        0.1452
     35 C         -61.6903  -44.4338  -25.2406 C.ar    1  UNL1        0.0375
     36 C         -61.5272  -43.2747  -26.0191 C.ar    1  UNL1        0.0031
     37 C         -61.9020  -43.2589  -27.3901 C.ar    1  UNL1        0.0002
     38 C         -62.4447  -44.4287  -27.9740 C.ar    1  UNL1        0.0028
     39 C         -62.5916  -45.5604  -27.1716 C.ar    1  UNL1        0.0337
     40 C         -61.7264  -42.0283  -28.2024 C.ar    1  UNL1        0.0000
     41 C         -62.7532  -41.5816  -29.0560 C.ar    1  UNL1        0.0000
     42 C         -62.5851  -40.4225  -29.8199 C.ar    1  UNL1        0.0000
     43 C         -61.3935  -39.6983  -29.7422 C.ar    1  UNL1        0.0000
     44 C         -60.3672  -40.1315  -28.8998 C.ar    1  UNL1        0.0000
     45 C         -60.5300  -41.2893  -28.1329 C.ar    1  UNL1        0.0000
@<TRIPOS>BOND
     1    30    31    1
     2    31    32   ar
     3    32    26    1
     4    26    27    2
     5    26    28   am
     6    28     1    1
     7     1     2   ar
     8     2     3   ar
     9     3     4   ar
    10     4     7    1
    11     7     8    1
    12     8     9    1
    13     9    10    1
    14    10    13    1
    15    13    14    1
    16    14    15    1
    17    15    16   ar
    18    16    17   ar
    19    17    22    1
    20    22    23    2
    21    22    24    1
    22    17    18   ar
    23    18    19   ar
    24    19    20   ar
    25    20    21    1
    26    10    11    1
    27    11    12    1
    28     4     5   ar
    29     5     6   ar
    30    32    33   ar
    31    33    34   ar
    32    34    35   ar
    33    35    36   ar
    34    36    37   ar
    35    37    40    1
    36    40    41   ar
    37    41    42   ar
    38    42    43   ar
    39    43    44   ar
    40    44    45   ar
    41    37    38   ar
    42    38    39   ar
    43    39    31   ar
    44     6     1   ar
    45    39    34   ar
    46    12     7    1
    47    45    40   ar
    48    20    15   ar
    49    28    29    1
    50    24    25    1
@<TRIPOS>MOLECULE
*****
 45 50 0 0 0
SMALL
GASTEIGER

@<TRIPOS>ATOM
      1 C         -63.7927  -50.4234  -24.3457 C.ar    1  UNL1        0.0702
      2 C         -62.9776  -51.2380  -23.5447 C.ar    1  UNL1        0.0191
      3 C         -63.5019  -52.3868  -22.9501 C.ar    1  UNL1        0.0356
      4 C         -64.8469  -52.7323  -23.1695 C.ar    1  UNL1        0.1318
      5 N         -65.6119  -51.9316  -23.9638 N.ar    1  UNL1       -0.2279
      6 C         -65.1228  -50.8087  -24.5526 C.ar    1  UNL1        0.1149
      7 N         -65.4273  -53.9124  -22.5715 N.pl3   1  UNL1       -0.2932
      8 C         -66.8605  -53.9324  -22.2408 C.3     1  UNL1        0.0923
      9 C         -67.1002  -54.7808  -20.9881 C.3     1  UNL1        0.0252
     10 C         -66.5559  -56.2288  -21.1276 C.3     1  UNL1        0.0472
     11 C         -65.5132  -56.3725  -22.2623 C.3     1  UNL1        0.0252
     12 C         -64.6222  -55.1318  -22.3837 C.3     1  UNL1        0.0923
     13 C         -67.7043  -57.2331  -21.3194 C.3     1  UNL1        0.2054
     14 O         -68.2762  -57.0746  -22.6162 O.3     1  UNL1       -0.4750
     15 C         -69.5930  -56.6588  -22.8649 C.ar    1  UNL1        0.1440
     16 C         -70.5616  -56.5822  -21.8437 C.ar    1  UNL1        0.0438
     17 C         -71.8744  -56.1634  -22.1294 C.ar    1  UNL1        0.0785
     18 C         -72.2020  -55.8023  -23.4472 C.ar    1  UNL1        0.0071
     19 C         -71.2455  -55.8774  -24.4609 C.ar    1  UNL1        0.0090
     20 C         -69.9476  -56.3062  -24.1747 C.ar    1  UNL1        0.0640
     21 I         -68.5286  -56.4010  -25.7404 I       1  UNL1       -0.0394
     22 C         -72.9014  -56.0766  -21.0626 C.2     1  UNL1        0.3381
     23 O         -73.0731  -54.9907  -20.4473 O.2     1  UNL1       -0.2451
     24 O         -73.7042  -57.1660  -20.7253 O.3     1  UNL1       -0.4771
     25 H         -73.6952  -58.0325  -21.2476 H       1  UNL1        0.2954
     26 C         -61.9130  -49.0858  -25.3950 C.2     1  UNL1        0.2839
     27 O         -61.0032  -49.7206  -24.7968 O.2     1  UNL1       -0.2665
     28 N         -63.2821  -49.2461  -24.9945 N.am    1  UNL1       -0.2766
     29 H         -63.9147  -48.4195  -25.0818 H       1  UNL1        0.1553
     30 C         -63.4354  -48.5182  -28.1914 C.3     1  UNL1        0.0345
     31 C         -62.1950  -47.8711  -27.6531 C.ar    1  UNL1        0.0202
     32 C         -61.5333  -48.1242  -26.4449 C.ar    1  UNL1        0.1946
     33 O         -60.4557  -47.3647  -26.3526 O.2     1  UNL1       -0.4492
     34 C         -60.3967  -46.6166  -27.4271 C.ar    1  UNL1        0.1452
     35 C         -59.4319  -45.6666  -27.7440 C.ar    1  UNL1        0.0375
     36 C         -59.5642  -44.9714  -28.9587 C.ar    1  UNL1        0.0031
     37 C         -60.6531  -45.2339  -29.8338 C.ar    1  UNL1        0.0002
     38 C         -61.6128  -46.2100  -29.4730 C.ar    1  UNL1        0.0028
     39 C         -61.4493  -46.8806  -28.2606 C.ar    1  UNL1        0.0337
     40 C         -60.7834  -44.4924  -31.1138 C.ar    1  UNL1        0.0000
     41 C         -61.9679  -43.7954  -31.4197 C.ar    1  UNL1        0.0000
     42 C         -62.0880  -43.0981  -32.6257 C.ar    1  UNL1        0.0000
     43 C         -61.0311  -43.0890  -33.5385 C.ar    1  UNL1        0.0000
     44 C         -59.8512  -43.7772  -33.2471 C.ar    1  UNL1        0.0000
     45 C         -59.7252  -44.4754  -32.0422 C.ar    1  UNL1        0.0000
@<TRIPOS>BOND
     1    30    31    1
     2    31    32   ar
     3    32    26    1
     4    26    27    2
     5    26    28   am
     6    28     1    1
     7     1     2   ar
     8     2     3   ar
     9     3     4   ar
    10     4     7    1
    11     7     8    1
    12     8     9    1
    13     9    10    1
    14    10    13    1
    15    13    14    1
    16    14    15    1
    17    15    16   ar
    18    16    17   ar
    19    17    22    1
    20    22    23    2
    21    22    24    1
    22    17    18   ar
    23    18    19   ar
    24    19    20   ar
    25    20    21    1
    26    10    11    1
    27    11    12    1
    28     4     5   ar
    29     5     6   ar
    30    32    33   ar
    31    33    34   ar
    32    34    35   ar
    33    35    36   ar
    34    36    37   ar
    35    37    40    1
    36    40    41   ar
    37    41    42   ar
    38    42    43   ar
    39    43    44   ar
    40    44    45   ar
    41    37    38   ar
    42    38    39   ar
    43    39    31   ar
    44     6     1   ar
    45    39    34   ar
    46    12     7    1
    47    45    40   ar
    48    20    15   ar
    49    28    29    1
    50    24    25    1
