@<TRIPOS>MOLECULE
*****
 52 59 0 0 0
SMALL
GASTEIGER

@<TRIPOS>ATOM
      1 N          60.0216   83.1389    8.9814 N.am    1  UNL1       -0.0906
      2 C          60.0162   83.3481    7.6274 C.2     1  UNL1        0.4225
      3 O          60.6890   84.2869    7.1161 O.2     1  UNL1       -0.2135
      4 C          59.2423   82.5590    6.7877 C.2     1  UNL1        0.1114
      5 C          58.3557   81.6093    7.3118 C.2     1  UNL1       -0.0058
      6 C          58.4269   81.3293    8.7065 C.ar    1  UNL1        0.0789
      7 C          57.5960   80.3639    9.3158 C.ar    1  UNL1        0.1044
      8 N          57.6696   80.1216   10.6440 N.ar    1  UNL1       -0.2434
      9 C          58.5901   80.7134   11.4368 C.ar    1  UNL1        0.0870
     10 C          58.6341   80.3787   12.7949 C.ar    1  UNL1        0.0193
     11 C          59.6337   80.8977   13.6172 C.ar    1  UNL1        0.0016
     12 C          60.6520   81.6919   13.0720 C.ar    1  UNL1        0.0018
     13 C          60.6236   81.9815   11.6977 C.ar    1  UNL1        0.0075
     14 C          59.5270   81.6157   10.8850 C.ar    1  UNL1        0.0810
     15 C          59.3571   82.0452    9.5233 C.ar    1  UNL1        0.2294
     16 C          61.7151   82.2725   13.9356 C.ar    1  UNL1        0.0192
     17 C          62.8881   81.5513   14.2270 C.ar    1  UNL1        0.0988
     18 N          63.8993   82.1302   14.9263 N.ar    1  UNL1       -0.2438
     19 C          63.8207   83.4101   15.3747 C.ar    1  UNL1        0.0813
     20 C          64.8965   83.9803   16.0648 C.ar    1  UNL1        0.0191
     21 C          64.8178   85.3024   16.5130 C.ar    1  UNL1        0.0015
     22 C          63.6639   86.0569   16.2775 C.ar    1  UNL1        0.0001
     23 C          62.5843   85.4953   15.5880 C.ar    1  UNL1        0.0015
     24 C          62.6567   84.1702   15.1321 C.ar    1  UNL1        0.0177
     25 C          61.6051   83.5905   14.4113 C.ar    1  UNL1        0.0030
     26 C          59.4052   87.5073   11.2591 C.3     1  UNL1        0.0312
     27 C          60.3129   86.3598   10.8980 C.ar    1  UNL1       -0.0159
     28 C          59.7536   85.2241   10.2879 C.ar    1  UNL1        0.0648
     29 C          60.5740   84.1886    9.8101 C.ar    1  UNL1        0.2268
     30 C          61.9523   84.2362   10.0555 C.ar    1  UNL1        0.0691
     31 C          62.5153   85.3368   10.7001 C.ar    1  UNL1        0.0058
     32 C          61.7142   86.4149   11.1118 C.ar    1  UNL1       -0.0036
     33 C          62.3781   87.6128   11.6779 C.ar    1  UNL1       -0.0003
     34 C          62.9248   87.5604   12.9684 C.ar    1  UNL1        0.0001
     35 C          63.5893   88.6664   13.5017 C.ar    1  UNL1        0.0045
     36 C          63.7069   89.8546   12.7608 C.ar    1  UNL1        0.0534
     37 C          63.1416   89.9112   11.4736 C.ar    1  UNL1        0.0045
     38 C          62.4751   88.8029   10.9417 C.ar    1  UNL1        0.0001
     39 C          64.4416   91.0101   13.3286 C.2     1  UNL1        0.2458
     40 O          63.8078   91.8843   13.9816 O.2     1  UNL1       -0.2701
     41 N          65.8582   91.1577   13.1350 N.am    1  UNL1       -0.3024
     42 H          66.3305   90.5818   12.4022 H       1  UNL1        0.1497
     43 C          66.6415   92.1580   13.8685 C.3     1  UNL1        0.0746
     44 C          66.1955   92.2080   15.3462 C.3     1  UNL1        0.0369
     45 C          67.2789   92.7958   16.2708 C.3     1  UNL1        0.0738
     46 N          68.1866   93.6726   15.5086 N.3     1  UNL1       -0.2714
     47 C          69.0703   94.4145   16.4203 C.3     1  UNL1        0.0896
     48 C          68.9896   92.8886   14.5419 C.3     1  UNL1        0.0738
     49 C          68.1440   91.8463   13.7758 C.3     1  UNL1        0.0369
     50 C          57.4195   80.8479    6.3627 C.3     1  UNL1        0.0229
     51 C          56.9719   81.6600    5.1337 C.3     1  UNL1        0.0047
     52 C          58.0695   79.5317    5.9230 C.3     1  UNL1        0.0047
@<TRIPOS>BOND
     1    26    27    1
     2    27    28   ar
     3    28    29   ar
     4    29     1    1
     5     1     2    1
     6     2     3    2
     7     2     4    1
     8     4     5    2
     9     5    50    1
    10    50    51    1
    11    50    52    1
    12     5     6    1
    13     6     7   ar
    14     7     8   ar
    15     8     9   ar
    16     9    10   ar
    17    10    11   ar
    18    11    12   ar
    19    12    16    1
    20    16    17   ar
    21    17    18   ar
    22    18    19   ar
    23    19    20   ar
    24    20    21   ar
    25    21    22   ar
    26    22    23   ar
    27    23    24   ar
    28    24    25   ar
    29    12    13   ar
    30    13    14   ar
    31    14    15   ar
    32    29    30   ar
    33    30    31   ar
    34    31    32   ar
    35    32    33    1
    36    33    34   ar
    37    34    35   ar
    38    35    36   ar
    39    36    39    1
    40    39    40    2
    41    39    41   am
    42    41    43    1
    43    43    44    1
    44    44    45    1
    45    45    46    1
    46    46    47    1
    47    46    48    1
    48    48    49    1
    49    36    37   ar
    50    37    38   ar
    51    32    27   ar
    52    38    33   ar
    53    15     1    1
    54    49    43    1
    55    15     6   ar
    56    14     9   ar
    57    25    16   ar
    58    24    19   ar
    59    41    42    1
