@<TRIPOS>MOLECULE
*****
 47 52 0 0 0
SMALL
GASTEIGER

@<TRIPOS>ATOM
      1 C          59.7932   86.7164    8.5240 C.ar    1  UNL1        0.0401
      2 C          60.6206   87.8028    8.8446 C.ar    1  UNL1        0.0172
      3 C          61.6785   87.6503    9.7539 C.ar    1  UNL1        0.0699
      4 C          61.8650   86.4034   10.3597 C.ar    1  UNL1        0.1149
      5 N          61.0497   85.3626   10.0513 N.ar    1  UNL1       -0.2281
      6 C          60.0274   85.4794    9.1621 C.ar    1  UNL1        0.1300
      7 N          59.1987   84.3381    8.9096 N.pl3   1  UNL1       -0.2934
      8 C          57.9304   84.1786    9.6289 C.3     1  UNL1        0.0923
      9 C          57.8790   82.8235   10.3543 C.3     1  UNL1        0.0252
     10 C          58.5825   81.6712    9.5828 C.3     1  UNL1        0.0472
     11 C          58.8209   82.0269    8.1016 C.3     1  UNL1        0.0252
     12 C          59.6798   83.2932    7.9993 C.3     1  UNL1        0.0923
     13 C          57.7869   80.3575    9.7146 C.3     1  UNL1        0.2054
     14 O          58.4223   79.4540   10.6211 O.3     1  UNL1       -0.4755
     15 C          59.2579   79.8186   11.6899 C.ar    1  UNL1        0.1388
     16 C          58.7235   79.7835   12.9821 C.ar    1  UNL1        0.0369
     17 C          59.5067   80.1320   14.0834 C.ar    1  UNL1        0.0033
     18 C          60.8351   80.5224   13.9047 C.ar    1  UNL1        0.0066
     19 C          61.3943   80.5709   12.6158 C.ar    1  UNL1        0.0785
     20 C          60.5974   80.2202   11.5105 C.ar    1  UNL1        0.0433
     21 C          62.8020   80.9851   12.4212 C.2     1  UNL1        0.3381
     22 O          63.1790   81.4686   11.3194 O.2     1  UNL1       -0.2451
     23 O          63.7248   80.8455   13.4549 O.3     1  UNL1       -0.4771
     24 H          64.6903   81.1266   13.3320 H       1  UNL1        0.2954
     25 N          62.5331   88.7505   10.1102 N.am    1  UNL1       -0.2767
     26 C          62.2818   89.6283   11.2176 C.2     1  UNL1        0.2839
     27 O          61.1038   89.7962   11.6336 O.2     1  UNL1       -0.2665
     28 H          63.3173   88.9934    9.4644 H       1  UNL1        0.1553
     29 C          63.3691   90.4088   11.8340 C.ar    1  UNL1        0.1946
     30 O          63.8389   91.5186   11.2917 O.2     1  UNL1       -0.4492
     31 C          64.7974   91.9697   12.0634 C.ar    1  UNL1        0.1452
     32 C          65.5733   93.1074   11.8707 C.ar    1  UNL1        0.0375
     33 C          66.5579   93.4049   12.8291 C.ar    1  UNL1        0.0031
     34 C          66.7515   92.5656   13.9598 C.ar    1  UNL1        0.0002
     35 C          65.9382   91.4179   14.1187 C.ar    1  UNL1        0.0028
     36 C          64.9711   91.1542   13.1483 C.ar    1  UNL1        0.0337
     37 C          64.0432   90.1386   13.0315 C.ar    1  UNL1        0.0202
     38 C          63.8224   89.0101   13.9930 C.3     1  UNL1        0.0345
     39 C          67.7954   92.8889   14.9653 C.ar    1  UNL1        0.0000
     40 C          68.1281   94.2278   15.2464 C.ar    1  UNL1        0.0000
     41 C          69.1114   94.5293   16.1938 C.ar    1  UNL1        0.0000
     42 C          69.7714   93.5014   16.8706 C.ar    1  UNL1        0.0000
     43 C          69.4500   92.1693   16.6011 C.ar    1  UNL1        0.0000
     44 C          68.4683   91.8617   15.6542 C.ar    1  UNL1        0.0000
     45 C          58.6979   86.9049    7.4986 C.3     1  UNL1        0.1715
     46 C          59.0326   89.0375    6.6554 C.3     1  UNL1        0.1746
     47 O          58.2302   88.2404    7.5000 O.3     1  UNL1       -0.3462
@<TRIPOS>BOND
     1    46    47    1
     2    47    45    1
     3    45     1    1
     4     1     2   ar
     5     2     3   ar
     6     3    25    1
     7    25    26   am
     8    26    27    2
     9    26    29    1
    10    29    30   ar
    11    30    31   ar
    12    31    32   ar
    13    32    33   ar
    14    33    34   ar
    15    34    39    1
    16    39    40   ar
    17    40    41   ar
    18    41    42   ar
    19    42    43   ar
    20    43    44   ar
    21    34    35   ar
    22    35    36   ar
    23    36    37   ar
    24    37    38    1
    25     3     4   ar
    26     4     5   ar
    27     5     6   ar
    28     6     7    1
    29     7     8    1
    30     8     9    1
    31     9    10    1
    32    10    13    1
    33    13    14    1
    34    14    15    1
    35    15    16   ar
    36    16    17   ar
    37    17    18   ar
    38    18    19   ar
    39    19    21    1
    40    21    22    2
    41    21    23    1
    42    19    20   ar
    43    10    11    1
    44    11    12    1
    45     6     1   ar
    46    12     7    1
    47    37    29   ar
    48    20    15   ar
    49    36    31   ar
    50    44    39   ar
    51    25    28    1
    52    23    24    1
@<TRIPOS>MOLECULE
*****
 47 52 0 0 0
SMALL
GASTEIGER

@<TRIPOS>ATOM
      1 C          61.1233   85.1392   10.1029 C.ar    1  UNL1        0.0401
      2 C          61.9351   86.2337   10.4356 C.ar    1  UNL1        0.0172
      3 C          61.7161   87.4893    9.8485 C.ar    1  UNL1        0.0699
      4 C          60.6969   87.6148    8.8989 C.ar    1  UNL1        0.1149
      5 N          59.9259   86.5452    8.5752 N.ar    1  UNL1       -0.2281
      6 C          60.1069   85.3217    9.1408 C.ar    1  UNL1        0.1300
      7 N          59.2649   84.2388    8.7267 N.pl3   1  UNL1       -0.2934
      8 C          57.9105   84.1111    9.2752 C.3     1  UNL1        0.0923
      9 C          57.7066   82.7271    9.9139 C.3     1  UNL1        0.0252
     10 C          58.4476   81.5783    9.1727 C.3     1  UNL1        0.0472
     11 C          58.8857   81.9924    7.7535 C.3     1  UNL1        0.0252
     12 C          59.8078   83.2155    7.8267 C.3     1  UNL1        0.0923
     13 C          57.5823   80.3031    9.1341 C.3     1  UNL1        0.2054
     14 O          57.7846   79.5025   10.3003 O.3     1  UNL1       -0.4755
     15 C          58.7621   79.7219   11.2851 C.ar    1  UNL1        0.1388
     16 C          58.3680   79.6613   12.6258 C.ar    1  UNL1        0.0369
     17 C          59.2955   79.8678   13.6479 C.ar    1  UNL1        0.0033
     18 C          60.6298   80.1401   13.3405 C.ar    1  UNL1        0.0066
     19 C          61.0502   80.2116   12.0009 C.ar    1  UNL1        0.0785
     20 C          60.1085   80.0044   10.9763 C.ar    1  UNL1        0.0433
     21 C          62.4636   80.5010   11.6700 C.2     1  UNL1        0.3381
     22 O          62.8602   80.4624   10.4738 O.2     1  UNL1       -0.2451
     23 O          63.3701   80.8200   12.6780 O.3     1  UNL1       -0.4771
     24 H          64.3394   81.0202   12.4619 H       1  UNL1        0.2954
     25 N          62.5418   88.6242   10.1616 N.am    1  UNL1       -0.2767
     26 C          62.2958   89.5082   11.2653 C.2     1  UNL1        0.2839
     27 O          61.1269   89.6399   11.7184 O.2     1  UNL1       -0.2665
     28 H          63.2948   88.8857    9.4867 H       1  UNL1        0.1553
     29 C          63.3739   90.3357   11.8346 C.ar    1  UNL1        0.1946
     30 O          63.8231   91.4238   11.2341 O.2     1  UNL1       -0.4492
     31 C          64.7786   91.9281   11.9759 C.ar    1  UNL1        0.1452
     32 C          65.5354   93.0665   11.7211 C.ar    1  UNL1        0.0375
     33 C          66.5204   93.4273   12.6570 C.ar    1  UNL1        0.0031
     34 C          66.7336   92.6493   13.8273 C.ar    1  UNL1        0.0002
     35 C          65.9395   91.4986   14.0490 C.ar    1  UNL1        0.0028
     36 C          64.9714   91.1713   13.0994 C.ar    1  UNL1        0.0337
     37 C          64.0590   90.1368   13.0399 C.ar    1  UNL1        0.0202
     38 C          63.8614   89.0549   14.0585 C.3     1  UNL1        0.0345
     39 C          67.7779   93.0392   14.8085 C.ar    1  UNL1        0.0000
     40 C          68.6079   92.0650   15.3954 C.ar    1  UNL1        0.0000
     41 C          69.5905   92.4349   16.3189 C.ar    1  UNL1        0.0000
     42 C          69.7567   93.7775   16.6656 C.ar    1  UNL1        0.0000
     43 C          68.9403   94.7533   16.0900 C.ar    1  UNL1        0.0000
     44 C          67.9554   94.3892   15.1666 C.ar    1  UNL1        0.0000
     45 C          61.3543   83.8157   10.7968 C.3     1  UNL1        0.1715
     46 C          60.9421   83.9090   13.0755 C.3     1  UNL1        0.1746
     47 O          60.3917   83.6037   11.8121 O.3     1  UNL1       -0.3462
@<TRIPOS>BOND
     1    46    47    1
     2    47    45    1
     3    45     1    1
     4     1     2   ar
     5     2     3   ar
     6     3    25    1
     7    25    26   am
     8    26    27    2
     9    26    29    1
    10    29    30   ar
    11    30    31   ar
    12    31    32   ar
    13    32    33   ar
    14    33    34   ar
    15    34    39    1
    16    39    40   ar
    17    40    41   ar
    18    41    42   ar
    19    42    43   ar
    20    43    44   ar
    21    34    35   ar
    22    35    36   ar
    23    36    37   ar
    24    37    38    1
    25     3     4   ar
    26     4     5   ar
    27     5     6   ar
    28     6     7    1
    29     7     8    1
    30     8     9    1
    31     9    10    1
    32    10    13    1
    33    13    14    1
    34    14    15    1
    35    15    16   ar
    36    16    17   ar
    37    17    18   ar
    38    18    19   ar
    39    19    21    1
    40    21    22    2
    41    21    23    1
    42    19    20   ar
    43    10    11    1
    44    11    12    1
    45     6     1   ar
    46    12     7    1
    47    37    29   ar
    48    20    15   ar
    49    36    31   ar
    50    44    39   ar
    51    25    28    1
    52    23    24    1
@<TRIPOS>MOLECULE
*****
 47 52 0 0 0
SMALL
GASTEIGER

@<TRIPOS>ATOM
      1 C          60.2807   89.0981   10.1710 C.ar    1  UNL1        0.0401
      2 C          60.4174   89.6463    8.8871 C.ar    1  UNL1        0.0172
      3 C          60.0104   88.9234    7.7553 C.ar    1  UNL1        0.0699
      4 C          59.5018   87.6327    7.9337 C.ar    1  UNL1        0.1149
      5 N          59.3863   87.1075    9.1803 N.ar    1  UNL1       -0.2281
      6 C          59.7585   87.7927   10.2945 C.ar    1  UNL1        0.1300
      7 N          59.6255   87.1573   11.5718 N.pl3   1  UNL1       -0.2934
      8 C          58.6628   87.6724   12.5511 C.3     1  UNL1        0.0923
      9 C          59.3575   87.9950   13.8846 C.3     1  UNL1        0.0252
     10 C          60.5119   87.0170   14.2439 C.3     1  UNL1        0.0472
     11 C          60.4517   85.7198   13.4126 C.3     1  UNL1        0.0252
     12 C          60.5268   86.0526   11.9175 C.3     1  UNL1        0.0923
     13 C          60.5169   86.7061   15.7538 C.3     1  UNL1        0.2054
     14 O          61.5664   87.4062   16.4248 O.3     1  UNL1       -0.4755
     15 C          62.5781   88.1572   15.8034 C.ar    1  UNL1        0.1388
     16 C          63.3957   87.5110   14.8704 C.ar    1  UNL1        0.0369
     17 C          64.4153   88.2065   14.2187 C.ar    1  UNL1        0.0033
     18 C          64.6307   89.5579   14.4947 C.ar    1  UNL1        0.0066
     19 C          63.8261   90.2289   15.4321 C.ar    1  UNL1        0.0785
     20 C          62.8018   89.5201   16.0864 C.ar    1  UNL1        0.0433
     21 C          64.0513   91.6614   15.7288 C.2     1  UNL1        0.3381
     22 O          64.9058   92.3218   15.0780 O.2     1  UNL1       -0.2451
     23 O          63.3198   92.2950   16.7304 O.3     1  UNL1       -0.4771
     24 H          63.4660   93.2751   16.9407 H       1  UNL1        0.2954
     25 N          60.1518   89.4562    6.4272 N.am    1  UNL1       -0.2767
     26 C          59.4138   90.5866    5.9396 C.2     1  UNL1        0.2839
     27 O          58.2936   90.8719    6.4421 O.2     1  UNL1       -0.2665
     28 H          60.7386   88.9265    5.7446 H       1  UNL1        0.1553
     29 C          59.9019   91.3814    4.7988 C.ar    1  UNL1        0.1946
     30 O          59.1621   92.3065    4.2128 O.2     1  UNL1       -0.4492
     31 C          59.8646   92.8246    3.2352 C.ar    1  UNL1        0.1452
     32 C          59.4741   93.8238    2.3505 C.ar    1  UNL1        0.0375
     33 C          60.3922   94.2294    1.3661 C.ar    1  UNL1        0.0031
     34 C          61.6799   93.6337    1.2807 C.ar    1  UNL1        0.0002
     35 C          62.0378   92.6209    2.2027 C.ar    1  UNL1        0.0028
     36 C          61.1018   92.2442    3.1662 C.ar    1  UNL1        0.0337
     37 C          61.1578   91.3118    4.1830 C.ar    1  UNL1        0.0202
     38 C          62.3220   90.4350    4.5332 C.3     1  UNL1        0.0345
     39 C          62.6412   94.0691    0.2359 C.ar    1  UNL1        0.0000
     40 C          63.9912   94.3047    0.5589 C.ar    1  UNL1        0.0000
     41 C          64.8942   94.7145   -0.4269 C.ar    1  UNL1        0.0000
     42 C          64.4622   94.8924   -1.7430 C.ar    1  UNL1        0.0000
     43 C          63.1258   94.6613   -2.0762 C.ar    1  UNL1        0.0000
     44 C          62.2181   94.2523   -1.0944 C.ar    1  UNL1        0.0000
     45 C          60.6791   89.9285   11.3704 C.3     1  UNL1        0.1715
     46 C          62.9679   90.2907   11.3999 C.3     1  UNL1        0.1746
     47 O          61.9169   89.4909   11.8981 O.3     1  UNL1       -0.3462
@<TRIPOS>BOND
     1    46    47    1
     2    47    45    1
     3    45     1    1
     4     1     2   ar
     5     2     3   ar
     6     3    25    1
     7    25    26   am
     8    26    27    2
     9    26    29    1
    10    29    30   ar
    11    30    31   ar
    12    31    32   ar
    13    32    33   ar
    14    33    34   ar
    15    34    39    1
    16    39    40   ar
    17    40    41   ar
    18    41    42   ar
    19    42    43   ar
    20    43    44   ar
    21    34    35   ar
    22    35    36   ar
    23    36    37   ar
    24    37    38    1
    25     3     4   ar
    26     4     5   ar
    27     5     6   ar
    28     6     7    1
    29     7     8    1
    30     8     9    1
    31     9    10    1
    32    10    13    1
    33    13    14    1
    34    14    15    1
    35    15    16   ar
    36    16    17   ar
    37    17    18   ar
    38    18    19   ar
    39    19    21    1
    40    21    22    2
    41    21    23    1
    42    19    20   ar
    43    10    11    1
    44    11    12    1
    45     6     1   ar
    46    12     7    1
    47    37    29   ar
    48    20    15   ar
    49    36    31   ar
    50    44    39   ar
    51    25    28    1
    52    23    24    1
