@<TRIPOS>MOLECULE
*****
 51 56 0 0 0
SMALL
GASTEIGER

@<TRIPOS>ATOM
      1 O          13.9717   83.2469   26.1163 O.2     1  UNL1       -0.2701
      2 C          13.3970   82.7219   25.1235 C.2     1  UNL1        0.2483
      3 N          13.5903   83.2758   23.8129 N.am    1  UNL1       -0.2945
      4 H          13.3346   82.6970   22.9809 H       1  UNL1        0.1501
      5 C          12.5579   81.5194   25.3231 C.ar    1  UNL1        0.0808
      6 C          11.2394   81.6629   25.7893 C.ar    1  UNL1        0.0080
      7 C          10.4311   80.5408   25.9889 C.ar    1  UNL1        0.0149
      8 C          10.9236   79.2596   25.7136 C.ar    1  UNL1        0.0518
      9 C          12.2310   79.1090   25.2354 C.ar    1  UNL1        0.0443
     10 C          13.0448   80.2285   25.0349 C.ar    1  UNL1        0.1457
     11 F          14.2853   80.0474   24.5155 F       1  UNL1       -0.2040
     12 N          10.0958   78.1055   25.9231 N.pl3   1  UNL1       -0.2831
     13 C           8.7475   78.0974   25.3415 C.3     1  UNL1        0.1144
     14 C           8.0852   76.7195   25.4579 C.3     1  UNL1        0.1137
     15 N           8.2496   76.1734   26.8146 N.pl3   1  UNL1       -0.2875
     16 C           9.5424   76.3158   27.5083 C.3     1  UNL1        0.1430
     17 C          10.6233   76.9053   26.5895 C.3     1  UNL1        0.2091
     18 O          11.7676   77.2152   27.3444 O.3     1  UNL1       -0.3658
     19 H          12.2181   76.3543   27.5482 H       1  UNL1        0.2123
     20 C           7.2045   75.3528   27.3861 C.ar    1  UNL1        0.1318
     21 C           6.7910   74.1580   26.7704 C.ar    1  UNL1        0.0343
     22 C           5.7771   73.3952   27.3520 C.ar    1  UNL1        0.0083
     23 C           5.1584   73.8244   28.5351 C.ar    1  UNL1        0.0906
     24 C           5.6180   75.0061   29.1352 C.ar    1  UNL1        0.1041
     25 N           6.6079   75.7316   28.5516 N.ar    1  UNL1       -0.2292
     26 C           4.0981   72.9838   29.1993 C.3     1  UNL1        0.4200
     27 F           4.2944   71.6566   28.8662 F       1  UNL1       -0.1658
     28 F           2.8363   73.3717   28.7830 F       1  UNL1       -0.1658
     29 F           4.1601   73.1175   30.5756 F       1  UNL1       -0.1658
     30 C          14.2917   84.5462   23.6028 C.3     1  UNL1        0.1535
     31 C          14.7168   84.6646   22.1645 C.2     1  UNL1        0.2443
     32 O          15.6413   83.9227   21.7345 O.2     1  UNL1       -0.2730
     33 N          14.1289   85.6620   21.3128 N.am    1  UNL1       -0.2825
     34 H          13.6254   86.4579   21.7659 H       1  UNL1        0.1549
     35 C          14.2629   85.6776   19.8816 C.ar    1  UNL1        0.0535
     36 C          14.6877   84.5425   19.1701 C.ar    1  UNL1        0.0353
     37 C          14.7768   84.5965   17.7767 C.ar    1  UNL1        0.1002
     38 N          14.4410   85.7351   17.1147 N.ar    1  UNL1       -0.2422
     39 C          14.0095   86.8417   17.7756 C.ar    1  UNL1        0.1002
     40 C          13.9046   86.8298   19.1685 C.ar    1  UNL1        0.0353
     41 C          13.3991   85.7378   23.9905 C.3     1  UNL1        0.0569
     42 C          14.2153   86.8695   24.5448 C.ar    1  UNL1       -0.0017
     43 C          14.7395   87.9422   23.8295 C.ar    1  UNL1        0.0681
     44 N          15.3497   88.8135   24.6650 N.ar    1  UNL1       -0.3523
     45 C          15.2071   88.3049   25.9012 C.ar    1  UNL1        0.0563
     46 C          15.6550   88.8586   27.0997 C.ar    1  UNL1        0.0170
     47 C          15.3775   88.1617   28.2901 C.ar    1  UNL1        0.0015
     48 C          14.6640   86.9428   28.2565 C.ar    1  UNL1        0.0001
     49 C          14.2223   86.4089   27.0322 C.ar    1  UNL1        0.0012
     50 C          14.5163   87.1205   25.8689 C.ar    1  UNL1        0.0131
     51 H          15.8208   89.7071   24.4005 H       1  UNL1        0.1660
@<TRIPOS>BOND
     1     1     2    2
     2     2     3   am
     3     3    30    1
     4    30    41    1
     5    41    42    1
     6    42    43   ar
     7    43    44   ar
     8    44    45   ar
     9    45    46   ar
    10    46    47   ar
    11    47    48   ar
    12    48    49   ar
    13    49    50   ar
    14    30    31    1
    15    31    32    2
    16    31    33   am
    17    33    35    1
    18    35    36   ar
    19    36    37   ar
    20    37    38   ar
    21    38    39   ar
    22    39    40   ar
    23     2     5    1
    24     5     6   ar
    25     6     7   ar
    26     7     8   ar
    27     8    12    1
    28    12    13    1
    29    13    14    1
    30    14    15    1
    31    15    20    1
    32    20    21   ar
    33    21    22   ar
    34    22    23   ar
    35    23    26    1
    36    26    27    1
    37    26    28    1
    38    26    29    1
    39    23    24   ar
    40    24    25   ar
    41    15    16    1
    42    16    17    1
    43    17    18    1
    44     8     9   ar
    45     9    10   ar
    46    10    11    1
    47    50    42   ar
    48    40    35   ar
    49    10     5   ar
    50    50    45   ar
    51    17    12    1
    52    25    20   ar
    53     3     4    1
    54    44    51    1
    55    33    34    1
    56    18    19    1
@<TRIPOS>MOLECULE
*****
 51 56 0 0 0
SMALL
GASTEIGER

@<TRIPOS>ATOM
      1 O          10.6189   77.4625   25.5568 O.2     1  UNL1       -0.2701
      2 C           9.4143   77.3176   25.9025 C.2     1  UNL1        0.2483
      3 N           9.0335   77.5382   27.2693 N.am    1  UNL1       -0.2945
      4 H           8.0213   77.6733   27.4926 H       1  UNL1        0.1501
      5 C           8.4054   76.9545   24.8826 C.ar    1  UNL1        0.0808
      6 C           8.7781   76.8942   23.5285 C.ar    1  UNL1        0.0080
      7 C           7.8406   76.5577   22.5486 C.ar    1  UNL1        0.0149
      8 C           6.5200   76.2638   22.9082 C.ar    1  UNL1        0.0518
      9 C           6.1439   76.3078   24.2563 C.ar    1  UNL1        0.0443
     10 C           7.0778   76.6451   25.2411 C.ar    1  UNL1        0.1457
     11 F           6.6909   76.6204   26.5415 F       1  UNL1       -0.2040
     12 N           5.5545   75.9229   21.9019 N.pl3   1  UNL1       -0.2831
     13 C           4.6303   76.9655   21.4382 C.3     1  UNL1        0.1144
     14 C           3.8258   76.5106   20.2147 C.3     1  UNL1        0.1137
     15 N           3.2855   75.1570   20.4182 N.pl3   1  UNL1       -0.2875
     16 C           4.1258   74.1209   21.0451 C.3     1  UNL1        0.1430
     17 C           5.5695   74.6032   21.2531 C.3     1  UNL1        0.2091
     18 O           6.2715   73.6700   22.0352 O.3     1  UNL1       -0.3658
     19 H           6.4711   72.8956   21.4469 H       1  UNL1        0.2123
     20 C           2.0037   74.8059   19.8472 C.ar    1  UNL1        0.1318
     21 C           1.2395   75.7429   19.1291 C.ar    1  UNL1        0.0343
     22 C           0.0060   75.3660   18.5957 C.ar    1  UNL1        0.0083
     23 C          -0.4808   74.0651   18.7885 C.ar    1  UNL1        0.0906
     24 C           0.3230   73.1504   19.4850 C.ar    1  UNL1        0.1041
     25 N           1.5215   73.5395   19.9940 N.ar    1  UNL1       -0.2292
     26 C          -1.7874   73.6320   18.1741 C.3     1  UNL1        0.4200
     27 F          -1.8318   72.2513   18.1248 F       1  UNL1       -0.1658
     28 F          -1.9126   74.1336   16.8901 F       1  UNL1       -0.1658
     29 F          -2.8558   74.0914   18.9246 F       1  UNL1       -0.1658
     30 C          10.0264   77.7528   28.3268 C.3     1  UNL1        0.1535
     31 C           9.9155   79.1568   28.8558 C.2     1  UNL1        0.2443
     32 O           9.6413   80.0938   28.0577 O.2     1  UNL1       -0.2730
     33 N          10.1928   79.4365   30.2381 N.am    1  UNL1       -0.2825
     34 H          10.7264   78.7232   30.7846 H       1  UNL1        0.1549
     35 C           9.8556   80.6715   30.8920 C.ar    1  UNL1        0.0535
     36 C          10.1972   81.9159   30.3352 C.ar    1  UNL1        0.0353
     37 C           9.8243   83.0906   30.9935 C.ar    1  UNL1        0.1002
     38 N           9.1238   83.0286   32.1566 N.ar    1  UNL1       -0.2422
     39 C           8.7640   81.8396   32.7082 C.ar    1  UNL1        0.1002
     40 C           9.1156   80.6414   32.0819 C.ar    1  UNL1        0.0353
     41 C           9.8397   76.7404   29.4700 C.3     1  UNL1        0.0569
     42 C           8.5247   76.0254   29.3522 C.ar    1  UNL1       -0.0017
     43 C           8.3035   74.7892   28.7520 C.ar    1  UNL1        0.0681
     44 N           7.0124   74.4154   28.9032 N.ar    1  UNL1       -0.3523
     45 C           6.4199   75.3999   29.6011 C.ar    1  UNL1        0.0563
     46 C           5.0913   75.4575   30.0198 C.ar    1  UNL1        0.0170
     47 C           4.6841   76.5811   30.7623 C.ar    1  UNL1        0.0015
     48 C           5.6041   77.6085   31.0689 C.ar    1  UNL1        0.0001
     49 C           6.9395   77.5224   30.6349 C.ar    1  UNL1        0.0012
     50 C           7.3120   76.3986   29.8971 C.ar    1  UNL1        0.0131
     51 H           6.5732   73.5326   28.5597 H       1  UNL1        0.1660
@<TRIPOS>BOND
     1     1     2    2
     2     2     3   am
     3     3    30    1
     4    30    41    1
     5    41    42    1
     6    42    43   ar
     7    43    44   ar
     8    44    45   ar
     9    45    46   ar
    10    46    47   ar
    11    47    48   ar
    12    48    49   ar
    13    49    50   ar
    14    30    31    1
    15    31    32    2
    16    31    33   am
    17    33    35    1
    18    35    36   ar
    19    36    37   ar
    20    37    38   ar
    21    38    39   ar
    22    39    40   ar
    23     2     5    1
    24     5     6   ar
    25     6     7   ar
    26     7     8   ar
    27     8    12    1
    28    12    13    1
    29    13    14    1
    30    14    15    1
    31    15    20    1
    32    20    21   ar
    33    21    22   ar
    34    22    23   ar
    35    23    26    1
    36    26    27    1
    37    26    28    1
    38    26    29    1
    39    23    24   ar
    40    24    25   ar
    41    15    16    1
    42    16    17    1
    43    17    18    1
    44     8     9   ar
    45     9    10   ar
    46    10    11    1
    47    50    42   ar
    48    40    35   ar
    49    10     5   ar
    50    50    45   ar
    51    17    12    1
    52    25    20   ar
    53     3     4    1
    54    44    51    1
    55    33    34    1
    56    18    19    1
@<TRIPOS>MOLECULE
*****
 51 56 0 0 0
SMALL
GASTEIGER

@<TRIPOS>ATOM
      1 O          10.5141   76.2601   26.0257 O.2     1  UNL1       -0.2701
      2 C           9.3589   76.7558   26.1333 C.2     1  UNL1        0.2483
      3 N           9.0486   77.6048   27.2489 N.am    1  UNL1       -0.2945
      4 H           8.1984   78.2106   27.1972 H       1  UNL1        0.1501
      5 C           8.3506   76.4799   25.0859 C.ar    1  UNL1        0.0808
      6 C           8.7665   76.0021   23.8309 C.ar    1  UNL1        0.0080
      7 C           7.8317   75.7391   22.8262 C.ar    1  UNL1        0.0149
      8 C           6.4665   75.9371   23.0646 C.ar    1  UNL1        0.0518
      9 C           6.0427   76.3993   24.3166 C.ar    1  UNL1        0.0443
     10 C           6.9740   76.6652   25.3254 C.ar    1  UNL1        0.1457
     11 F           6.5212   77.0558   26.5434 F       1  UNL1       -0.2040
     12 N           5.5054   75.6721   22.0315 N.pl3   1  UNL1       -0.2831
     13 C           4.5862   76.7480   21.6394 C.3     1  UNL1        0.1144
     14 C           3.7870   76.3845   20.3824 C.3     1  UNL1        0.1137
     15 N           3.2424   75.0212   20.4852 N.pl3   1  UNL1       -0.2875
     16 C           4.0770   73.9404   21.0401 C.3     1  UNL1        0.1430
     17 C           5.5207   74.4026   21.2895 C.3     1  UNL1        0.2091
     18 O           6.2165   73.4136   22.0059 O.3     1  UNL1       -0.3658
     19 H           6.4172   72.6830   21.3643 H       1  UNL1        0.2123
     20 C           1.9627   74.7156   19.8840 C.ar    1  UNL1        0.1318
     21 C           1.2421   75.6834   19.1617 C.ar    1  UNL1        0.0343
     22 C           0.0092   75.3502   18.5988 C.ar    1  UNL1        0.0083
     23 C          -0.5204   74.0625   18.7660 C.ar    1  UNL1        0.0906
     24 C           0.2409   73.1161   19.4678 C.ar    1  UNL1        0.1041
     25 N           1.4397   73.4629   20.0058 N.ar    1  UNL1       -0.2292
     26 C          -1.8264   73.6762   18.1200 C.3     1  UNL1        0.4200
     27 F          -1.8604   74.1719   16.8301 F       1  UNL1       -0.1658
     28 F          -2.8946   74.1950   18.8311 F       1  UNL1       -0.1658
     29 F          -1.9619   72.2993   18.0780 F       1  UNL1       -0.1658
     30 C           9.9733   77.7774   28.3739 C.3     1  UNL1        0.1535
     31 C           9.8935   79.1882   28.8903 C.2     1  UNL1        0.2443
     32 O           9.6406   80.1239   28.0839 O.2     1  UNL1       -0.2730
     33 N          10.1764   79.4738   30.2703 N.am    1  UNL1       -0.2825
     34 H          10.6937   78.7537   30.8234 H       1  UNL1        0.1549
     35 C           9.8665   80.7218   30.9130 C.ar    1  UNL1        0.0535
     36 C          10.2292   81.9535   30.3416 C.ar    1  UNL1        0.0353
     37 C           9.8825   83.1419   30.9896 C.ar    1  UNL1        0.1002
     38 N           9.1871   83.1055   32.1568 N.ar    1  UNL1       -0.2422
     39 C           8.8073   81.9294   32.7225 C.ar    1  UNL1        0.1002
     40 C           9.1324   80.7183   32.1069 C.ar    1  UNL1        0.0353
     41 C           9.6570   76.7818   29.5033 C.3     1  UNL1        0.0569
     42 C           8.1757   76.6442   29.7063 C.ar    1  UNL1       -0.0017
     43 C           7.3406   77.5462   30.3591 C.ar    1  UNL1        0.0681
     44 N           6.0531   77.1394   30.2805 N.ar    1  UNL1       -0.3523
     45 C           6.0675   75.9943   29.5764 C.ar    1  UNL1        0.0563
     46 C           4.9729   75.2091   29.2173 C.ar    1  UNL1        0.0170
     47 C           5.2158   74.0515   28.4552 C.ar    1  UNL1        0.0015
     48 C           6.5318   73.7105   28.0709 C.ar    1  UNL1        0.0001
     49 C           7.6172   74.5231   28.4459 C.ar    1  UNL1        0.0012
     50 C           7.3451   75.6616   29.2048 C.ar    1  UNL1        0.0131
     51 H           5.2184   77.6276   30.6747 H       1  UNL1        0.1660
@<TRIPOS>BOND
     1     1     2    2
     2     2     3   am
     3     3    30    1
     4    30    41    1
     5    41    42    1
     6    42    43   ar
     7    43    44   ar
     8    44    45   ar
     9    45    46   ar
    10    46    47   ar
    11    47    48   ar
    12    48    49   ar
    13    49    50   ar
    14    30    31    1
    15    31    32    2
    16    31    33   am
    17    33    35    1
    18    35    36   ar
    19    36    37   ar
    20    37    38   ar
    21    38    39   ar
    22    39    40   ar
    23     2     5    1
    24     5     6   ar
    25     6     7   ar
    26     7     8   ar
    27     8    12    1
    28    12    13    1
    29    13    14    1
    30    14    15    1
    31    15    20    1
    32    20    21   ar
    33    21    22   ar
    34    22    23   ar
    35    23    26    1
    36    26    27    1
    37    26    28    1
    38    26    29    1
    39    23    24   ar
    40    24    25   ar
    41    15    16    1
    42    16    17    1
    43    17    18    1
    44     8     9   ar
    45     9    10   ar
    46    10    11    1
    47    50    42   ar
    48    40    35   ar
    49    10     5   ar
    50    50    45   ar
    51    17    12    1
    52    25    20   ar
    53     3     4    1
    54    44    51    1
    55    33    34    1
    56    18    19    1
@<TRIPOS>MOLECULE
*****
 51 56 0 0 0
SMALL
GASTEIGER

@<TRIPOS>ATOM
      1 O          10.7599   74.8529   25.6120 O.2     1  UNL1       -0.2701
      2 C           9.9514   75.8107   25.4688 C.2     1  UNL1        0.2483
      3 N          10.1351   77.0177   26.2246 N.am    1  UNL1       -0.2945
      4 H           9.6350   77.8828   25.9179 H       1  UNL1        0.1501
      5 C           8.8435   75.6857   24.4958 C.ar    1  UNL1        0.0808
      6 C           9.0690   75.9971   23.1436 C.ar    1  UNL1        0.0080
      7 C           8.0360   75.8902   22.2088 C.ar    1  UNL1        0.0149
      8 C           6.7659   75.4583   22.6085 C.ar    1  UNL1        0.0518
      9 C           6.5366   75.1325   23.9509 C.ar    1  UNL1        0.0443
     10 C           7.5665   75.2388   24.8910 C.ar    1  UNL1        0.1457
     11 F           7.3222   74.8588   26.1705 F       1  UNL1       -0.2040
     12 N           5.7022   75.3528   21.6500 N.pl3   1  UNL1       -0.2831
     13 C           4.7137   76.4365   21.5809 C.3     1  UNL1        0.1144
     14 C           3.7884   76.2869   20.3674 C.3     1  UNL1        0.1137
     15 N           3.2987   74.9040   20.2508 N.pl3   1  UNL1       -0.2875
     16 C           4.2217   73.7792   20.4864 C.3     1  UNL1        0.1430
     17 C           5.6704   74.2563   20.6706 C.3     1  UNL1        0.2091
     18 O           6.4711   73.1826   21.0965 O.3     1  UNL1       -0.3658
     19 H           6.6191   72.6035   20.3038 H       1  UNL1        0.2123
     20 C           1.9687   74.6577   19.7382 C.ar    1  UNL1        0.1318
     21 C           1.2285   75.6707   19.1029 C.ar    1  UNL1        0.0343
     22 C          -0.0530   75.3940   18.6240 C.ar    1  UNL1        0.0083
     23 C          -0.6105   74.1181   18.7901 C.ar    1  UNL1        0.0906
     24 C           0.1694   73.1259   19.4026 C.ar    1  UNL1        0.1041
     25 N           1.4155   73.4180   19.8596 N.ar    1  UNL1       -0.2292
     26 C          -1.9727   73.7935   18.2323 C.3     1  UNL1        0.4200
     27 F          -2.1356   72.4212   18.1981 F       1  UNL1       -0.1658
     28 F          -2.1068   74.2959   16.9494 F       1  UNL1       -0.1658
     29 F          -2.9674   74.3465   19.0201 F       1  UNL1       -0.1658
     30 C          11.1290   77.1176   27.2981 C.3     1  UNL1        0.1535
     31 C          12.4661   77.4997   26.7238 C.2     1  UNL1        0.2443
     32 O          13.5163   77.1476   27.3262 O.2     1  UNL1       -0.2730
     33 N          12.5433   78.3194   25.5457 N.am    1  UNL1       -0.2825
     34 H          11.6927   78.8594   25.2680 H       1  UNL1        0.1549
     35 C          13.7419   78.5080   24.7745 C.ar    1  UNL1        0.0535
     36 C          14.5410   79.6542   24.9254 C.ar    1  UNL1        0.0353
     37 C          15.7119   79.7811   24.1737 C.ar    1  UNL1        0.1002
     38 N          16.0813   78.7957   23.3135 N.ar    1  UNL1       -0.2422
     39 C          15.3375   77.6683   23.1611 C.ar    1  UNL1        0.1002
     40 C          14.1605   77.5007   23.8944 C.ar    1  UNL1        0.0353
     41 C          10.6941   78.1464   28.3561 C.3     1  UNL1        0.0569
     42 C           9.3833   77.7624   28.9796 C.ar    1  UNL1       -0.0017
     43 C           8.3271   78.6167   29.2826 C.ar    1  UNL1        0.0681
     44 N           7.2736   77.9144   29.7586 N.ar    1  UNL1       -0.3523
     45 C           7.6525   76.6246   29.7498 C.ar    1  UNL1        0.0563
     46 C           6.8955   75.5188   30.1344 C.ar    1  UNL1        0.0170
     47 C           7.4868   74.2468   30.0244 C.ar    1  UNL1        0.0015
     48 C           8.8050   74.1100   29.5351 C.ar    1  UNL1        0.0001
     49 C           9.5447   75.2438   29.1523 C.ar    1  UNL1        0.0012
     50 C           8.9329   76.4913   29.2770 C.ar    1  UNL1        0.0131
     51 H           6.3495   78.2989   30.0562 H       1  UNL1        0.1660
@<TRIPOS>BOND
     1     1     2    2
     2     2     3   am
     3     3    30    1
     4    30    41    1
     5    41    42    1
     6    42    43   ar
     7    43    44   ar
     8    44    45   ar
     9    45    46   ar
    10    46    47   ar
    11    47    48   ar
    12    48    49   ar
    13    49    50   ar
    14    30    31    1
    15    31    32    2
    16    31    33   am
    17    33    35    1
    18    35    36   ar
    19    36    37   ar
    20    37    38   ar
    21    38    39   ar
    22    39    40   ar
    23     2     5    1
    24     5     6   ar
    25     6     7   ar
    26     7     8   ar
    27     8    12    1
    28    12    13    1
    29    13    14    1
    30    14    15    1
    31    15    20    1
    32    20    21   ar
    33    21    22   ar
    34    22    23   ar
    35    23    26    1
    36    26    27    1
    37    26    28    1
    38    26    29    1
    39    23    24   ar
    40    24    25   ar
    41    15    16    1
    42    16    17    1
    43    17    18    1
    44     8     9   ar
    45     9    10   ar
    46    10    11    1
    47    50    42   ar
    48    40    35   ar
    49    10     5   ar
    50    50    45   ar
    51    17    12    1
    52    25    20   ar
    53     3     4    1
    54    44    51    1
    55    33    34    1
    56    18    19    1
@<TRIPOS>MOLECULE
*****
 51 56 0 0 0
SMALL
GASTEIGER

@<TRIPOS>ATOM
      1 O          14.0192   83.7351   25.5341 O.2     1  UNL1       -0.2701
      2 C          13.3447   83.1975   24.6133 C.2     1  UNL1        0.2483
      3 N          13.3382   83.7803   23.3011 N.am    1  UNL1       -0.2945
      4 H          13.0032   83.2025   22.4971 H       1  UNL1        0.1501
      5 C          12.5965   81.9521   24.8944 C.ar    1  UNL1        0.0808
      6 C          11.2092   82.0107   25.1143 C.ar    1  UNL1        0.0080
      7 C          10.4838   80.8477   25.3856 C.ar    1  UNL1        0.0149
      8 C          11.1314   79.6073   25.4286 C.ar    1  UNL1        0.0518
      9 C          12.5106   79.5384   25.1967 C.ar    1  UNL1        0.0443
     10 C          13.2418   80.6994   24.9258 C.ar    1  UNL1        0.1457
     11 F          14.5652   80.5860   24.6490 F       1  UNL1       -0.2040
     12 N          10.3882   78.4122   25.7123 N.pl3   1  UNL1       -0.2831
     13 C           9.0936   78.2195   25.0466 C.3     1  UNL1        0.1144
     14 C           8.5403   76.8079   25.2746 C.3     1  UNL1        0.1137
     15 N           8.6451   76.4279   26.6924 N.pl3   1  UNL1       -0.2875
     16 C           9.8649   76.7605   27.4502 C.3     1  UNL1        0.1430
     17 C          10.9604   77.3433   26.5446 C.3     1  UNL1        0.2091
     18 O          12.0143   77.8349   27.3340 O.3     1  UNL1       -0.3658
     19 H          12.5174   77.0452   27.6641 H       1  UNL1        0.2123
     20 C           7.6307   75.5824   27.2826 C.ar    1  UNL1        0.1318
     21 C           7.8698   74.8712   28.4720 C.ar    1  UNL1        0.0343
     22 C           6.8659   74.0635   29.0085 C.ar    1  UNL1        0.0083
     23 C           5.6295   73.9447   28.3576 C.ar    1  UNL1        0.0906
     24 C           5.4182   74.6920   27.1894 C.ar    1  UNL1        0.1041
     25 N           6.4098   75.4733   26.6863 N.ar    1  UNL1       -0.2292
     26 C           4.5208   73.1159   28.9542 C.3     1  UNL1        0.4200
     27 F           3.3071   73.5554   28.4596 F       1  UNL1       -0.1658
     28 F           4.5141   73.2307   30.3336 F       1  UNL1       -0.1658
     29 F           4.6823   71.7796   28.6316 F       1  UNL1       -0.1658
     30 C          13.9455   85.0870   23.0290 C.3     1  UNL1        0.1535
     31 C          13.6336   86.0399   24.1507 C.2     1  UNL1        0.2443
     32 O          12.5128   86.6171   24.1723 O.2     1  UNL1       -0.2730
     33 N          14.6283   86.3454   25.1423 N.am    1  UNL1       -0.2825
     34 H          15.6251   86.1223   24.9212 H       1  UNL1        0.1549
     35 C          14.3477   87.0151   26.3830 C.ar    1  UNL1        0.0535
     36 C          14.2950   86.3158   27.6010 C.ar    1  UNL1        0.0353
     37 C          14.0458   87.0136   28.7855 C.ar    1  UNL1        0.1002
     38 N          13.8699   88.3611   28.7601 N.ar    1  UNL1       -0.2422
     39 C          13.9338   89.0654   27.5993 C.ar    1  UNL1        0.1002
     40 C          14.1822   88.4068   26.3927 C.ar    1  UNL1        0.0353
     41 C          15.4683   84.9593   22.8513 C.3     1  UNL1        0.0569
     42 C          16.0428   86.1827   22.1973 C.ar    1  UNL1       -0.0017
     43 C          15.7443   86.6605   20.9246 C.ar    1  UNL1        0.0681
     44 N          16.3847   87.8300   20.6973 N.ar    1  UNL1       -0.3523
     45 C          17.0766   88.0987   21.8182 C.ar    1  UNL1        0.0563
     46 C          17.8784   89.2110   22.0702 C.ar    1  UNL1        0.0170
     47 C          18.4996   89.3020   23.3294 C.ar    1  UNL1        0.0015
     48 C          18.3051   88.2924   24.2983 C.ar    1  UNL1        0.0001
     49 C          17.4886   87.1820   24.0168 C.ar    1  UNL1        0.0012
     50 C          16.8899   87.1178   22.7584 C.ar    1  UNL1        0.0131
     51 H          16.3357   88.4111   19.8311 H       1  UNL1        0.1660
@<TRIPOS>BOND
     1     1     2    2
     2     2     3   am
     3     3    30    1
     4    30    41    1
     5    41    42    1
     6    42    43   ar
     7    43    44   ar
     8    44    45   ar
     9    45    46   ar
    10    46    47   ar
    11    47    48   ar
    12    48    49   ar
    13    49    50   ar
    14    30    31    1
    15    31    32    2
    16    31    33   am
    17    33    35    1
    18    35    36   ar
    19    36    37   ar
    20    37    38   ar
    21    38    39   ar
    22    39    40   ar
    23     2     5    1
    24     5     6   ar
    25     6     7   ar
    26     7     8   ar
    27     8    12    1
    28    12    13    1
    29    13    14    1
    30    14    15    1
    31    15    20    1
    32    20    21   ar
    33    21    22   ar
    34    22    23   ar
    35    23    26    1
    36    26    27    1
    37    26    28    1
    38    26    29    1
    39    23    24   ar
    40    24    25   ar
    41    15    16    1
    42    16    17    1
    43    17    18    1
    44     8     9   ar
    45     9    10   ar
    46    10    11    1
    47    50    42   ar
    48    40    35   ar
    49    10     5   ar
    50    50    45   ar
    51    17    12    1
    52    25    20   ar
    53     3     4    1
    54    44    51    1
    55    33    34    1
    56    18    19    1
@<TRIPOS>MOLECULE
*****
 51 56 0 0 0
SMALL
GASTEIGER

@<TRIPOS>ATOM
      1 O           5.6068   73.2884   22.0231 O.2     1  UNL1       -0.2701
      2 C           5.2635   74.4700   22.3017 C.2     1  UNL1        0.2483
      3 N           4.2871   75.1391   21.4888 N.am    1  UNL1       -0.2945
      4 H           3.8217   75.9955   21.8664 H       1  UNL1        0.1501
      5 C           5.8502   75.1360   23.4858 C.ar    1  UNL1        0.0808
      6 C           6.7467   74.4293   24.3063 C.ar    1  UNL1        0.0080
      7 C           7.3091   75.0373   25.4316 C.ar    1  UNL1        0.0149
      8 C           6.9944   76.3645   25.7467 C.ar    1  UNL1        0.0518
      9 C           6.1134   77.0801   24.9267 C.ar    1  UNL1        0.0443
     10 C           5.5466   76.4762   23.7998 C.ar    1  UNL1        0.1457
     11 F           4.7434   77.2190   22.9972 F       1  UNL1       -0.2040
     12 N           7.5676   76.9889   26.9055 N.pl3   1  UNL1       -0.2831
     13 C           6.7718   77.0381   28.1386 C.3     1  UNL1        0.1144
     14 C           7.6013   77.5243   29.3329 C.3     1  UNL1        0.1137
     15 N           8.3842   78.7177   28.9744 N.pl3   1  UNL1       -0.2875
     16 C           9.0588   78.7835   27.6655 C.3     1  UNL1        0.1430
     17 C           8.9632   77.4524   26.9045 C.3     1  UNL1        0.2091
     18 O           9.4316   77.6244   25.5906 O.3     1  UNL1       -0.3658
     19 H          10.4215   77.6788   25.6442 H       1  UNL1        0.2123
     20 C           8.6299   79.7371   29.9708 C.ar    1  UNL1        0.1318
     21 C           9.5052   80.8094   29.7225 C.ar    1  UNL1        0.0343
     22 C           9.7179   81.7717   30.7109 C.ar    1  UNL1        0.0083
     23 C           9.0777   81.6631   31.9538 C.ar    1  UNL1        0.0906
     24 C           8.1896   80.5958   32.1538 C.ar    1  UNL1        0.1041
     25 N           7.9969   79.6717   31.1762 N.ar    1  UNL1       -0.2292
     26 C           9.2601   82.7230   33.0100 C.3     1  UNL1        0.4200
     27 F          10.1292   83.6896   32.5398 F       1  UNL1       -0.1658
     28 F           9.7811   82.1728   34.1684 F       1  UNL1       -0.1658
     29 F           8.0490   83.3173   33.3196 F       1  UNL1       -0.1658
     30 C           3.7994   74.5649   20.2308 C.3     1  UNL1        0.1535
     31 C           2.3202   74.8053   20.0977 C.2     1  UNL1        0.2443
     32 O           1.8491   75.9288   20.4227 O.2     1  UNL1       -0.2730
     33 N           1.4466   73.7442   19.6776 N.am    1  UNL1       -0.2825
     34 H           1.8035   72.7637   19.7361 H       1  UNL1        0.1549
     35 C           0.0845   73.9410   19.2621 C.ar    1  UNL1        0.0535
     36 C          -0.5691   75.1721   19.4424 C.ar    1  UNL1        0.0353
     37 C          -1.8848   75.3249   18.9977 C.ar    1  UNL1        0.1002
     38 N          -2.5218   74.2937   18.3827 N.ar    1  UNL1       -0.2422
     39 C          -1.9080   73.0983   18.1785 C.ar    1  UNL1        0.1002
     40 C          -0.5925   72.9037   18.6063 C.ar    1  UNL1        0.0353
     41 C           4.5438   75.1669   19.0265 C.3     1  UNL1        0.0569
     42 C           4.8966   76.6057   19.2708 C.ar    1  UNL1       -0.0017
     43 C           4.1092   77.7146   18.9748 C.ar    1  UNL1        0.0681
     44 N           4.7085   78.8478   19.4066 N.ar    1  UNL1       -0.3523
     45 C           5.8618   78.4629   19.9801 C.ar    1  UNL1        0.0563
     46 C           6.8153   79.2769   20.5900 C.ar    1  UNL1        0.0170
     47 C           7.9483   78.6573   21.1485 C.ar    1  UNL1        0.0015
     48 C           8.0996   77.2540   21.0885 C.ar    1  UNL1        0.0001
     49 C           7.1198   76.4572   20.4686 C.ar    1  UNL1        0.0012
     50 C           6.0102   77.1008   19.9203 C.ar    1  UNL1        0.0131
     51 H           4.3387   79.8208   19.3233 H       1  UNL1        0.1660
@<TRIPOS>BOND
     1     1     2    2
     2     2     3   am
     3     3    30    1
     4    30    41    1
     5    41    42    1
     6    42    43   ar
     7    43    44   ar
     8    44    45   ar
     9    45    46   ar
    10    46    47   ar
    11    47    48   ar
    12    48    49   ar
    13    49    50   ar
    14    30    31    1
    15    31    32    2
    16    31    33   am
    17    33    35    1
    18    35    36   ar
    19    36    37   ar
    20    37    38   ar
    21    38    39   ar
    22    39    40   ar
    23     2     5    1
    24     5     6   ar
    25     6     7   ar
    26     7     8   ar
    27     8    12    1
    28    12    13    1
    29    13    14    1
    30    14    15    1
    31    15    20    1
    32    20    21   ar
    33    21    22   ar
    34    22    23   ar
    35    23    26    1
    36    26    27    1
    37    26    28    1
    38    26    29    1
    39    23    24   ar
    40    24    25   ar
    41    15    16    1
    42    16    17    1
    43    17    18    1
    44     8     9   ar
    45     9    10   ar
    46    10    11    1
    47    50    42   ar
    48    40    35   ar
    49    10     5   ar
    50    50    45   ar
    51    17    12    1
    52    25    20   ar
    53     3     4    1
    54    44    51    1
    55    33    34    1
    56    18    19    1
@<TRIPOS>MOLECULE
*****
 51 56 0 0 0
SMALL
GASTEIGER

@<TRIPOS>ATOM
      1 O          10.4948   74.5778   25.7071 O.2     1  UNL1       -0.2701
      2 C           9.8274   75.6079   25.4152 C.2     1  UNL1        0.2483
      3 N           8.4111   75.5034   25.2036 N.am    1  UNL1       -0.2945
      4 H           7.8351   76.3755   25.2234 H       1  UNL1        0.1501
      5 C          10.5133   76.9164   25.3291 C.ar    1  UNL1        0.0808
      6 C          10.1032   77.9710   26.1633 C.ar    1  UNL1        0.0080
      7 C          10.7341   79.2160   26.0955 C.ar    1  UNL1        0.0149
      8 C          11.7923   79.4220   25.2025 C.ar    1  UNL1        0.0518
      9 C          12.2161   78.3726   24.3781 C.ar    1  UNL1        0.0443
     10 C          11.5877   77.1248   24.4409 C.ar    1  UNL1        0.1457
     11 F          12.0640   76.1159   23.6686 F       1  UNL1       -0.2040
     12 N          12.4379   80.7022   25.1282 N.pl3   1  UNL1       -0.2831
     13 C          11.6099   81.8893   24.8804 C.3     1  UNL1        0.1144
     14 C          12.4074   83.1869   25.0564 C.3     1  UNL1        0.1137
     15 N          13.7051   83.1005   24.3678 N.pl3   1  UNL1       -0.2875
     16 C          14.4928   81.8571   24.4457 C.3     1  UNL1        0.1430
     17 C          13.8717   80.8461   25.4215 C.3     1  UNL1        0.2091
     18 O          14.5319   79.6107   25.3058 O.3     1  UNL1       -0.3658
     19 H          15.4105   79.7120   25.7569 H       1  UNL1        0.2123
     20 C          14.2766   84.2867   23.7688 C.ar    1  UNL1        0.1318
     21 C          14.2658   85.5238   24.4374 C.ar    1  UNL1        0.0343
     22 C          14.8251   86.6461   23.8245 C.ar    1  UNL1        0.0083
     23 C          15.3799   86.5485   22.5403 C.ar    1  UNL1        0.0906
     24 C          15.3984   85.2918   21.9173 C.ar    1  UNL1        0.1041
     25 N          14.8493   84.2125   22.5341 N.ar    1  UNL1       -0.2292
     26 C          16.0320   87.7416   21.8897 C.3     1  UNL1        0.4200
     27 F          17.2504   87.9820   22.4967 F       1  UNL1       -0.1658
     28 F          15.2338   88.8650   22.0195 F       1  UNL1       -0.1658
     29 F          16.2378   87.5103   20.5405 F       1  UNL1       -0.1658
     30 C           7.7299   74.2066   25.1363 C.3     1  UNL1        0.1535
     31 C           6.5130   74.2211   26.0209 C.2     1  UNL1        0.2443
     32 O           5.3897   74.4906   25.5156 O.2     1  UNL1       -0.2730
     33 N           6.6410   74.0049   27.4361 N.am    1  UNL1       -0.2825
     34 H           7.5879   74.1142   27.8646 H       1  UNL1        0.1549
     35 C           5.5337   73.7307   28.3110 C.ar    1  UNL1        0.0535
     36 C           4.8187   72.5230   28.2365 C.ar    1  UNL1        0.0353
     37 C           3.7669   72.2895   29.1260 C.ar    1  UNL1        0.1002
     38 N           3.4479   73.2187   30.0654 N.ar    1  UNL1       -0.2422
     39 C           4.1340   74.3871   30.1723 C.ar    1  UNL1        0.1002
     40 C           5.1935   74.6598   29.3036 C.ar    1  UNL1        0.0353
     41 C           7.3284   73.8709   23.6896 C.3     1  UNL1        0.0569
     42 C           8.4262   74.2205   22.7268 C.ar    1  UNL1       -0.0017
     43 C           8.4943   75.3545   21.9226 C.ar    1  UNL1        0.0681
     44 N           9.6637   75.3818   21.2434 N.ar    1  UNL1       -0.3523
     45 C          10.3373   74.2807   21.6188 C.ar    1  UNL1        0.0563
     46 C          11.6065   73.8829   21.2009 C.ar    1  UNL1        0.0170
     47 C          12.1343   72.6955   21.7407 C.ar    1  UNL1        0.0015
     48 C          11.3915   71.9428   22.6774 C.ar    1  UNL1        0.0001
     49 C          10.1137   72.3698   23.0825 C.ar    1  UNL1        0.0012
     50 C           9.6158   73.5484   22.5266 C.ar    1  UNL1        0.0131
     51 H           9.9814   76.1193   20.5759 H       1  UNL1        0.1660
@<TRIPOS>BOND
     1     1     2    2
     2     2     3   am
     3     3    30    1
     4    30    41    1
     5    41    42    1
     6    42    43   ar
     7    43    44   ar
     8    44    45   ar
     9    45    46   ar
    10    46    47   ar
    11    47    48   ar
    12    48    49   ar
    13    49    50   ar
    14    30    31    1
    15    31    32    2
    16    31    33   am
    17    33    35    1
    18    35    36   ar
    19    36    37   ar
    20    37    38   ar
    21    38    39   ar
    22    39    40   ar
    23     2     5    1
    24     5     6   ar
    25     6     7   ar
    26     7     8   ar
    27     8    12    1
    28    12    13    1
    29    13    14    1
    30    14    15    1
    31    15    20    1
    32    20    21   ar
    33    21    22   ar
    34    22    23   ar
    35    23    26    1
    36    26    27    1
    37    26    28    1
    38    26    29    1
    39    23    24   ar
    40    24    25   ar
    41    15    16    1
    42    16    17    1
    43    17    18    1
    44     8     9   ar
    45     9    10   ar
    46    10    11    1
    47    50    42   ar
    48    40    35   ar
    49    10     5   ar
    50    50    45   ar
    51    17    12    1
    52    25    20   ar
    53     3     4    1
    54    44    51    1
    55    33    34    1
    56    18    19    1
@<TRIPOS>MOLECULE
*****
 51 56 0 0 0
SMALL
GASTEIGER

@<TRIPOS>ATOM
      1 O           8.1195   74.9645   25.7411 O.2     1  UNL1       -0.2701
      2 C           8.1356   75.8112   24.8059 C.2     1  UNL1        0.2483
      3 N           7.2422   75.6601   23.6921 N.am    1  UNL1       -0.2945
      4 H           7.0756   76.4815   23.0674 H       1  UNL1        0.1501
      5 C           9.0549   76.9677   24.8901 C.ar    1  UNL1        0.0808
      6 C           8.5482   78.2335   25.2330 C.ar    1  UNL1        0.0080
      7 C           9.3977   79.3399   25.3140 C.ar    1  UNL1        0.0149
      8 C          10.7680   79.1959   25.0664 C.ar    1  UNL1        0.0518
      9 C          11.2830   77.9358   24.7382 C.ar    1  UNL1        0.0443
     10 C          10.4373   76.8252   24.6545 C.ar    1  UNL1        0.1457
     11 F          10.9815   75.6104   24.3912 F       1  UNL1       -0.2040
     12 N          11.6411   80.3329   25.1443 N.pl3   1  UNL1       -0.2831
     13 C          11.0448   81.6595   25.3461 C.3     1  UNL1        0.1144
     14 C          12.1093   82.7247   25.6344 C.3     1  UNL1        0.1137
     15 N          13.2298   82.6138   24.6868 N.pl3   1  UNL1       -0.2875
     16 C          13.7476   81.2836   24.3192 C.3     1  UNL1        0.1430
     17 C          13.1023   80.1673   25.1542 C.3     1  UNL1        0.2091
     18 O          13.4667   78.9147   24.6309 O.3     1  UNL1       -0.3658
     19 H          14.4095   78.7559   24.8983 H       1  UNL1        0.2123
     20 C          13.9254   83.8080   24.2598 C.ar    1  UNL1        0.1318
     21 C          13.9776   84.9558   25.0708 C.ar    1  UNL1        0.0343
     22 C          14.6568   86.0894   24.6219 C.ar    1  UNL1        0.0083
     23 C          15.2700   86.0941   23.3608 C.ar    1  UNL1        0.0906
     24 C          15.2216   84.9210   22.5932 C.ar    1  UNL1        0.1041
     25 N          14.5558   83.8285   23.0515 N.ar    1  UNL1       -0.2292
     26 C          16.0493   87.2943   22.8870 C.3     1  UNL1        0.4200
     27 F          17.1115   87.5147   23.7438 F       1  UNL1       -0.1658
     28 F          15.2452   88.4208   22.8661 F       1  UNL1       -0.1658
     29 F          16.5366   87.0863   21.6083 F       1  UNL1       -0.1658
     30 C           6.4287   74.4542   23.5075 C.3     1  UNL1        0.1535
     31 C           5.2211   74.7746   22.6693 C.2     1  UNL1        0.2443
     32 O           4.3236   75.5212   23.1456 O.2     1  UNL1       -0.2730
     33 N           5.0574   74.1767   21.3725 N.am    1  UNL1       -0.2825
     34 H           5.6276   73.3301   21.1480 H       1  UNL1        0.1549
     35 C           4.0981   74.6201   20.3979 C.ar    1  UNL1        0.0535
     36 C           2.7170   74.4502   20.5948 C.ar    1  UNL1        0.0353
     37 C           1.8210   74.9220   19.6321 C.ar    1  UNL1        0.1002
     38 N           2.2829   75.5531   18.5204 N.ar    1  UNL1       -0.2422
     39 C           3.6120   75.7475   18.3129 C.ar    1  UNL1        0.1002
     40 C           4.5417   75.2927   19.2511 C.ar    1  UNL1        0.0353
     41 C           7.2493   73.3332   22.8465 C.3     1  UNL1        0.0569
     42 C           8.4901   73.8781   22.2001 C.ar    1  UNL1       -0.0017
     43 C           8.6000   75.0692   21.4884 C.ar    1  UNL1        0.0681
     44 N           9.8839   75.2820   21.1199 N.ar    1  UNL1       -0.3523
     45 C          10.5859   74.2411   21.6004 C.ar    1  UNL1        0.0563
     46 C          11.9588   74.0249   21.4907 C.ar    1  UNL1        0.0170
     47 C          12.4924   72.8694   22.0906 C.ar    1  UNL1        0.0015
     48 C          11.6519   71.9682   22.7814 C.ar    1  UNL1        0.0001
     49 C          10.2700   72.2133   22.8779 C.ar    1  UNL1        0.0012
     50 C           9.7701   73.3647   22.2694 C.ar    1  UNL1        0.0131
     51 H          10.2529   76.0990   20.5844 H       1  UNL1        0.1660
@<TRIPOS>BOND
     1     1     2    2
     2     2     3   am
     3     3    30    1
     4    30    41    1
     5    41    42    1
     6    42    43   ar
     7    43    44   ar
     8    44    45   ar
     9    45    46   ar
    10    46    47   ar
    11    47    48   ar
    12    48    49   ar
    13    49    50   ar
    14    30    31    1
    15    31    32    2
    16    31    33   am
    17    33    35    1
    18    35    36   ar
    19    36    37   ar
    20    37    38   ar
    21    38    39   ar
    22    39    40   ar
    23     2     5    1
    24     5     6   ar
    25     6     7   ar
    26     7     8   ar
    27     8    12    1
    28    12    13    1
    29    13    14    1
    30    14    15    1
    31    15    20    1
    32    20    21   ar
    33    21    22   ar
    34    22    23   ar
    35    23    26    1
    36    26    27    1
    37    26    28    1
    38    26    29    1
    39    23    24   ar
    40    24    25   ar
    41    15    16    1
    42    16    17    1
    43    17    18    1
    44     8     9   ar
    45     9    10   ar
    46    10    11    1
    47    50    42   ar
    48    40    35   ar
    49    10     5   ar
    50    50    45   ar
    51    17    12    1
    52    25    20   ar
    53     3     4    1
    54    44    51    1
    55    33    34    1
    56    18    19    1
@<TRIPOS>MOLECULE
*****
 51 56 0 0 0
SMALL
GASTEIGER

@<TRIPOS>ATOM
      1 O          13.9918   83.5974   25.7340 O.2     1  UNL1       -0.2701
      2 C          13.3959   83.0264   24.7797 C.2     1  UNL1        0.2483
      3 N          13.5104   83.5547   23.4495 N.am    1  UNL1       -0.2945
      4 H          13.2420   82.9462   22.6431 H       1  UNL1        0.1501
      5 C          12.6141   81.7980   25.0438 C.ar    1  UNL1        0.0808
      6 C          11.2536   81.9007   25.3826 C.ar    1  UNL1        0.0080
      7 C          10.4978   80.7540   25.6401 C.ar    1  UNL1        0.0149
      8 C          11.0866   79.4871   25.5506 C.ar    1  UNL1        0.0518
      9 C          12.4376   79.3753   25.1999 C.ar    1  UNL1        0.0443
     10 C          13.1991   80.5196   24.9421 C.ar    1  UNL1        0.1457
     11 F          14.4889   80.3687   24.5486 F       1  UNL1       -0.2040
     12 N          10.3124   78.3084   25.8200 N.pl3   1  UNL1       -0.2831
     13 C           9.0023   78.1694   25.1717 C.3     1  UNL1        0.1144
     14 C           8.4106   76.7699   25.3774 C.3     1  UNL1        0.1137
     15 N           8.5264   76.3551   26.7846 N.pl3   1  UNL1       -0.2875
     16 C           9.7674   76.6342   27.5293 C.3     1  UNL1        0.1430
     17 C          10.8655   77.2046   26.6189 C.3     1  UNL1        0.2091
     18 O          11.9460   77.6467   27.4015 O.3     1  UNL1       -0.3658
     19 H          12.4304   76.8352   27.7056 H       1  UNL1        0.2123
     20 C           7.4965   75.5268   27.3725 C.ar    1  UNL1        0.1318
     21 C           7.7537   74.7269   28.5002 C.ar    1  UNL1        0.0343
     22 C           6.7338   73.9393   29.0366 C.ar    1  UNL1        0.0083
     23 C           5.4622   73.9290   28.4454 C.ar    1  UNL1        0.0906
     24 C           5.2358   74.7621   27.3397 C.ar    1  UNL1        0.1041
     25 N           6.2437   75.5217   26.8356 N.ar    1  UNL1       -0.2292
     26 C           4.3396   73.1220   29.0458 C.3     1  UNL1        0.4200
     27 F           4.3464   73.2834   30.4186 F       1  UNL1       -0.1658
     28 F           4.4914   71.7786   28.7487 F       1  UNL1       -0.1658
     29 F           3.1174   73.5400   28.5483 F       1  UNL1       -0.1658
     30 C          14.1516   84.8456   23.1796 C.3     1  UNL1        0.1535
     31 C          14.0767   85.1568   21.7095 C.2     1  UNL1        0.2443
     32 O          13.5312   86.2306   21.3363 O.2     1  UNL1       -0.2730
     33 N          14.5529   84.2078   20.7407 N.am    1  UNL1       -0.2825
     34 H          14.6870   83.2184   21.0493 H       1  UNL1        0.1549
     35 C          14.7753   84.5167   19.3545 C.ar    1  UNL1        0.0535
     36 C          14.1506   85.6131   18.7357 C.ar    1  UNL1        0.0353
     37 C          14.4185   85.8905   17.3927 C.ar    1  UNL1        0.1002
     38 N          15.2882   85.1130   16.6952 N.ar    1  UNL1       -0.2422
     39 C          15.9206   84.0578   17.2731 C.ar    1  UNL1        0.1002
     40 C          15.6823   83.7465   18.6139 C.ar    1  UNL1        0.0353
     41 C          13.4877   85.9700   23.9930 C.3     1  UNL1        0.0569
     42 C          14.5051   86.7418   24.7826 C.ar    1  UNL1       -0.0017
     43 C          14.5036   86.9493   26.1589 C.ar    1  UNL1        0.0681
     44 N          15.6164   87.6192   26.5364 N.ar    1  UNL1       -0.3523
     45 C          16.3237   87.8279   25.4124 C.ar    1  UNL1        0.0563
     46 C          17.5589   88.4641   25.2970 C.ar    1  UNL1        0.0170
     47 C          18.1341   88.5559   24.0162 C.ar    1  UNL1        0.0015
     48 C          17.4710   88.0131   22.8930 C.ar    1  UNL1        0.0001
     49 C          16.2261   87.3745   23.0399 C.ar    1  UNL1        0.0012
     50 C          15.6795   87.3031   24.3213 C.ar    1  UNL1        0.0131
     51 H          15.8768   87.9009   27.5076 H       1  UNL1        0.1660
@<TRIPOS>BOND
     1     1     2    2
     2     2     3   am
     3     3    30    1
     4    30    41    1
     5    41    42    1
     6    42    43   ar
     7    43    44   ar
     8    44    45   ar
     9    45    46   ar
    10    46    47   ar
    11    47    48   ar
    12    48    49   ar
    13    49    50   ar
    14    30    31    1
    15    31    32    2
    16    31    33   am
    17    33    35    1
    18    35    36   ar
    19    36    37   ar
    20    37    38   ar
    21    38    39   ar
    22    39    40   ar
    23     2     5    1
    24     5     6   ar
    25     6     7   ar
    26     7     8   ar
    27     8    12    1
    28    12    13    1
    29    13    14    1
    30    14    15    1
    31    15    20    1
    32    20    21   ar
    33    21    22   ar
    34    22    23   ar
    35    23    26    1
    36    26    27    1
    37    26    28    1
    38    26    29    1
    39    23    24   ar
    40    24    25   ar
    41    15    16    1
    42    16    17    1
    43    17    18    1
    44     8     9   ar
    45     9    10   ar
    46    10    11    1
    47    50    42   ar
    48    40    35   ar
    49    10     5   ar
    50    50    45   ar
    51    17    12    1
    52    25    20   ar
    53     3     4    1
    54    44    51    1
    55    33    34    1
    56    18    19    1
