@<TRIPOS>MOLECULE
*****
 51 56 0 0 0
SMALL
GASTEIGER

@<TRIPOS>ATOM
      1 C          59.0440   82.6632    8.7831 C.3     1  UNL1        0.1535
      2 O          59.0665   85.4907    8.4541 O.2     1  UNL1       -0.2701
      3 C          59.8999   85.0040    9.2667 C.2     1  UNL1        0.2483
      4 N          59.9767   83.5814    9.4450 N.am    1  UNL1       -0.2945
      5 H          60.8005   83.1847    9.9514 H       1  UNL1        0.1501
      6 C          60.8170   85.9083    9.9938 C.ar    1  UNL1        0.0808
      7 C          61.2038   85.5944   11.3061 C.ar    1  UNL1        0.0080
      8 C          62.0585   86.4403   12.0167 C.ar    1  UNL1        0.0148
      9 C          62.5542   87.6164   11.4271 C.ar    1  UNL1        0.0502
     10 C          62.1829   87.9185   10.1050 C.ar    1  UNL1        0.0443
     11 C          61.3253   87.0748    9.3922 C.ar    1  UNL1        0.1457
     12 F          61.0329   87.3802    8.1025 F       1  UNL1       -0.2040
     13 N          63.4407   88.4914   12.1603 N.pl3   1  UNL1       -0.3040
     14 C          63.9051   89.7489   11.5564 C.3     1  UNL1        0.1122
     15 C          65.2959   90.1224   12.0784 C.3     1  UNL1        0.1122
     16 N          65.3468   90.0977   13.5487 N.pl3   1  UNL1       -0.3040
     17 C          64.2984   89.3999   14.3071 C.3     1  UNL1        0.1122
     18 C          63.8077   88.1637   13.5469 C.3     1  UNL1        0.1122
     19 C          66.3799   90.8329   14.2424 C.ar    1  UNL1        0.0488
     20 C          66.0573   91.6674   15.3278 C.ar    1  UNL1        0.0154
     21 C          67.0562   92.3763   15.9996 C.ar    1  UNL1        0.0135
     22 C          68.3918   92.2630   15.6025 C.ar    1  UNL1        0.0683
     23 CL         69.6199   93.1714   16.4736 Cl      1  UNL1       -0.0814
     24 C          68.7290   91.4310   14.5230 C.ar    1  UNL1        0.0694
     25 CL         70.3974   91.2545   13.9958 Cl      1  UNL1       -0.0813
     26 C          67.7272   90.7216   13.8500 C.ar    1  UNL1        0.0268
     27 C          59.5675   81.2553    8.8700 C.2     1  UNL1        0.2443
     28 O          59.3028   80.4406    7.9444 O.2     1  UNL1       -0.2730
     29 N          60.3693   80.8472    9.9898 N.am    1  UNL1       -0.2823
     30 H          60.6116   81.5547   10.7192 H       1  UNL1        0.1549
     31 C          60.9303   79.5311   10.1075 C.ar    1  UNL1        0.0597
     32 C          62.1324   79.2337    9.4487 C.ar    1  UNL1        0.0356
     33 C          62.6412   77.9371    9.4867 C.ar    1  UNL1        0.1002
     34 N          61.9708   76.9629   10.1514 N.ar    1  UNL1       -0.2420
     35 C          60.8025   77.2114   10.7987 C.ar    1  UNL1        0.1065
     36 C          60.2481   78.5038   10.8049 C.ar    1  UNL1        0.1080
     37 C          59.0004   78.7468   11.5713 C.2     1  UNL1        0.3408
     38 O          59.0413   79.1420   12.7675 O.2     1  UNL1       -0.2450
     39 O          57.7630   78.5043   10.9803 O.3     1  UNL1       -0.4770
     40 H          56.9028   78.6535   11.4942 H       1  UNL1        0.2954
     41 C          57.6464   82.7447    9.4207 C.3     1  UNL1        0.0569
     42 C          57.7320   82.7164   10.9194 C.ar    1  UNL1       -0.0017
     43 C          57.9344   81.5946   11.7182 C.ar    1  UNL1        0.0681
     44 N          58.0409   81.9536   13.0179 N.ar    1  UNL1       -0.3523
     45 C          57.9179   83.2920   13.0451 C.ar    1  UNL1        0.0563
     46 C          57.9806   84.1241   14.1620 C.ar    1  UNL1        0.0170
     47 C          57.8464   85.5098   13.9579 C.ar    1  UNL1        0.0015
     48 C          57.6582   86.0269   12.6568 C.ar    1  UNL1        0.0001
     49 C          57.6012   85.1633   11.5478 C.ar    1  UNL1        0.0012
     50 C          57.7325   83.7944   11.7824 C.ar    1  UNL1        0.0131
     51 H          58.2024   81.3179   13.8306 H       1  UNL1        0.1660
@<TRIPOS>BOND
     1     2     3    2
     2     3     4   am
     3     4     1    1
     4     1    41    1
     5    41    42    1
     6    42    43   ar
     7    43    44   ar
     8    44    45   ar
     9    45    46   ar
    10    46    47   ar
    11    47    48   ar
    12    48    49   ar
    13    49    50   ar
    14     1    27    1
    15    27    28    2
    16    27    29   am
    17    29    31    1
    18    31    32   ar
    19    32    33   ar
    20    33    34   ar
    21    34    35   ar
    22    35    36   ar
    23    36    37    1
    24    37    38    2
    25    37    39    1
    26     3     6    1
    27     6     7   ar
    28     7     8   ar
    29     8     9   ar
    30     9    13    1
    31    13    14    1
    32    14    15    1
    33    15    16    1
    34    16    19    1
    35    19    20   ar
    36    20    21   ar
    37    21    22   ar
    38    22    23    1
    39    22    24   ar
    40    24    25    1
    41    24    26   ar
    42    16    17    1
    43    17    18    1
    44     9    10   ar
    45    10    11   ar
    46    11    12    1
    47    50    42   ar
    48    36    31   ar
    49    11     6   ar
    50    50    45   ar
    51    18    13    1
    52    26    19   ar
    53     4     5    1
    54    44    51    1
    55    29    30    1
    56    39    40    1
@<TRIPOS>MOLECULE
*****
 51 56 0 0 0
SMALL
GASTEIGER

@<TRIPOS>ATOM
      1 C          58.9999   83.5315    8.8215 C.3     1  UNL1        0.1535
      2 O          59.6362   86.2106    8.1001 O.2     1  UNL1       -0.2701
      3 C          60.1885   85.7525    9.1378 C.2     1  UNL1        0.2483
      4 N          59.9507   84.3926    9.5324 N.am    1  UNL1       -0.2945
      5 H          60.5696   83.9675   10.2597 H       1  UNL1        0.1501
      6 C          61.1091   86.6146    9.9102 C.ar    1  UNL1        0.0808
      7 C          61.6035   87.7940    9.3314 C.ar    1  UNL1        0.0080
      8 C          62.4844   88.6168   10.0371 C.ar    1  UNL1        0.0148
      9 C          62.8842   88.2836   11.3431 C.ar    1  UNL1        0.0502
     10 C          62.3712   87.1131   11.9295 C.ar    1  UNL1        0.0443
     11 C          61.4913   86.2861   11.2243 C.ar    1  UNL1        0.1457
     12 F          60.9830   85.1926   11.8472 F       1  UNL1       -0.2040
     13 N          63.7937   89.1354   12.0755 N.pl3   1  UNL1       -0.3040
     14 C          64.3393   90.3478   11.4478 C.3     1  UNL1        0.1122
     15 C          65.7323   90.6667   11.9993 C.3     1  UNL1        0.1122
     16 N          65.7404   90.6863   13.4706 N.pl3   1  UNL1       -0.3040
     17 C          64.6363   90.0672   14.2183 C.3     1  UNL1        0.1122
     18 C          64.1040   88.8340   13.4818 C.3     1  UNL1        0.1122
     19 C          66.7901   91.3898   14.1721 C.ar    1  UNL1        0.0488
     20 C          66.7917   92.7951   14.2331 C.ar    1  UNL1        0.0154
     21 C          67.8052   93.4750   14.9131 C.ar    1  UNL1        0.0135
     22 C          68.8310   92.7658   15.5447 C.ar    1  UNL1        0.0683
     23 CL         70.0885   93.6580   16.3903 Cl      1  UNL1       -0.0814
     24 C          68.8404   91.3627   15.4950 C.ar    1  UNL1        0.0694
     25 CL         70.1082   90.4321   16.2820 Cl      1  UNL1       -0.0813
     26 C          67.8247   90.6824   14.8128 C.ar    1  UNL1        0.0268
     27 C          59.4693   82.1029    8.8737 C.2     1  UNL1        0.2443
     28 O          59.2763   81.3534    7.8778 O.2     1  UNL1       -0.2730
     29 N          60.1397   81.6016   10.0409 N.am    1  UNL1       -0.2823
     30 H          60.3273   82.2563   10.8331 H       1  UNL1        0.1549
     31 C          60.6460   80.2615   10.1332 C.ar    1  UNL1        0.0597
     32 C          59.7481   79.1960   10.2945 C.ar    1  UNL1        0.0356
     33 C          60.2330   77.9016   10.4700 C.ar    1  UNL1        0.1002
     34 N          61.5702   77.6739   10.4942 N.ar    1  UNL1       -0.2420
     35 C          62.4706   78.6801   10.3445 C.ar    1  UNL1        0.1065
     36 C          62.0391   80.0045   10.1515 C.ar    1  UNL1        0.1080
     37 C          63.0533   81.0664    9.9349 C.2     1  UNL1        0.3408
     38 O          64.2711   80.8603   10.1861 O.2     1  UNL1       -0.2450
     39 O          62.6588   82.3224    9.4809 O.3     1  UNL1       -0.4770
     40 H          63.3373   83.0614    9.3398 H       1  UNL1        0.2954
     41 C          57.5923   83.6450    9.4316 C.3     1  UNL1        0.0569
     42 C          57.6350   83.4920   10.9247 C.ar    1  UNL1       -0.0017
     43 C          57.6401   82.2959   11.6367 C.ar    1  UNL1        0.0681
     44 N          57.7687   82.5359   12.9616 N.ar    1  UNL1       -0.3523
     45 C          57.8550   83.8713   13.0907 C.ar    1  UNL1        0.0563
     46 C          58.0184   84.5976   14.2695 C.ar    1  UNL1        0.0170
     47 C          58.1067   85.9984   14.1717 C.ar    1  UNL1        0.0015
     48 C          58.0340   86.6342   12.9123 C.ar    1  UNL1        0.0001
     49 C          57.8710   85.8754   11.7390 C.ar    1  UNL1        0.0012
     50 C          57.7817   84.4892   11.8685 C.ar    1  UNL1        0.0131
     51 H          57.8090   81.8240   13.7246 H       1  UNL1        0.1660
@<TRIPOS>BOND
     1     2     3    2
     2     3     4   am
     3     4     1    1
     4     1    41    1
     5    41    42    1
     6    42    43   ar
     7    43    44   ar
     8    44    45   ar
     9    45    46   ar
    10    46    47   ar
    11    47    48   ar
    12    48    49   ar
    13    49    50   ar
    14     1    27    1
    15    27    28    2
    16    27    29   am
    17    29    31    1
    18    31    32   ar
    19    32    33   ar
    20    33    34   ar
    21    34    35   ar
    22    35    36   ar
    23    36    37    1
    24    37    38    2
    25    37    39    1
    26     3     6    1
    27     6     7   ar
    28     7     8   ar
    29     8     9   ar
    30     9    13    1
    31    13    14    1
    32    14    15    1
    33    15    16    1
    34    16    19    1
    35    19    20   ar
    36    20    21   ar
    37    21    22   ar
    38    22    23    1
    39    22    24   ar
    40    24    25    1
    41    24    26   ar
    42    16    17    1
    43    17    18    1
    44     9    10   ar
    45    10    11   ar
    46    11    12    1
    47    50    42   ar
    48    36    31   ar
    49    11     6   ar
    50    50    45   ar
    51    18    13    1
    52    26    19   ar
    53     4     5    1
    54    44    51    1
    55    29    30    1
    56    39    40    1
