@<TRIPOS>MOLECULE
*****
 37 41 0 0 0
SMALL
GASTEIGER

@<TRIPOS>ATOM
      1 C         -24.2517  -11.4298  -15.5112 C.2     1  UNL1        0.2490
      2 O         -25.1424  -11.8504  -16.2984 O.2     1  UNL1       -0.2699
      3 N         -22.9935  -12.1383  -15.3975 N.am    1  UNL1       -0.2698
      4 C         -21.7721  -11.3828  -15.0681 C.3     1  UNL1        0.1235
      5 C         -21.2447  -11.7882  -13.7199 C.ar    1  UNL1        0.0317
      6 C         -21.0822  -10.7940  -12.7370 C.ar    1  UNL1        0.0004
      7 C         -20.6153  -11.1121  -11.4522 C.ar    1  UNL1       -0.0000
      8 C         -20.2904  -12.4443  -11.1605 C.ar    1  UNL1        0.0031
      9 C         -20.4370  -13.4363  -12.1298 C.ar    1  UNL1        0.0366
     10 C         -20.9139  -13.1315  -13.4094 C.ar    1  UNL1        0.1362
     11 O         -21.0521  -14.2074  -14.3047 O.3     1  UNL1       -0.4739
     12 C         -21.4978  -14.1532  -15.6603 C.3     1  UNL1        0.2249
     13 C         -22.9215  -13.5682  -15.7816 C.3     1  UNL1        0.1196
     14 C         -23.8972  -14.4199  -14.9511 C.3     1  UNL1        0.0255
     15 C         -20.4764  -10.0560  -10.4171 C.ar    1  UNL1        0.0015
     16 C         -21.3439   -8.9275  -10.4191 C.ar    1  UNL1        0.0016
     17 C         -21.2234   -7.9221   -9.4421 C.ar    1  UNL1        0.0206
     18 C         -20.2301   -8.0696   -8.4804 C.ar    1  UNL1        0.0985
     19 N         -19.9367   -7.2378   -7.4649 N.ar    1  UNL1       -0.2241
     20 C         -18.8956   -7.8628   -6.8541 C.ar    1  UNL1        0.1750
     21 N         -18.5427   -9.0292   -7.4457 N.ar    1  UNL1       -0.3349
     22 C         -19.3961   -9.1442   -8.4698 C.ar    1  UNL1        0.0757
     23 C         -19.4807  -10.1623   -9.4157 C.ar    1  UNL1        0.0185
     24 H         -17.7802   -9.6849   -7.1647 H       1  UNL1        0.1675
     25 C         -24.0538   -8.9075  -15.2475 C.ar    1  UNL1       -0.0165
     26 C         -24.4057   -7.7486  -14.5344 C.ar    1  UNL1        0.0142
     27 C         -25.1792   -7.8271  -13.3722 C.ar    1  UNL1        0.1054
     28 C         -25.5965   -9.0754  -12.9019 C.ar    1  UNL1        0.0185
     29 C         -25.2518  -10.2371  -13.5934 C.ar    1  UNL1        0.0055
     30 C         -24.4990  -10.1695  -14.7759 C.ar    1  UNL1        0.0497
     31 S         -25.6513   -6.3533  -12.5341 S.O2    1  UNL1        0.0104
     32 C         -26.5148   -5.2890  -13.6669 C.3     1  UNL1        0.1816
     33 O         -26.5481   -6.6839  -11.3740 O.2     1  UNL1       -0.1686
     34 O         -24.4275   -5.6525  -12.0145 O.2     1  UNL1       -0.1686
     35 C         -23.1484   -8.7556  -16.4514 C.3     1  UNL1        0.0265
     36 C         -20.6785   -8.1339  -16.4116 C.3     1  UNL1        0.0004
     37 C         -22.1147   -7.6371  -16.2576 C.3     1  UNL1        0.0047
@<TRIPOS>BOND
     1    36    37    1
     2    37    35    1
     3    35    25    1
     4    25    26   ar
     5    26    27   ar
     6    27    31    1
     7    31    32    1
     8    31    33    2
     9    31    34    2
    10    27    28   ar
    11    28    29   ar
    12    29    30   ar
    13    30     1    1
    14     1     2    2
    15     1     3   am
    16     3     4    1
    17     4     5    1
    18     5     6   ar
    19     6     7   ar
    20     7    15    1
    21    15    16   ar
    22    16    17   ar
    23    17    18   ar
    24    18    19   ar
    25    19    20   ar
    26    20    21   ar
    27    21    22   ar
    28    22    23   ar
    29     7     8   ar
    30     8     9   ar
    31     9    10   ar
    32    10    11    1
    33    11    12    1
    34    12    13    1
    35    13    14    1
    36    30    25   ar
    37    13     3    1
    38    10     5   ar
    39    23    15   ar
    40    22    18   ar
    41    21    24    1
@<TRIPOS>MOLECULE
*****
 37 41 0 0 0
SMALL
GASTEIGER

@<TRIPOS>ATOM
      1 C         -24.5663   -8.6200  -13.6447 C.2     1  UNL1        0.2490
      2 O         -25.7042   -8.2252  -14.0180 O.2     1  UNL1       -0.2699
      3 N         -23.8981   -9.6850  -14.3639 N.am    1  UNL1       -0.2698
      4 C         -22.4255   -9.7040  -14.4123 C.3     1  UNL1        0.1235
      5 C         -21.8857  -10.8987  -13.6766 C.ar    1  UNL1        0.0317
      6 C         -20.9834  -10.6829  -12.6182 C.ar    1  UNL1        0.0004
      7 C         -20.4614  -11.7553  -11.8784 C.ar    1  UNL1       -0.0000
      8 C         -20.8383  -13.0614  -12.2214 C.ar    1  UNL1        0.0031
      9 C         -21.7233  -13.2882  -13.2752 C.ar    1  UNL1        0.0366
     10 C         -22.2592  -12.2252  -14.0104 C.ar    1  UNL1        0.1362
     11 O         -23.1640  -12.5583  -15.0343 O.3     1  UNL1       -0.4739
     12 C         -23.8270  -11.6634  -15.9280 C.3     1  UNL1        0.2249
     13 C         -24.6969  -10.6312  -15.1787 C.3     1  UNL1        0.1196
     14 C         -25.7386  -11.3679  -14.3189 C.3     1  UNL1        0.0255
     15 C         -19.5325  -11.5093  -10.7460 C.ar    1  UNL1        0.0015
     16 C         -19.5589  -10.2680  -10.0498 C.ar    1  UNL1        0.0016
     17 C         -18.6854  -10.0245   -8.9738 C.ar    1  UNL1        0.0206
     18 C         -17.7989  -11.0349   -8.6183 C.ar    1  UNL1        0.0985
     19 N         -16.8827  -11.0181   -7.6336 N.ar    1  UNL1       -0.2241
     20 C         -16.3059  -12.2446   -7.7371 C.ar    1  UNL1        0.1750
     21 N         -16.8242  -13.0036   -8.7323 N.ar    1  UNL1       -0.3349
     22 C         -17.7657  -12.2246   -9.2772 C.ar    1  UNL1        0.0757
     23 C         -18.6122  -12.5084  -10.3455 C.ar    1  UNL1        0.0185
     24 H         -16.5499  -13.9728   -9.0079 H       1  UNL1        0.1675
     25 C         -23.7078   -8.5359  -11.2516 C.ar    1  UNL1       -0.0165
     26 C         -23.0022   -7.8351  -10.2584 C.ar    1  UNL1        0.0142
     27 C         -22.5105   -6.5483  -10.4986 C.ar    1  UNL1        0.1054
     28 C         -22.7359   -5.9417  -11.7376 C.ar    1  UNL1        0.0185
     29 C         -23.4393   -6.6199  -12.7335 C.ar    1  UNL1        0.0055
     30 C         -23.9142   -7.9221  -12.5142 C.ar    1  UNL1        0.0497
     31 S         -21.5814   -5.7201   -9.2544 S.O2    1  UNL1        0.0104
     32 C         -20.5115   -4.5259  -10.0231 C.3     1  UNL1        0.1816
     33 O         -22.5070   -5.0217   -8.2979 O.2     1  UNL1       -0.1686
     34 O         -20.7584   -6.7179   -8.4891 O.2     1  UNL1       -0.1686
     35 C         -24.2802   -9.8917  -10.8963 C.3     1  UNL1        0.0265
     36 C         -25.6135  -10.5734   -8.8356 C.3     1  UNL1        0.0004
     37 C         -24.2517  -10.1507   -9.3832 C.3     1  UNL1        0.0047
@<TRIPOS>BOND
     1    36    37    1
     2    37    35    1
     3    35    25    1
     4    25    26   ar
     5    26    27   ar
     6    27    31    1
     7    31    32    1
     8    31    33    2
     9    31    34    2
    10    27    28   ar
    11    28    29   ar
    12    29    30   ar
    13    30     1    1
    14     1     2    2
    15     1     3   am
    16     3     4    1
    17     4     5    1
    18     5     6   ar
    19     6     7   ar
    20     7    15    1
    21    15    16   ar
    22    16    17   ar
    23    17    18   ar
    24    18    19   ar
    25    19    20   ar
    26    20    21   ar
    27    21    22   ar
    28    22    23   ar
    29     7     8   ar
    30     8     9   ar
    31     9    10   ar
    32    10    11    1
    33    11    12    1
    34    12    13    1
    35    13    14    1
    36    30    25   ar
    37    13     3    1
    38    10     5   ar
    39    23    15   ar
    40    22    18   ar
    41    21    24    1
@<TRIPOS>MOLECULE
*****
 37 41 0 0 0
SMALL
GASTEIGER

@<TRIPOS>ATOM
      1 C         -20.8008  -10.9245  -11.5084 C.2     1  UNL1        0.2490
      2 O         -20.0056  -11.7322  -10.9560 O.2     1  UNL1       -0.2699
      3 N         -20.4904   -9.5100  -11.5383 N.am    1  UNL1       -0.2698
      4 C         -20.9711   -8.6939  -12.6670 C.3     1  UNL1        0.1235
      5 C         -21.9797   -7.6821  -12.1987 C.ar    1  UNL1        0.0317
      6 C         -23.2584   -7.6885  -12.7868 C.ar    1  UNL1        0.0004
      7 C         -24.2507   -6.7842  -12.3776 C.ar    1  UNL1       -0.0000
      8 C         -23.9451   -5.8504  -11.3776 C.ar    1  UNL1        0.0031
      9 C         -22.6780   -5.8276  -10.7950 C.ar    1  UNL1        0.0366
     10 C         -21.6860   -6.7332  -11.1869 C.ar    1  UNL1        0.1362
     11 O         -20.4517   -6.6459  -10.5185 O.3     1  UNL1       -0.4739
     12 C         -19.2862   -7.4390  -10.7466 C.3     1  UNL1        0.2249
     13 C         -19.5565   -8.9444  -10.5357 C.3     1  UNL1        0.1196
     14 C         -20.0667   -9.1768   -9.1029 C.3     1  UNL1        0.0255
     15 C         -25.6042   -6.8224  -12.9881 C.ar    1  UNL1        0.0015
     16 C         -26.3589   -8.0292  -12.9908 C.ar    1  UNL1        0.0016
     17 C         -27.6432   -8.0767  -13.5638 C.ar    1  UNL1        0.0206
     18 C         -28.1449   -6.9081  -14.1260 C.ar    1  UNL1        0.0985
     19 N         -29.3358   -6.7272  -14.7245 N.ar    1  UNL1       -0.2241
     20 C         -29.2979   -5.4163  -15.0819 C.ar    1  UNL1        0.1750
     21 N         -28.1471   -4.7934  -14.7314 N.ar    1  UNL1       -0.3349
     22 C         -27.4316   -5.7498  -14.1285 C.ar    1  UNL1        0.0757
     23 C         -26.1589   -5.6573  -13.5718 C.ar    1  UNL1        0.0185
     24 H         -27.8828   -3.7966  -14.8955 H       1  UNL1        0.1675
     25 C         -23.3213  -11.1758  -11.7417 C.ar    1  UNL1       -0.0165
     26 C         -24.4108  -11.6593  -12.4864 C.ar    1  UNL1        0.0142
     27 C         -24.2103  -12.4221  -13.6410 C.ar    1  UNL1        0.1054
     28 C         -22.9093  -12.7228  -14.0542 C.ar    1  UNL1        0.0185
     29 C         -21.8156  -12.2563  -13.3242 C.ar    1  UNL1        0.0055
     30 C         -22.0033  -11.4670  -12.1791 C.ar    1  UNL1        0.0497
     31 S         -25.5944  -12.9642  -14.5831 S.O2    1  UNL1        0.0104
     32 C         -25.0834  -14.2767  -15.6684 C.3     1  UNL1        0.1816
     33 O         -26.6780  -13.4630  -13.6686 O.2     1  UNL1       -0.1686
     34 O         -26.1346  -11.8193  -15.3933 O.2     1  UNL1       -0.1686
     35 C         -23.6120  -10.4251  -10.4596 C.3     1  UNL1        0.0265
     36 C         -25.4322   -8.9293   -9.4908 C.3     1  UNL1        0.0004
     37 C         -25.1180  -10.2237  -10.2384 C.3     1  UNL1        0.0047
@<TRIPOS>BOND
     1    36    37    1
     2    37    35    1
     3    35    25    1
     4    25    26   ar
     5    26    27   ar
     6    27    31    1
     7    31    32    1
     8    31    33    2
     9    31    34    2
    10    27    28   ar
    11    28    29   ar
    12    29    30   ar
    13    30     1    1
    14     1     2    2
    15     1     3   am
    16     3     4    1
    17     4     5    1
    18     5     6   ar
    19     6     7   ar
    20     7    15    1
    21    15    16   ar
    22    16    17   ar
    23    17    18   ar
    24    18    19   ar
    25    19    20   ar
    26    20    21   ar
    27    21    22   ar
    28    22    23   ar
    29     7     8   ar
    30     8     9   ar
    31     9    10   ar
    32    10    11    1
    33    11    12    1
    34    12    13    1
    35    13    14    1
    36    30    25   ar
    37    13     3    1
    38    10     5   ar
    39    23    15   ar
    40    22    18   ar
    41    21    24    1
@<TRIPOS>MOLECULE
*****
 37 41 0 0 0
SMALL
GASTEIGER

@<TRIPOS>ATOM
      1 C         -23.9924   -8.8025  -10.8650 C.2     1  UNL1        0.2490
      2 O         -23.8854   -8.6275   -9.6209 O.2     1  UNL1       -0.2699
      3 N         -23.2880   -9.8942  -11.5053 N.am    1  UNL1       -0.2698
      4 C         -23.8716  -10.5187  -12.7055 C.3     1  UNL1        0.1235
      5 C         -23.0068  -10.2661  -13.9091 C.ar    1  UNL1        0.0317
      6 C         -23.5799   -9.6264  -15.0240 C.ar    1  UNL1        0.0004
      7 C         -22.8195   -9.3425  -16.1691 C.ar    1  UNL1       -0.0000
      8 C         -21.4710   -9.7247  -16.1982 C.ar    1  UNL1        0.0031
      9 C         -20.8949  -10.3689  -15.1035 C.ar    1  UNL1        0.0366
     10 C         -21.6411  -10.6448  -13.9524 C.ar    1  UNL1        0.1362
     11 O         -20.9601  -11.2720  -12.8937 O.3     1  UNL1       -0.4739
     12 C         -21.4998  -11.6696  -11.6328 C.3     1  UNL1        0.2249
     13 C         -22.0922  -10.4771  -10.8513 C.3     1  UNL1        0.1196
     14 C         -21.0005   -9.4150  -10.6337 C.3     1  UNL1        0.0255
     15 C         -23.4317   -8.6413  -17.3264 C.ar    1  UNL1        0.0015
     16 C         -23.7305   -7.2517  -17.2502 C.ar    1  UNL1        0.0016
     17 C         -24.3081   -6.5761  -18.3411 C.ar    1  UNL1        0.0206
     18 C         -24.5764   -7.3121  -19.4898 C.ar    1  UNL1        0.0985
     19 N         -25.1230   -6.8757  -20.6388 N.ar    1  UNL1       -0.2241
     20 C         -25.1541   -7.9989  -21.4039 C.ar    1  UNL1        0.1750
     21 N         -24.6551   -9.0926  -20.7793 N.ar    1  UNL1       -0.3349
     22 C         -24.2946   -8.6404  -19.5727 C.ar    1  UNL1        0.0757
     23 C         -23.7221   -9.3477  -18.5190 C.ar    1  UNL1        0.0185
     24 H         -24.5724  -10.0631  -21.1556 H       1  UNL1        0.1675
     25 C         -24.4451   -6.7931  -12.3577 C.ar    1  UNL1       -0.0165
     26 C         -25.3640   -6.0561  -13.1244 C.ar    1  UNL1        0.0142
     27 C         -26.7148   -6.4148  -13.1678 C.ar    1  UNL1        0.1054
     28 C         -27.1634   -7.5118  -12.4269 C.ar    1  UNL1        0.0185
     29 C         -26.2667   -8.2518  -11.6555 C.ar    1  UNL1        0.0055
     30 C         -24.9038   -7.9184  -11.6252 C.ar    1  UNL1        0.0497
     31 S         -27.8294   -5.5063  -14.1825 S.O2    1  UNL1        0.0104
     32 C         -26.9282   -4.7757  -15.5301 C.3     1  UNL1        0.1816
     33 O         -28.8928   -6.4186  -14.7267 O.2     1  UNL1       -0.1686
     34 O         -28.4879   -4.4268  -13.3702 O.2     1  UNL1       -0.1686
     35 C         -23.0148   -6.3012  -12.2934 C.3     1  UNL1        0.0265
     36 C         -21.7728   -5.3737  -10.2720 C.3     1  UNL1        0.0004
     37 C         -22.8536   -5.1233  -11.3219 C.3     1  UNL1        0.0047
@<TRIPOS>BOND
     1    36    37    1
     2    37    35    1
     3    35    25    1
     4    25    26   ar
     5    26    27   ar
     6    27    31    1
     7    31    32    1
     8    31    33    2
     9    31    34    2
    10    27    28   ar
    11    28    29   ar
    12    29    30   ar
    13    30     1    1
    14     1     2    2
    15     1     3   am
    16     3     4    1
    17     4     5    1
    18     5     6   ar
    19     6     7   ar
    20     7    15    1
    21    15    16   ar
    22    16    17   ar
    23    17    18   ar
    24    18    19   ar
    25    19    20   ar
    26    20    21   ar
    27    21    22   ar
    28    22    23   ar
    29     7     8   ar
    30     8     9   ar
    31     9    10   ar
    32    10    11    1
    33    11    12    1
    34    12    13    1
    35    13    14    1
    36    30    25   ar
    37    13     3    1
    38    10     5   ar
    39    23    15   ar
    40    22    18   ar
    41    21    24    1
@<TRIPOS>MOLECULE
*****
 37 41 0 0 0
SMALL
GASTEIGER

@<TRIPOS>ATOM
      1 C         -23.4105   -9.7191  -11.1124 C.2     1  UNL1        0.2490
      2 O         -23.1653   -9.7363   -9.8756 O.2     1  UNL1       -0.2699
      3 N         -22.8700  -10.7524  -11.9715 N.am    1  UNL1       -0.2698
      4 C         -23.6220  -11.1512  -13.1742 C.3     1  UNL1        0.1235
      5 C         -22.8630  -10.7870  -14.4198 C.ar    1  UNL1        0.0317
      6 C         -23.4872   -9.9519  -15.3651 C.ar    1  UNL1        0.0004
      7 C         -22.8232   -9.5579  -16.5372 C.ar    1  UNL1       -0.0000
      8 C         -21.5222  -10.0264  -16.7683 C.ar    1  UNL1        0.0031
      9 C         -20.8974  -10.8632  -15.8439 C.ar    1  UNL1        0.0366
     10 C         -21.5461  -11.2511  -14.6663 C.ar    1  UNL1        0.1362
     11 O         -20.8194  -12.0734  -13.7866 O.3     1  UNL1       -0.4739
     12 C         -21.2629  -12.6122  -12.5407 C.3     1  UNL1        0.2249
     13 C         -21.6696  -11.5081  -11.5411 C.3     1  UNL1        0.1196
     14 C         -20.4744  -10.5695  -11.3013 C.3     1  UNL1        0.0255
     15 C         -23.4850   -8.6530  -17.5114 C.ar    1  UNL1        0.0015
     16 C         -23.7799   -9.1050  -18.8285 C.ar    1  UNL1        0.0016
     17 C         -24.4090   -8.2576  -19.7591 C.ar    1  UNL1        0.0206
     18 C         -24.7289   -6.9685  -19.3478 C.ar    1  UNL1        0.0985
     19 N         -25.3246   -5.9990  -20.0652 N.ar    1  UNL1       -0.2241
     20 C         -25.3872   -4.9664  -19.1834 C.ar    1  UNL1        0.1750
     21 N         -24.8611   -5.2591  -17.9698 N.ar    1  UNL1       -0.3349
     22 C         -24.4513   -6.5270  -18.0914 C.ar    1  UNL1        0.0757
     23 C         -23.8318   -7.3314  -17.1389 C.ar    1  UNL1        0.0185
     24 H         -24.7929   -4.6364  -17.1342 H       1  UNL1        0.1675
     25 C         -23.8391   -7.5283  -12.3321 C.ar    1  UNL1       -0.0165
     26 C         -24.7680   -6.6240  -12.8750 C.ar    1  UNL1        0.0142
     27 C         -26.1431   -6.8347  -12.7338 C.ar    1  UNL1        0.1054
     28 C         -26.6032   -7.9511  -12.0298 C.ar    1  UNL1        0.0185
     29 C         -25.6957   -8.8565  -11.4790 C.ar    1  UNL1        0.0055
     30 C         -24.3138   -8.6708  -11.6372 C.ar    1  UNL1        0.0497
     31 S         -27.2807   -5.7146  -13.4744 S.O2    1  UNL1        0.0104
     32 C         -26.5074   -4.9388  -14.8751 C.3     1  UNL1        0.1816
     33 O         -28.5111   -6.4510  -13.9250 O.2     1  UNL1       -0.1686
     34 O         -27.6832   -4.6673  -12.4744 O.2     1  UNL1       -0.1686
     35 C         -22.3671   -7.1962  -12.4537 C.3     1  UNL1        0.0265
     36 C         -21.7157   -6.2426  -10.1832 C.3     1  UNL1        0.0004
     37 C         -21.9917   -5.9400  -11.6547 C.3     1  UNL1        0.0047
@<TRIPOS>BOND
     1    36    37    1
     2    37    35    1
     3    35    25    1
     4    25    26   ar
     5    26    27   ar
     6    27    31    1
     7    31    32    1
     8    31    33    2
     9    31    34    2
    10    27    28   ar
    11    28    29   ar
    12    29    30   ar
    13    30     1    1
    14     1     2    2
    15     1     3   am
    16     3     4    1
    17     4     5    1
    18     5     6   ar
    19     6     7   ar
    20     7    15    1
    21    15    16   ar
    22    16    17   ar
    23    17    18   ar
    24    18    19   ar
    25    19    20   ar
    26    20    21   ar
    27    21    22   ar
    28    22    23   ar
    29     7     8   ar
    30     8     9   ar
    31     9    10   ar
    32    10    11    1
    33    11    12    1
    34    12    13    1
    35    13    14    1
    36    30    25   ar
    37    13     3    1
    38    10     5   ar
    39    23    15   ar
    40    22    18   ar
    41    21    24    1
@<TRIPOS>MOLECULE
*****
 37 41 0 0 0
SMALL
GASTEIGER

@<TRIPOS>ATOM
      1 C         -25.6488   -9.3854  -13.5252 C.2     1  UNL1        0.2490
      2 O         -26.5027   -8.8837  -14.3056 O.2     1  UNL1       -0.2699
      3 N         -25.6284   -8.9982  -12.1296 N.am    1  UNL1       -0.2698
      4 C         -25.1713   -9.9711  -11.1219 C.3     1  UNL1        0.1235
      5 C         -23.8942   -9.5079  -10.4779 C.ar    1  UNL1        0.0317
      6 C         -22.7687  -10.3507  -10.5387 C.ar    1  UNL1        0.0004
      7 C         -21.5417   -9.9659   -9.9763 C.ar    1  UNL1       -0.0000
      8 C         -21.4531   -8.7256   -9.3287 C.ar    1  UNL1        0.0031
      9 C         -22.5646   -7.8866   -9.2528 C.ar    1  UNL1        0.0366
     10 C         -23.7887   -8.2555   -9.8215 C.ar    1  UNL1        0.1362
     11 O         -24.8397   -7.3271   -9.7151 O.3     1  UNL1       -0.4739
     12 C         -26.1768   -7.4751  -10.1943 C.3     1  UNL1        0.2249
     13 C         -26.2258   -7.7048  -11.7203 C.3     1  UNL1        0.1196
     14 C         -25.5483   -6.5242  -12.4374 C.3     1  UNL1        0.0255
     15 C         -20.3555  -10.8543  -10.0737 C.ar    1  UNL1        0.0015
     16 C         -20.3985  -12.0269  -10.8793 C.ar    1  UNL1        0.0016
     17 C         -19.2801  -12.8747  -10.9813 C.ar    1  UNL1        0.0206
     18 C         -18.1377  -12.5278  -10.2687 C.ar    1  UNL1        0.0985
     19 N         -16.9664  -13.1872  -10.2182 N.ar    1  UNL1       -0.2241
     20 C         -16.2210  -12.4149   -9.3842 C.ar    1  UNL1        0.1750
     21 N         -16.8786  -11.3224   -8.9268 N.ar    1  UNL1       -0.3349
     22 C         -18.0865  -11.4094   -9.4959 C.ar    1  UNL1        0.0757
     23 C         -19.1681  -10.5424   -9.3676 C.ar    1  UNL1        0.0185
     24 H         -16.5221  -10.5845   -8.2796 H       1  UNL1        0.1675
     25 C         -23.3813  -10.1475  -14.3904 C.ar    1  UNL1       -0.0165
     26 C         -22.5531  -11.2052  -14.8035 C.ar    1  UNL1        0.0142
     27 C         -23.0449  -12.5112  -14.8908 C.ar    1  UNL1        0.1054
     28 C         -24.3827  -12.7690  -14.5785 C.ar    1  UNL1        0.0185
     29 C         -25.2212  -11.7305  -14.1722 C.ar    1  UNL1        0.0055
     30 C         -24.7326  -10.4202  -14.0544 C.ar    1  UNL1        0.0497
     31 S         -21.9676  -13.8228  -15.3560 S.O2    1  UNL1        0.0104
     32 C         -22.8473  -15.3646  -15.2531 C.3     1  UNL1        0.1816
     33 O         -21.4805  -13.6164  -16.7630 O.2     1  UNL1       -0.1686
     34 O         -20.7815  -13.8546  -14.4336 O.2     1  UNL1       -0.1686
     35 C         -22.8048   -8.7476  -14.3955 C.3     1  UNL1        0.0265
     36 C         -21.4338   -7.3462  -12.7691 C.3     1  UNL1        0.0004
     37 C         -21.5205   -8.6502  -13.5597 C.3     1  UNL1        0.0047
@<TRIPOS>BOND
     1    36    37    1
     2    37    35    1
     3    35    25    1
     4    25    26   ar
     5    26    27   ar
     6    27    31    1
     7    31    32    1
     8    31    33    2
     9    31    34    2
    10    27    28   ar
    11    28    29   ar
    12    29    30   ar
    13    30     1    1
    14     1     2    2
    15     1     3   am
    16     3     4    1
    17     4     5    1
    18     5     6   ar
    19     6     7   ar
    20     7    15    1
    21    15    16   ar
    22    16    17   ar
    23    17    18   ar
    24    18    19   ar
    25    19    20   ar
    26    20    21   ar
    27    21    22   ar
    28    22    23   ar
    29     7     8   ar
    30     8     9   ar
    31     9    10   ar
    32    10    11    1
    33    11    12    1
    34    12    13    1
    35    13    14    1
    36    30    25   ar
    37    13     3    1
    38    10     5   ar
    39    23    15   ar
    40    22    18   ar
    41    21    24    1
@<TRIPOS>MOLECULE
*****
 37 41 0 0 0
SMALL
GASTEIGER

@<TRIPOS>ATOM
      1 C         -21.2995  -11.0432  -10.7627 C.2     1  UNL1        0.2490
      2 O         -21.2106  -11.6849   -9.6809 O.2     1  UNL1       -0.2699
      3 N         -21.0769   -9.6120  -10.7753 N.am    1  UNL1       -0.2698
      4 C         -20.5222   -8.9830  -11.9868 C.3     1  UNL1        0.1235
      5 C         -21.5296   -8.0604  -12.6144 C.ar    1  UNL1        0.0317
      6 C         -21.9022   -8.2854  -13.9529 C.ar    1  UNL1        0.0004
      7 C         -22.8540   -7.4730  -14.5885 C.ar    1  UNL1       -0.0000
      8 C         -23.4228   -6.4099  -13.8731 C.ar    1  UNL1        0.0031
      9 C         -23.0534   -6.1706  -12.5496 C.ar    1  UNL1        0.0366
     10 C         -22.1151   -6.9826  -11.9030 C.ar    1  UNL1        0.1362
     11 O         -21.8325   -6.6748  -10.5601 O.3     1  UNL1       -0.4739
     12 C         -20.9080   -7.3374   -9.6967 C.3     1  UNL1        0.2249
     13 C         -21.2434   -8.8345   -9.5242 C.3     1  UNL1        0.1196
     14 C         -22.6684   -8.9782   -8.9622 C.3     1  UNL1        0.0255
     15 C         -23.2576   -7.7410  -15.9925 C.ar    1  UNL1        0.0015
     16 C         -23.0236   -9.0173  -16.5777 C.ar    1  UNL1        0.0016
     17 C         -23.4040   -9.2836  -17.9060 C.ar    1  UNL1        0.0206
     18 C         -24.0122   -8.2592  -18.6230 C.ar    1  UNL1        0.0985
     19 N         -24.4502   -8.2911  -19.8944 N.ar    1  UNL1       -0.2241
     20 C         -24.9454   -7.0380  -20.0744 C.ar    1  UNL1        0.1750
     21 N         -24.8306   -6.2487  -18.9794 N.ar    1  UNL1       -0.3349
     22 C         -24.2402   -7.0361  -18.0729 C.ar    1  UNL1        0.0757
     23 C         -23.8819   -6.7298  -16.7629 C.ar    1  UNL1        0.0185
     24 H         -25.1341   -5.2555  -18.8712 H       1  UNL1        0.1675
     25 C         -22.7637  -11.6622  -12.7486 C.ar    1  UNL1       -0.0165
     26 C         -22.8964  -12.3468  -13.9688 C.ar    1  UNL1        0.0142
     27 C         -21.8649  -13.1561  -14.4548 C.ar    1  UNL1        0.1054
     28 C         -20.6902  -13.3005  -13.7112 C.ar    1  UNL1        0.0185
     29 C         -20.5429  -12.6331  -12.4949 C.ar    1  UNL1        0.0055
     30 C         -21.5598  -11.7966  -12.0096 C.ar    1  UNL1        0.0497
     31 S         -22.0391  -13.9543  -16.0135 S.O2    1  UNL1        0.0104
     32 C         -23.1452  -15.3358  -15.8411 C.3     1  UNL1        0.1816
     33 O         -22.5926  -12.9924  -17.0272 O.2     1  UNL1       -0.1686
     34 O         -20.6971  -14.4370  -16.4876 O.2     1  UNL1       -0.1686
     35 C         -23.9501  -10.8681  -12.2447 C.3     1  UNL1        0.0265
     36 C         -25.6802   -9.1770  -13.0418 C.3     1  UNL1        0.0004
     37 C         -24.8772  -10.4295  -13.3872 C.3     1  UNL1        0.0047
@<TRIPOS>BOND
     1    36    37    1
     2    37    35    1
     3    35    25    1
     4    25    26   ar
     5    26    27   ar
     6    27    31    1
     7    31    32    1
     8    31    33    2
     9    31    34    2
    10    27    28   ar
    11    28    29   ar
    12    29    30   ar
    13    30     1    1
    14     1     2    2
    15     1     3   am
    16     3     4    1
    17     4     5    1
    18     5     6   ar
    19     6     7   ar
    20     7    15    1
    21    15    16   ar
    22    16    17   ar
    23    17    18   ar
    24    18    19   ar
    25    19    20   ar
    26    20    21   ar
    27    21    22   ar
    28    22    23   ar
    29     7     8   ar
    30     8     9   ar
    31     9    10   ar
    32    10    11    1
    33    11    12    1
    34    12    13    1
    35    13    14    1
    36    30    25   ar
    37    13     3    1
    38    10     5   ar
    39    23    15   ar
    40    22    18   ar
    41    21    24    1
@<TRIPOS>MOLECULE
*****
 37 41 0 0 0
SMALL
GASTEIGER

@<TRIPOS>ATOM
      1 C         -21.9019   -7.3043  -10.5436 C.2     1  UNL1        0.2490
      2 O         -21.4639   -6.1611  -10.2414 O.2     1  UNL1       -0.2699
      3 N         -21.2003   -8.4896  -10.0955 N.am    1  UNL1       -0.2698
      4 C         -21.9662   -9.7213   -9.8358 C.3     1  UNL1        0.1235
      5 C         -21.5871  -10.7981  -10.8140 C.ar    1  UNL1        0.0317
      6 C         -22.5994  -11.3697  -11.6073 C.ar    1  UNL1        0.0004
      7 C         -22.3062  -12.3633  -12.5544 C.ar    1  UNL1       -0.0000
      8 C         -20.9807  -12.7991  -12.6902 C.ar    1  UNL1        0.0031
      9 C         -19.9708  -12.2477  -11.9020 C.ar    1  UNL1        0.0366
     10 C         -20.2508  -11.2477  -10.9641 C.ar    1  UNL1        0.1362
     11 O         -19.1584  -10.7378  -10.2397 O.3     1  UNL1       -0.4739
     12 C         -19.1865   -9.7348   -9.2236 C.3     1  UNL1        0.2249
     13 C         -19.7640   -8.3993   -9.7403 C.3     1  UNL1        0.1196
     14 C         -18.9237   -7.9049  -10.9305 C.3     1  UNL1        0.0255
     15 C         -23.3812  -12.9362  -13.4040 C.ar    1  UNL1        0.0015
     16 C         -24.7290  -12.5061  -13.2473 C.ar    1  UNL1        0.0016
     17 C         -25.7554  -13.0399  -14.0483 C.ar    1  UNL1        0.0206
     18 C         -25.4071  -13.9992  -14.9925 C.ar    1  UNL1        0.0985
     19 N         -26.2178  -14.6393  -15.8541 N.ar    1  UNL1       -0.2241
     20 C         -25.3613  -15.4529  -16.5266 C.ar    1  UNL1        0.1750
     21 N         -24.0746  -15.3395  -16.1182 N.ar    1  UNL1       -0.3349
     22 C         -24.1221  -14.4171  -15.1500 C.ar    1  UNL1        0.0757
     23 C         -23.0759  -13.9151  -14.3809 C.ar    1  UNL1        0.0185
     24 H         -23.2406  -15.8545  -16.4780 H       1  UNL1        0.1675
     25 C         -23.2360   -7.8088  -12.6498 C.ar    1  UNL1       -0.0165
     26 C         -24.4921   -7.9534  -13.2635 C.ar    1  UNL1        0.0142
     27 C         -25.6709   -7.6914  -12.5585 C.ar    1  UNL1        0.1054
     28 C         -25.6017   -7.2645  -11.2294 C.ar    1  UNL1        0.0185
     29 C         -24.3634   -7.1098  -10.6055 C.ar    1  UNL1        0.0055
     30 C         -23.1743   -7.3957  -11.2938 C.ar    1  UNL1        0.0497
     31 S         -27.2297   -7.9372  -13.3377 S.O2    1  UNL1        0.0104
     32 C         -27.6624   -6.4744  -14.2512 C.3     1  UNL1        0.1816
     33 O         -27.1594   -9.1108  -14.2742 O.2     1  UNL1       -0.1686
     34 O         -28.2781   -8.2119  -12.2964 O.2     1  UNL1       -0.1686
     35 C         -22.0003   -8.0320  -13.4954 C.3     1  UNL1        0.0265
     36 C         -21.4939   -8.7508  -15.8862 C.3     1  UNL1        0.0004
     37 C         -22.2337   -9.0815  -14.5914 C.3     1  UNL1        0.0047
@<TRIPOS>BOND
     1    36    37    1
     2    37    35    1
     3    35    25    1
     4    25    26   ar
     5    26    27   ar
     6    27    31    1
     7    31    32    1
     8    31    33    2
     9    31    34    2
    10    27    28   ar
    11    28    29   ar
    12    29    30   ar
    13    30     1    1
    14     1     2    2
    15     1     3   am
    16     3     4    1
    17     4     5    1
    18     5     6   ar
    19     6     7   ar
    20     7    15    1
    21    15    16   ar
    22    16    17   ar
    23    17    18   ar
    24    18    19   ar
    25    19    20   ar
    26    20    21   ar
    27    21    22   ar
    28    22    23   ar
    29     7     8   ar
    30     8     9   ar
    31     9    10   ar
    32    10    11    1
    33    11    12    1
    34    12    13    1
    35    13    14    1
    36    30    25   ar
    37    13     3    1
    38    10     5   ar
    39    23    15   ar
    40    22    18   ar
    41    21    24    1
