@<TRIPOS>MOLECULE
*****
 47 53 0 0 0
SMALL
GASTEIGER

@<TRIPOS>ATOM
      1 N          63.3751   87.1209   13.4185 N.am    1  UNL1       -0.0905
      2 C          64.1699   87.3622   14.5173 C.2     1  UNL1        0.4229
      3 O          64.3991   86.4524   15.3625 O.2     1  UNL1       -0.2135
      4 C          64.7086   88.6255   14.7465 C.2     1  UNL1        0.1157
      5 C          64.3882   89.6723   13.8994 C.2     1  UNL1        0.0173
      6 C          63.5998   89.4389   12.7728 C.ar    1  UNL1        0.0828
      7 C          63.2200   90.5125   11.9624 C.ar    1  UNL1        0.1047
      8 N          62.4539   90.3042   10.8680 N.ar    1  UNL1       -0.2434
      9 C          62.0901   89.0607   10.4707 C.ar    1  UNL1        0.0870
     10 C          61.3413   88.9201    9.2981 C.ar    1  UNL1        0.0193
     11 C          61.0329   87.6545    8.8050 C.ar    1  UNL1        0.0016
     12 C          61.5286   86.5090    9.4414 C.ar    1  UNL1        0.0018
     13 C          62.3030   86.6556   10.6059 C.ar    1  UNL1        0.0075
     14 C          62.5034   87.9196   11.2080 C.ar    1  UNL1        0.0810
     15 C          63.1666   88.1193   12.4696 C.ar    1  UNL1        0.2297
     16 C          61.2123   85.1549    8.9161 C.ar    1  UNL1        0.0192
     17 C          62.1450   84.4608    8.1252 C.ar    1  UNL1        0.0988
     18 N          61.8247   83.2607    7.5733 N.ar    1  UNL1       -0.2438
     19 C          60.6098   82.6834    7.7659 C.ar    1  UNL1        0.0810
     20 C          60.3031   81.4691    7.1429 C.ar    1  UNL1        0.0148
     21 C          59.0374   80.8854    7.3154 C.ar    1  UNL1       -0.0207
     22 C          58.0815   81.5302    8.1174 C.ar    1  UNL1       -0.0042
     23 C          58.3862   82.7390    8.7490 C.ar    1  UNL1        0.0012
     24 C          59.6451   83.3276    8.5681 C.ar    1  UNL1        0.0177
     25 C          59.9575   84.5640    9.1453 C.ar    1  UNL1        0.0030
     26 C          58.6827   79.6164    6.5885 C.3     1  UNL1        0.0264
     27 C          57.3920   79.7937    5.7954 C.3     1  UNL1        0.0050
     28 C          61.2524   83.4430   13.1804 C.ar    1  UNL1        0.0522
     29 C          60.6322   84.6470   12.8194 C.ar    1  UNL1        0.0206
     30 C          61.3095   85.8587   12.9436 C.ar    1  UNL1        0.0703
     31 C          62.6288   85.8834   13.4139 C.ar    1  UNL1        0.2271
     32 C          63.2346   84.6874   13.8340 C.ar    1  UNL1        0.0742
     33 C          62.5545   83.4585   13.7367 C.ar    1  UNL1        0.0906
     34 C          58.6924   78.4609   12.1495 C.2     1  UNL1        0.2257
     35 O          58.4697   77.7400   13.1602 O.2     1  UNL1       -0.2749
     36 N          59.2460   79.7803   12.3276 N.am    1  UNL1       -0.2760
     37 C          60.0371   80.4207   11.2666 C.3     1  UNL1        0.1148
     38 C          61.1143   81.3330   11.8621 C.3     1  UNL1        0.1123
     39 N          60.5726   82.2097   12.9067 N.pl3   1  UNL1       -0.3041
     40 C          59.2152   82.0129   13.4179 C.3     1  UNL1        0.1123
     41 C          58.9135   80.5176   13.5562 C.3     1  UNL1        0.1148
     42 C          57.4784   79.0095   10.0448 C.3     1  UNL1        0.0101
     43 C          58.2773   77.9500   10.7953 C.3     1  UNL1        0.0853
     44 C          63.2674   82.1805   14.1239 C.3     1  UNL1        0.4199
     45 F          62.4458   81.3636   14.8818 F       1  UNL1       -0.1658
     46 F          63.6468   81.4688   13.0011 F       1  UNL1       -0.1658
     47 F          64.3897   82.4895   14.8672 F       1  UNL1       -0.1658
@<TRIPOS>BOND
     1    42    43    1
     2    43    34    1
     3    34    35    2
     4    34    36   am
     5    36    37    1
     6    37    38    1
     7    38    39    1
     8    39    28    1
     9    28    29   ar
    10    29    30   ar
    11    30    31   ar
    12    31     1    1
    13     1     2    1
    14     2     3    2
    15     2     4    1
    16     4     5    2
    17     5     6    1
    18     6     7   ar
    19     7     8   ar
    20     8     9   ar
    21     9    10   ar
    22    10    11   ar
    23    11    12   ar
    24    12    16    1
    25    16    17   ar
    26    17    18   ar
    27    18    19   ar
    28    19    20   ar
    29    20    21   ar
    30    21    26    1
    31    26    27    1
    32    21    22   ar
    33    22    23   ar
    34    23    24   ar
    35    24    25   ar
    36    12    13   ar
    37    13    14   ar
    38    14    15   ar
    39    31    32   ar
    40    32    33   ar
    41    33    44    1
    42    44    45    1
    43    44    46    1
    44    44    47    1
    45    39    40    1
    46    40    41    1
    47    41    36    1
    48    33    28   ar
    49    15     1    1
    50    15     6   ar
    51    14     9   ar
    52    25    16   ar
    53    24    19   ar
@<TRIPOS>MOLECULE
*****
 47 53 0 0 0
SMALL
GASTEIGER

@<TRIPOS>ATOM
      1 N          61.1071   80.6916   10.6830 N.am    1  UNL1       -0.0905
      2 C          61.1137   79.4630   10.0603 C.2     1  UNL1        0.4229
      3 O          61.0683   79.3753    8.8014 O.2     1  UNL1       -0.2135
      4 C          61.1301   78.2853   10.8028 C.2     1  UNL1        0.1157
      5 C          61.0699   78.3440   12.1845 C.2     1  UNL1        0.0173
      6 C          61.0812   79.5808   12.8290 C.ar    1  UNL1        0.0828
      7 C          60.9467   79.6352   14.2192 C.ar    1  UNL1        0.1047
      8 N          60.9533   80.8259   14.8598 N.ar    1  UNL1       -0.2434
      9 C          61.1636   81.9937   14.2050 C.ar    1  UNL1        0.0870
     10 C          61.2096   83.1808   14.9426 C.ar    1  UNL1        0.0193
     11 C          61.5210   84.3871   14.3199 C.ar    1  UNL1        0.0016
     12 C          61.8592   84.4130   12.9605 C.ar    1  UNL1        0.0018
     13 C          61.8369   83.2129   12.2281 C.ar    1  UNL1        0.0075
     14 C          61.3801   82.0034   12.8016 C.ar    1  UNL1        0.0810
     15 C          61.2032   80.7766   12.0701 C.ar    1  UNL1        0.2297
     16 C          62.2023   85.6947   12.2905 C.ar    1  UNL1        0.0192
     17 C          61.9674   85.8656   10.9146 C.ar    1  UNL1        0.0988
     18 N          62.3590   87.0041   10.2837 N.ar    1  UNL1       -0.2438
     19 C          62.9779   88.0158   10.9469 C.ar    1  UNL1        0.0810
     20 C          63.4064   89.1518   10.2520 C.ar    1  UNL1        0.0148
     21 C          64.0737   90.1854   10.9293 C.ar    1  UNL1       -0.0207
     22 C          64.3083   90.0700   12.3093 C.ar    1  UNL1       -0.0042
     23 C          63.8744   88.9410   13.0095 C.ar    1  UNL1        0.0012
     24 C          63.2185   87.9042   12.3321 C.ar    1  UNL1        0.0177
     25 C          62.8215   86.7392   12.9989 C.ar    1  UNL1        0.0030
     26 C          64.5977   91.3743   10.1699 C.3     1  UNL1        0.0264
     27 C          66.0926   91.5524   10.4147 C.3     1  UNL1        0.0050
     28 C          60.2297   84.2029    8.4489 C.ar    1  UNL1        0.0522
     29 C          59.2088   83.5079    9.1119 C.ar    1  UNL1        0.0206
     30 C          59.4861   82.3299    9.8032 C.ar    1  UNL1        0.0703
     31 C          60.7963   81.8375    9.8590 C.ar    1  UNL1        0.2271
     32 C          61.8125   82.4963    9.1468 C.ar    1  UNL1        0.0742
     33 C          61.5431   83.6743    8.4243 C.ar    1  UNL1        0.0906
     34 C          58.8992   89.2014    6.0651 C.2     1  UNL1        0.2257
     35 O          57.7833   89.6867    6.3969 O.2     1  UNL1       -0.2749
     36 N          59.3610   87.9895    6.6951 N.am    1  UNL1       -0.2760
     37 C          60.2970   87.0868    6.0091 C.3     1  UNL1        0.1148
     38 C          60.0490   85.6303    6.4144 C.3     1  UNL1        0.1123
     39 N          59.9283   85.4800    7.8691 N.pl3   1  UNL1       -0.3041
     40 C          59.8363   86.6553    8.7368 C.3     1  UNL1        0.1123
     41 C          58.9571   87.7267    8.0850 C.3     1  UNL1        0.1148
     42 C          58.9687   91.1180    4.4756 C.3     1  UNL1        0.0101
     43 C          59.7547   89.9648    5.0892 C.3     1  UNL1        0.0853
     44 C          62.6783   84.4009    7.7351 C.3     1  UNL1        0.4199
     45 F          62.5491   85.7720    7.8772 F       1  UNL1       -0.1658
     46 F          63.8970   84.0358    8.2759 F       1  UNL1       -0.1658
     47 F          62.6679   84.0936    6.3886 F       1  UNL1       -0.1658
@<TRIPOS>BOND
     1    42    43    1
     2    43    34    1
     3    34    35    2
     4    34    36   am
     5    36    37    1
     6    37    38    1
     7    38    39    1
     8    39    28    1
     9    28    29   ar
    10    29    30   ar
    11    30    31   ar
    12    31     1    1
    13     1     2    1
    14     2     3    2
    15     2     4    1
    16     4     5    2
    17     5     6    1
    18     6     7   ar
    19     7     8   ar
    20     8     9   ar
    21     9    10   ar
    22    10    11   ar
    23    11    12   ar
    24    12    16    1
    25    16    17   ar
    26    17    18   ar
    27    18    19   ar
    28    19    20   ar
    29    20    21   ar
    30    21    26    1
    31    26    27    1
    32    21    22   ar
    33    22    23   ar
    34    23    24   ar
    35    24    25   ar
    36    12    13   ar
    37    13    14   ar
    38    14    15   ar
    39    31    32   ar
    40    32    33   ar
    41    33    44    1
    42    44    45    1
    43    44    46    1
    44    44    47    1
    45    39    40    1
    46    40    41    1
    47    41    36    1
    48    33    28   ar
    49    15     1    1
    50    15     6   ar
    51    14     9   ar
    52    25    16   ar
    53    24    19   ar
@<TRIPOS>MOLECULE
*****
 47 53 0 0 0
SMALL
GASTEIGER

@<TRIPOS>ATOM
      1 N          61.2464   80.7373   10.5335 N.am    1  UNL1       -0.0905
      2 C          61.1777   79.7051    9.6240 C.2     1  UNL1        0.4229
      3 O          61.0508   79.9379    8.3894 O.2     1  UNL1       -0.2135
      4 C          61.2059   78.3783   10.0450 C.2     1  UNL1        0.1157
      5 C          61.2342   78.0879   11.3981 C.2     1  UNL1        0.0173
      6 C          61.3224   79.1223   12.3295 C.ar    1  UNL1        0.0828
      7 C          61.2770   78.8265   13.6949 C.ar    1  UNL1        0.1047
      8 N          61.3589   79.8173   14.6112 N.ar    1  UNL1       -0.2434
      9 C          61.5621   81.1095   14.2570 C.ar    1  UNL1        0.0870
     10 C          61.6892   82.0719   15.2636 C.ar    1  UNL1        0.0193
     11 C          61.9964   83.3922   14.9431 C.ar    1  UNL1        0.0016
     12 C          62.2492   83.7552   13.6136 C.ar    1  UNL1        0.0018
     13 C          62.1457   82.7786   12.6074 C.ar    1  UNL1        0.0075
     14 C          61.6903   81.4697   12.8894 C.ar    1  UNL1        0.0810
     15 C          61.4318   80.4690   11.8878 C.ar    1  UNL1        0.2297
     16 C          62.5873   85.1599   13.2643 C.ar    1  UNL1        0.0192
     17 C          62.2152   85.6943   12.0179 C.ar    1  UNL1        0.0988
     18 N          62.5978   86.9493   11.6629 N.ar    1  UNL1       -0.2438
     19 C          63.3386   87.7343   12.4884 C.ar    1  UNL1        0.0810
     20 C          63.7508   89.0030   12.0671 C.ar    1  UNL1        0.0148
     21 C          64.5423   89.8044   12.9061 C.ar    1  UNL1       -0.0207
     22 C          64.9177   89.3224   14.1708 C.ar    1  UNL1       -0.0042
     23 C          64.5010   88.0592   14.5996 C.ar    1  UNL1        0.0012
     24 C          63.7206   87.2545   13.7584 C.ar    1  UNL1        0.0177
     25 C          63.3351   85.9646   14.1415 C.ar    1  UNL1        0.0030
     26 C          65.0453   91.1388   12.4255 C.3     1  UNL1        0.0264
     27 C          65.9405   90.9673   11.2025 C.3     1  UNL1        0.0050
     28 C          60.2817   84.5338    8.8762 C.ar    1  UNL1        0.0522
     29 C          61.6191   84.1591    9.0652 C.ar    1  UNL1        0.0206
     30 C          61.9366   82.9363    9.6537 C.ar    1  UNL1        0.0703
     31 C          60.9184   82.0576   10.0458 C.ar    1  UNL1        0.2271
     32 C          59.5767   82.4529    9.9143 C.ar    1  UNL1        0.0742
     33 C          59.2407   83.6952    9.3434 C.ar    1  UNL1        0.0906
     34 C          59.0198   89.2272    5.9068 C.2     1  UNL1        0.2257
     35 O          57.9749   89.8367    6.2636 O.2     1  UNL1       -0.2749
     36 N          59.4693   88.0862    6.6652 N.am    1  UNL1       -0.2760
     37 C          60.2745   87.0279    6.0383 C.3     1  UNL1        0.1148
     38 C          59.9815   85.6665    6.6771 C.3     1  UNL1        0.1123
     39 N          60.0006   85.7342    8.1428 N.pl3   1  UNL1       -0.3041
     40 C          60.0684   87.0247    8.8305 C.3     1  UNL1        0.1123
     41 C          59.1937   88.0549    8.1099 C.3     1  UNL1        0.1148
     42 C          59.2424   91.1140    4.2960 C.3     1  UNL1        0.0101
     43 C          59.8162   89.7779    4.7537 C.3     1  UNL1        0.0853
     44 C          57.7834   84.0534    9.1445 C.3     1  UNL1        0.4199
     45 F          57.6422   85.0485    8.1924 F       1  UNL1       -0.1658
     46 F          57.0608   82.9558    8.7150 F       1  UNL1       -0.1658
     47 F          57.2563   84.5062   10.3381 F       1  UNL1       -0.1658
@<TRIPOS>BOND
     1    42    43    1
     2    43    34    1
     3    34    35    2
     4    34    36   am
     5    36    37    1
     6    37    38    1
     7    38    39    1
     8    39    28    1
     9    28    29   ar
    10    29    30   ar
    11    30    31   ar
    12    31     1    1
    13     1     2    1
    14     2     3    2
    15     2     4    1
    16     4     5    2
    17     5     6    1
    18     6     7   ar
    19     7     8   ar
    20     8     9   ar
    21     9    10   ar
    22    10    11   ar
    23    11    12   ar
    24    12    16    1
    25    16    17   ar
    26    17    18   ar
    27    18    19   ar
    28    19    20   ar
    29    20    21   ar
    30    21    26    1
    31    26    27    1
    32    21    22   ar
    33    22    23   ar
    34    23    24   ar
    35    24    25   ar
    36    12    13   ar
    37    13    14   ar
    38    14    15   ar
    39    31    32   ar
    40    32    33   ar
    41    33    44    1
    42    44    45    1
    43    44    46    1
    44    44    47    1
    45    39    40    1
    46    40    41    1
    47    41    36    1
    48    33    28   ar
    49    15     1    1
    50    15     6   ar
    51    14     9   ar
    52    25    16   ar
    53    24    19   ar
@<TRIPOS>MOLECULE
*****
 47 53 0 0 0
SMALL
GASTEIGER

@<TRIPOS>ATOM
      1 N          62.1820   82.4487   11.7277 N.am    1  UNL1       -0.0905
      2 C          62.1459   81.2147   11.1167 C.2     1  UNL1        0.4229
      3 O          62.0751   81.1168    9.8597 O.2     1  UNL1       -0.2135
      4 C          62.1461   80.0437   11.8700 C.2     1  UNL1        0.1157
      5 C          62.1128   80.1165   13.2519 C.2     1  UNL1        0.0173
      6 C          62.1674   81.3584   13.8843 C.ar    1  UNL1        0.0828
      7 C          62.0600   81.4288   15.2761 C.ar    1  UNL1        0.1047
      8 N          62.1086   82.6247   15.9050 N.ar    1  UNL1       -0.2434
      9 C          62.3365   83.7808   15.2355 C.ar    1  UNL1        0.0870
     10 C          62.4262   84.9730   15.9608 C.ar    1  UNL1        0.0193
     11 C          62.7566   86.1652   15.3210 C.ar    1  UNL1        0.0016
     12 C          63.0703   86.1701   13.9555 C.ar    1  UNL1        0.0018
     13 C          63.0040   84.9643   13.2351 C.ar    1  UNL1        0.0075
     14 C          62.5273   83.7722   13.8283 C.ar    1  UNL1        0.0810
     15 C          62.3058   82.5438   13.1119 C.ar    1  UNL1        0.2297
     16 C          63.4335   87.4365   13.2672 C.ar    1  UNL1        0.0192
     17 C          62.8788   87.7517   12.0140 C.ar    1  UNL1        0.0988
     18 N          63.2746   88.8665   11.3446 N.ar    1  UNL1       -0.2438
     19 C          64.2038   89.7174   11.8535 C.ar    1  UNL1        0.0810
     20 C          64.6175   90.8294   11.1125 C.ar    1  UNL1        0.0148
     21 C          65.6001   91.6936   11.6228 C.ar    1  UNL1       -0.0207
     22 C          66.1648   91.4328   12.8820 C.ar    1  UNL1       -0.0042
     23 C          65.7484   90.3280   13.6298 C.ar    1  UNL1        0.0012
     24 C          64.7762   89.4590   13.1164 C.ar    1  UNL1        0.0177
     25 C          64.3802   88.3160   13.8207 C.ar    1  UNL1        0.0030
     26 C          66.0966   92.8488   10.7959 C.3     1  UNL1        0.0264
     27 C          67.0082   92.3563    9.6766 C.3     1  UNL1        0.0050
     28 C          61.1597   85.6828    9.1614 C.ar    1  UNL1        0.0522
     29 C          62.2436   84.8479    8.8566 C.ar    1  UNL1        0.0206
     30 C          62.6108   83.8184    9.7212 C.ar    1  UNL1        0.0703
     31 C          61.8853   83.5946   10.8985 C.ar    1  UNL1        0.2271
     32 C          60.8363   84.4648   11.2391 C.ar    1  UNL1        0.0742
     33 C          60.4689   85.5238   10.3872 C.ar    1  UNL1        0.0906
     34 C          59.6155   89.5334    5.2594 C.2     1  UNL1        0.2257
     35 O          60.1361   89.3965    4.1188 O.2     1  UNL1       -0.2749
     36 N          59.8722   88.5469    6.2791 N.am    1  UNL1       -0.2760
     37 C          59.8047   88.8952    7.7059 C.3     1  UNL1        0.1148
     38 C          60.8015   88.0638    8.5198 C.3     1  UNL1        0.1123
     39 N          60.7299   86.6379    8.1811 N.pl3   1  UNL1       -0.3041
     40 C          59.9433   86.1807    7.0343 C.3     1  UNL1        0.1123
     41 C          60.1005   87.1546    5.8627 C.3     1  UNL1        0.1148
     42 C          57.2297   90.2454    5.1857 C.3     1  UNL1        0.0101
     43 C          58.6614   90.6766    5.4827 C.3     1  UNL1        0.0853
     44 C          59.2824   86.3921   10.7479 C.3     1  UNL1        0.4199
     45 F          58.7073   85.9778   11.9372 F       1  UNL1       -0.1658
     46 F          59.6667   87.7108   10.9043 F       1  UNL1       -0.1658
     47 F          58.3343   86.3104    9.7470 F       1  UNL1       -0.1658
@<TRIPOS>BOND
     1    42    43    1
     2    43    34    1
     3    34    35    2
     4    34    36   am
     5    36    37    1
     6    37    38    1
     7    38    39    1
     8    39    28    1
     9    28    29   ar
    10    29    30   ar
    11    30    31   ar
    12    31     1    1
    13     1     2    1
    14     2     3    2
    15     2     4    1
    16     4     5    2
    17     5     6    1
    18     6     7   ar
    19     7     8   ar
    20     8     9   ar
    21     9    10   ar
    22    10    11   ar
    23    11    12   ar
    24    12    16    1
    25    16    17   ar
    26    17    18   ar
    27    18    19   ar
    28    19    20   ar
    29    20    21   ar
    30    21    26    1
    31    26    27    1
    32    21    22   ar
    33    22    23   ar
    34    23    24   ar
    35    24    25   ar
    36    12    13   ar
    37    13    14   ar
    38    14    15   ar
    39    31    32   ar
    40    32    33   ar
    41    33    44    1
    42    44    45    1
    43    44    46    1
    44    44    47    1
    45    39    40    1
    46    40    41    1
    47    41    36    1
    48    33    28   ar
    49    15     1    1
    50    15     6   ar
    51    14     9   ar
    52    25    16   ar
    53    24    19   ar
@<TRIPOS>MOLECULE
*****
 47 53 0 0 0
SMALL
GASTEIGER

@<TRIPOS>ATOM
      1 N          63.8806   87.8544   13.3182 N.am    1  UNL1       -0.0905
      2 C          64.6665   88.3665   14.3270 C.2     1  UNL1        0.4229
      3 O          65.0287   87.6423   15.2960 O.2     1  UNL1       -0.2135
      4 C          65.0487   89.7053   14.3258 C.2     1  UNL1        0.1157
      5 C          64.5789   90.5524   13.3370 C.2     1  UNL1        0.0173
      6 C          63.7975   90.0442   12.2994 C.ar    1  UNL1        0.0828
      7 C          63.2663   90.9165   11.3452 C.ar    1  UNL1        0.1047
      8 N          62.5049   90.4409   10.3342 N.ar    1  UNL1       -0.2434
      9 C          62.2894   89.1145   10.1586 C.ar    1  UNL1        0.0870
     10 C          61.5347   88.6944    9.0589 C.ar    1  UNL1        0.0193
     11 C          61.3744   87.3372    8.7898 C.ar    1  UNL1        0.0016
     12 C          62.0252   86.3796    9.5788 C.ar    1  UNL1        0.0018
     13 C          62.8043   86.8074   10.6683 C.ar    1  UNL1        0.0075
     14 C          62.8604   88.1681   11.0501 C.ar    1  UNL1        0.0810
     15 C          63.5251   88.6506   12.2319 C.ar    1  UNL1        0.2297
     16 C          61.8673   84.9296    9.2925 C.ar    1  UNL1        0.0192
     17 C          60.8997   84.4850    8.3741 C.ar    1  UNL1        0.0988
     18 N          60.6958   83.1559    8.1753 N.ar    1  UNL1       -0.2438
     19 C          61.4135   82.2124    8.8394 C.ar    1  UNL1        0.0810
     20 C          61.1414   80.8548    8.6402 C.ar    1  UNL1        0.0148
     21 C          61.8607   79.8780    9.3482 C.ar    1  UNL1       -0.0207
     22 C          62.8545   80.2743   10.2581 C.ar    1  UNL1       -0.0042
     23 C          63.1359   81.6291   10.4540 C.ar    1  UNL1        0.0012
     24 C          62.4108   82.6046    9.7562 C.ar    1  UNL1        0.0177
     25 C          62.6354   83.9690    9.9734 C.ar    1  UNL1        0.0030
     26 C          61.5198   78.4211    9.1877 C.3     1  UNL1        0.0264
     27 C          61.7069   77.6766   10.5057 C.3     1  UNL1        0.0050
     28 C          62.1733   83.9834   13.7542 C.ar    1  UNL1        0.0522
     29 C          61.3561   85.1005   13.5329 C.ar    1  UNL1        0.0206
     30 C          61.9092   86.3763   13.4392 C.ar    1  UNL1        0.0703
     31 C          63.2947   86.5532   13.5463 C.ar    1  UNL1        0.2271
     32 C          64.1124   85.4460   13.8280 C.ar    1  UNL1        0.0742
     33 C          63.5654   84.1543   13.9490 C.ar    1  UNL1        0.0906
     34 C          59.9123   78.7671   13.4136 C.2     1  UNL1        0.2257
     35 O          60.7268   77.8094   13.5147 O.2     1  UNL1       -0.2749
     36 N          60.3823   80.1191   13.5876 N.am    1  UNL1       -0.2760
     37 C          59.6916   81.2502   12.9511 C.3     1  UNL1        0.1148
     38 C          60.6813   82.3625   12.5898 C.3     1  UNL1        0.1123
     39 N          61.5815   82.6775   13.7049 N.pl3   1  UNL1       -0.3041
     40 C          61.6176   81.8307   14.8985 C.3     1  UNL1        0.1123
     41 C          61.5088   80.3548   14.5036 C.3     1  UNL1        0.1148
     42 C          58.1694   78.1490   11.7449 C.3     1  UNL1        0.0101
     43 C          58.4536   78.4532   13.2113 C.3     1  UNL1        0.0853
     44 C          64.4862   82.9739   14.1734 C.3     1  UNL1        0.4199
     45 F          64.4046   82.0740   13.1245 F       1  UNL1       -0.1658
     46 F          65.8018   83.3872   14.2707 F       1  UNL1       -0.1658
     47 F          64.1254   82.3271   15.3392 F       1  UNL1       -0.1658
@<TRIPOS>BOND
     1    42    43    1
     2    43    34    1
     3    34    35    2
     4    34    36   am
     5    36    37    1
     6    37    38    1
     7    38    39    1
     8    39    28    1
     9    28    29   ar
    10    29    30   ar
    11    30    31   ar
    12    31     1    1
    13     1     2    1
    14     2     3    2
    15     2     4    1
    16     4     5    2
    17     5     6    1
    18     6     7   ar
    19     7     8   ar
    20     8     9   ar
    21     9    10   ar
    22    10    11   ar
    23    11    12   ar
    24    12    16    1
    25    16    17   ar
    26    17    18   ar
    27    18    19   ar
    28    19    20   ar
    29    20    21   ar
    30    21    26    1
    31    26    27    1
    32    21    22   ar
    33    22    23   ar
    34    23    24   ar
    35    24    25   ar
    36    12    13   ar
    37    13    14   ar
    38    14    15   ar
    39    31    32   ar
    40    32    33   ar
    41    33    44    1
    42    44    45    1
    43    44    46    1
    44    44    47    1
    45    39    40    1
    46    40    41    1
    47    41    36    1
    48    33    28   ar
    49    15     1    1
    50    15     6   ar
    51    14     9   ar
    52    25    16   ar
    53    24    19   ar
@<TRIPOS>MOLECULE
*****
 47 53 0 0 0
SMALL
GASTEIGER

@<TRIPOS>ATOM
      1 N          62.1519   87.8176   11.6390 N.am    1  UNL1       -0.0905
      2 C          61.7806   88.9773   10.9952 C.2     1  UNL1        0.4229
      3 O          60.9800   88.9477   10.0191 O.2     1  UNL1       -0.2135
      4 C          62.3086   90.2077   11.3773 C.2     1  UNL1        0.1157
      5 C          63.2708   90.2629   12.3709 C.2     1  UNL1        0.0173
      6 C          63.6430   89.0994   13.0439 C.ar    1  UNL1        0.0828
      7 C          64.6664   89.1500   13.9946 C.ar    1  UNL1        0.1047
      8 N          65.0412   88.0311   14.6545 N.ar    1  UNL1       -0.2434
      9 C          64.4030   86.8477   14.4842 C.ar    1  UNL1        0.0870
     10 C          64.8133   85.7460   15.2413 C.ar    1  UNL1        0.0193
     11 C          64.1195   84.5405   15.1666 C.ar    1  UNL1        0.0016
     12 C          62.9616   84.4398   14.3841 C.ar    1  UNL1        0.0018
     13 C          62.5377   85.5580   13.6444 C.ar    1  UNL1        0.0075
     14 C          63.3072   86.7433   13.5871 C.ar    1  UNL1        0.0810
     15 C          63.0001   87.8677   12.7428 C.ar    1  UNL1        0.2297
     16 C          62.2098   83.1598   14.3066 C.ar    1  UNL1        0.0192
     17 C          62.6987   82.0058   14.9442 C.ar    1  UNL1        0.0988
     18 N          62.0580   80.8153   14.8031 N.ar    1  UNL1       -0.2438
     19 C          60.9287   80.6919   14.0576 C.ar    1  UNL1        0.0810
     20 C          60.3252   79.4397   13.9001 C.ar    1  UNL1        0.0148
     21 C          59.1754   79.3037   13.1051 C.ar    1  UNL1       -0.0207
     22 C          58.6364   80.4339   12.4687 C.ar    1  UNL1       -0.0042
     23 C          59.2307   81.6884   12.6301 C.ar    1  UNL1        0.0012
     24 C          60.3845   81.8228   13.4142 C.ar    1  UNL1        0.0177
     25 C          61.0303   83.0573   13.5488 C.ar    1  UNL1        0.0030
     26 C          58.5677   77.9459   12.8776 C.3     1  UNL1        0.0264
     27 C          58.1330   77.7880   11.4241 C.3     1  UNL1        0.0050
     28 C          60.9520   84.2810    9.6036 C.ar    1  UNL1        0.0522
     29 C          60.2180   84.7547   10.6998 C.ar    1  UNL1        0.0206
     30 C          60.6374   85.8852   11.3988 C.ar    1  UNL1        0.0703
     31 C          61.7902   86.5733   10.9991 C.ar    1  UNL1        0.2271
     32 C          62.5627   86.0692    9.9394 C.ar    1  UNL1        0.0742
     33 C          62.1646   84.9147    9.2388 C.ar    1  UNL1        0.0906
     34 C          58.8930   80.0532    6.3904 C.2     1  UNL1        0.2257
     35 O          59.7480   79.2469    5.9326 O.2     1  UNL1       -0.2749
     36 N          59.3134   81.0950    7.2944 N.am    1  UNL1       -0.2760
     37 C          58.5587   82.3517    7.4071 C.3     1  UNL1        0.1148
     38 C          59.4915   83.5228    7.7324 C.3     1  UNL1        0.1123
     39 N          60.4119   83.2011    8.8290 N.pl3   1  UNL1       -0.3041
     40 C          60.5184   81.8328    9.3384 C.3     1  UNL1        0.1123
     41 C          60.4569   80.8312    8.1813 C.3     1  UNL1        0.1148
     42 C          57.2343   78.4437    5.4618 C.3     1  UNL1        0.0101
     43 C          57.4427   79.8344    6.0503 C.3     1  UNL1        0.0853
     44 C          62.9789   84.4465    8.0516 C.3     1  UNL1        0.4199
     45 F          62.2271   84.4802    6.8896 F       1  UNL1       -0.1658
     46 F          64.0827   85.2567    7.8613 F       1  UNL1       -0.1658
     47 F          63.3992   83.1488    8.2681 F       1  UNL1       -0.1658
@<TRIPOS>BOND
     1    42    43    1
     2    43    34    1
     3    34    35    2
     4    34    36   am
     5    36    37    1
     6    37    38    1
     7    38    39    1
     8    39    28    1
     9    28    29   ar
    10    29    30   ar
    11    30    31   ar
    12    31     1    1
    13     1     2    1
    14     2     3    2
    15     2     4    1
    16     4     5    2
    17     5     6    1
    18     6     7   ar
    19     7     8   ar
    20     8     9   ar
    21     9    10   ar
    22    10    11   ar
    23    11    12   ar
    24    12    16    1
    25    16    17   ar
    26    17    18   ar
    27    18    19   ar
    28    19    20   ar
    29    20    21   ar
    30    21    26    1
    31    26    27    1
    32    21    22   ar
    33    22    23   ar
    34    23    24   ar
    35    24    25   ar
    36    12    13   ar
    37    13    14   ar
    38    14    15   ar
    39    31    32   ar
    40    32    33   ar
    41    33    44    1
    42    44    45    1
    43    44    46    1
    44    44    47    1
    45    39    40    1
    46    40    41    1
    47    41    36    1
    48    33    28   ar
    49    15     1    1
    50    15     6   ar
    51    14     9   ar
    52    25    16   ar
    53    24    19   ar
@<TRIPOS>MOLECULE
*****
 47 53 0 0 0
SMALL
GASTEIGER

@<TRIPOS>ATOM
      1 N          59.6629   80.3482   12.8991 N.am    1  UNL1       -0.0905
      2 C          58.7275   79.7005   13.6756 C.2     1  UNL1        0.4229
      3 O          58.1504   80.2981   14.6267 O.2     1  UNL1       -0.2135
      4 C          58.4229   78.3594   13.4584 C.2     1  UNL1        0.1157
      5 C          59.1156   77.6454   12.4959 C.2     1  UNL1        0.0173
      6 C          60.0521   78.2923   11.6900 C.ar    1  UNL1        0.0828
      7 C          60.7998   77.5512   10.7705 C.ar    1  UNL1        0.1047
      8 N          61.7135   78.1621    9.9831 N.ar    1  UNL1       -0.2434
      9 C          61.8889   79.5059    9.9942 C.ar    1  UNL1        0.0870
     10 C          62.8158   80.0716    9.1131 C.ar    1  UNL1        0.0193
     11 C          62.9532   81.4549    9.0256 C.ar    1  UNL1        0.0016
     12 C          62.1153   82.2959    9.7697 C.ar    1  UNL1        0.0018
     13 C          61.1668   81.7229   10.6353 C.ar    1  UNL1        0.0075
     14 C          61.1103   80.3266   10.8526 C.ar    1  UNL1        0.0810
     15 C          60.2594   79.6922   11.8247 C.ar    1  UNL1        0.2297
     16 C          62.2488   83.7732    9.6748 C.ar    1  UNL1        0.0192
     17 C          62.9581   84.3584    8.6109 C.ar    1  UNL1        0.0988
     18 N          63.1542   85.7028    8.5687 N.ar    1  UNL1       -0.2438
     19 C          62.6731   86.5290    9.5342 C.ar    1  UNL1        0.0810
     20 C          62.9359   87.9019    9.4780 C.ar    1  UNL1        0.0148
     21 C          62.4660   88.7541   10.4907 C.ar    1  UNL1       -0.0207
     22 C          61.7310   88.2177   11.5607 C.ar    1  UNL1       -0.0042
     23 C          61.4584   86.8482   11.6167 C.ar    1  UNL1        0.0012
     24 C          61.9366   85.9958   10.6123 C.ar    1  UNL1        0.0177
     25 C          61.7240   84.6135   10.6721 C.ar    1  UNL1        0.0030
     26 C          62.8091   90.2191   10.4680 C.3     1  UNL1        0.0264
     27 C          64.3103   90.4226   10.6458 C.3     1  UNL1        0.0050
     28 C          61.1282   84.1622   14.0808 C.ar    1  UNL1        0.0522
     29 C          61.8927   83.0077   14.2984 C.ar    1  UNL1        0.0206
     30 C          61.3937   81.7519   13.9572 C.ar    1  UNL1        0.0703
     31 C          60.1260   81.6324   13.3732 C.ar    1  UNL1        0.2271
     32 C          59.3310   82.7789   13.2081 C.ar    1  UNL1        0.0742
     33 C          59.8122   84.0516   13.5699 C.ar    1  UNL1        0.0906
     34 C          63.5010   89.2826   14.8485 C.2     1  UNL1        0.2257
     35 O          62.7377   90.2715   14.6750 O.2     1  UNL1       -0.2749
     36 N          62.9607   87.9478   14.7728 N.am    1  UNL1       -0.2760
     37 C          63.8080   86.8066   14.3970 C.3     1  UNL1        0.1148
     38 C          62.9977   85.7495   13.6398 C.3     1  UNL1        0.1123
     39 N          61.7323   85.4419   14.3160 N.pl3   1  UNL1       -0.3041
     40 C          61.2700   86.2545   15.4425 C.3     1  UNL1        0.1123
     41 C          61.5641   87.7350   15.1827 C.3     1  UNL1        0.1148
     42 C          65.6070   90.4455   14.2031 C.3     1  UNL1        0.0101
     43 C          64.9355   89.5382   15.2278 C.3     1  UNL1        0.0853
     44 C          58.9590   85.2734   13.3037 C.3     1  UNL1        0.4199
     45 F          58.3812   85.7398   14.4722 F       1  UNL1       -0.1658
     46 F          59.7193   86.2988   12.7729 F       1  UNL1       -0.1658
     47 F          57.9542   84.9452   12.4147 F       1  UNL1       -0.1658
@<TRIPOS>BOND
     1    42    43    1
     2    43    34    1
     3    34    35    2
     4    34    36   am
     5    36    37    1
     6    37    38    1
     7    38    39    1
     8    39    28    1
     9    28    29   ar
    10    29    30   ar
    11    30    31   ar
    12    31     1    1
    13     1     2    1
    14     2     3    2
    15     2     4    1
    16     4     5    2
    17     5     6    1
    18     6     7   ar
    19     7     8   ar
    20     8     9   ar
    21     9    10   ar
    22    10    11   ar
    23    11    12   ar
    24    12    16    1
    25    16    17   ar
    26    17    18   ar
    27    18    19   ar
    28    19    20   ar
    29    20    21   ar
    30    21    26    1
    31    26    27    1
    32    21    22   ar
    33    22    23   ar
    34    23    24   ar
    35    24    25   ar
    36    12    13   ar
    37    13    14   ar
    38    14    15   ar
    39    31    32   ar
    40    32    33   ar
    41    33    44    1
    42    44    45    1
    43    44    46    1
    44    44    47    1
    45    39    40    1
    46    40    41    1
    47    41    36    1
    48    33    28   ar
    49    15     1    1
    50    15     6   ar
    51    14     9   ar
    52    25    16   ar
    53    24    19   ar
