@<TRIPOS>MOLECULE
*****
 52 57 0 0 0
SMALL
GASTEIGER

@<TRIPOS>ATOM
      1 N         -30.3959   48.5254   -9.9026 N.am    1  UNL1       -0.2945
      2 C         -30.1449   47.5183   -8.9088 C.2     1  UNL1        0.2483
      3 O         -29.5961   46.4364   -9.2541 O.2     1  UNL1       -0.2701
      4 H         -31.1354   49.2370   -9.7112 H       1  UNL1        0.1501
      5 C         -30.4839   47.7479   -7.4777 C.ar    1  UNL1        0.0808
      6 C         -30.5779   49.0557   -6.9654 C.ar    1  UNL1        0.0080
      7 C         -30.7835   49.2764   -5.6023 C.ar    1  UNL1        0.0148
      8 C         -30.9053   48.1974   -4.7123 C.ar    1  UNL1        0.0502
      9 C         -30.8466   46.8904   -5.2251 C.ar    1  UNL1        0.0443
     10 C         -30.6352   46.6645   -6.5885 C.ar    1  UNL1        0.1457
     11 F         -30.5776   45.3825   -7.0310 F       1  UNL1       -0.2040
     12 N         -31.0716   48.4279   -3.2950 N.pl3   1  UNL1       -0.3040
     13 C         -30.9489   49.7919   -2.7566 C.3     1  UNL1        0.1122
     14 C         -31.5821   49.9098   -1.3668 C.3     1  UNL1        0.1122
     15 N         -31.0834   48.8509   -0.4771 N.pl3   1  UNL1       -0.3041
     16 C         -30.8026   47.5113   -1.0173 C.3     1  UNL1        0.1122
     17 C         -31.4312   47.3177   -2.4005 C.3     1  UNL1        0.1122
     18 C         -30.9612   49.0904    0.9430 C.ar    1  UNL1        0.0479
     19 C         -31.4615   50.2736    1.5147 C.ar    1  UNL1        0.0145
     20 C         -31.3408   50.5072    2.8874 C.ar    1  UNL1        0.0051
     21 C         -30.7314   49.5560    3.7219 C.ar    1  UNL1        0.0715
     22 C         -30.2033   48.3876    3.1488 C.ar    1  UNL1        0.0051
     23 C         -30.3245   48.1532    1.7763 C.ar    1  UNL1        0.0145
     24 C         -30.5568   49.8313    5.1943 C.3     1  UNL1        0.4186
     25 F         -29.2298   49.6510    5.5366 F       1  UNL1       -0.1659
     26 F         -31.3378   48.9725    5.9482 F       1  UNL1       -0.1659
     27 F         -30.9280   51.1302    5.4961 F       1  UNL1       -0.1659
     28 C         -29.6645   48.5563  -11.1787 C.3     1  UNL1        0.1535
     29 C         -30.3614   47.7364  -12.2421 C.2     1  UNL1        0.2443
     30 O         -31.5468   47.3432  -12.0630 O.2     1  UNL1       -0.2730
     31 N         -29.6730   47.4271  -13.4654 N.am    1  UNL1       -0.2825
     32 H         -28.6355   47.5517  -13.4870 H       1  UNL1        0.1549
     33 C         -30.3019   46.8522  -14.6239 C.ar    1  UNL1        0.0535
     34 C         -30.4329   45.4614  -14.7779 C.ar    1  UNL1        0.0353
     35 C         -31.0758   44.9509  -15.9084 C.ar    1  UNL1        0.1002
     36 N         -31.5838   45.7951  -16.8446 N.ar    1  UNL1       -0.2422
     37 C         -31.4887   47.1444  -16.7125 C.ar    1  UNL1        0.1002
     38 C         -30.8548   47.6964  -15.5968 C.ar    1  UNL1        0.0353
     39 C         -29.4354   50.0063  -11.6608 C.3     1  UNL1        0.0569
     40 C         -26.5135   48.8181   -8.2691 C.ar    1  UNL1        0.0348
     41 C         -25.9795   49.9594   -7.6089 C.ar    1  UNL1        0.0043
     42 C         -26.2927   51.2585   -8.0455 C.ar    1  UNL1        0.0170
     43 C         -27.1518   51.3951   -9.1311 C.ar    1  UNL1        0.0563
     44 N         -27.6001   52.5404   -9.6732 N.ar    1  UNL1       -0.3523
     45 C         -28.4407   52.1789  -10.6683 C.ar    1  UNL1        0.0681
     46 C         -28.5249   50.7923  -10.7549 C.ar    1  UNL1       -0.0017
     47 C         -27.6825   50.3069   -9.7703 C.ar    1  UNL1        0.0132
     48 C         -27.3659   49.0041   -9.3845 C.ar    1  UNL1        0.0040
     49 H         -27.3654   53.5136   -9.3764 H       1  UNL1        0.1660
     50 C         -26.3335   47.0713   -6.3386 C.3     1  UNL1        0.0773
     51 C         -26.2203   47.4424   -7.7866 C.2     1  UNL1        0.1735
     52 O         -25.8772   46.5504   -8.6095 O.2     1  UNL1       -0.2913
@<TRIPOS>BOND
     1    50    51    1
     2    51    52    2
     3    51    40    1
     4    40    41   ar
     5    41    42   ar
     6    42    43   ar
     7    43    44   ar
     8    44    45   ar
     9    45    46   ar
    10    46    39    1
    11    39    28    1
    12    28     1    1
    13     1     2   am
    14     2     3    2
    15     2     5    1
    16     5     6   ar
    17     6     7   ar
    18     7     8   ar
    19     8    12    1
    20    12    13    1
    21    13    14    1
    22    14    15    1
    23    15    18    1
    24    18    19   ar
    25    19    20   ar
    26    20    21   ar
    27    21    24    1
    28    24    25    1
    29    24    26    1
    30    24    27    1
    31    21    22   ar
    32    22    23   ar
    33    15    16    1
    34    16    17    1
    35     8     9   ar
    36     9    10   ar
    37    10    11    1
    38    28    29    1
    39    29    30    2
    40    29    31   am
    41    31    33    1
    42    33    34   ar
    43    34    35   ar
    44    35    36   ar
    45    36    37   ar
    46    37    38   ar
    47    46    47   ar
    48    47    48   ar
    49    48    40   ar
    50    47    43   ar
    51    10     5   ar
    52    38    33   ar
    53    17    12    1
    54    23    18   ar
    55    44    49    1
    56     1     4    1
    57    31    32    1
@<TRIPOS>MOLECULE
*****
 52 57 0 0 0
SMALL
GASTEIGER

@<TRIPOS>ATOM
      1 N         -22.4668   52.9921  -10.4991 N.am    1  UNL1       -0.2945
      2 C         -23.5102   52.0978  -10.9192 C.2     1  UNL1        0.2483
      3 O         -23.7363   51.9517  -12.1515 O.2     1  UNL1       -0.2701
      4 H         -22.5056   53.3784   -9.5300 H       1  UNL1        0.1501
      5 C         -24.2971   51.3138   -9.9283 C.ar    1  UNL1        0.0808
      6 C         -25.5707   50.8142  -10.2600 C.ar    1  UNL1        0.0080
      7 C         -26.3603   50.1766   -9.3014 C.ar    1  UNL1        0.0148
      8 C         -25.8990   50.0159   -7.9851 C.ar    1  UNL1        0.0502
      9 C         -24.6143   50.4826   -7.6591 C.ar    1  UNL1        0.0443
     10 C         -23.8222   51.1268   -8.6142 C.ar    1  UNL1        0.1457
     11 F         -22.5922   51.5667   -8.2452 F       1  UNL1       -0.2040
     12 N         -26.7365   49.3972   -6.9824 N.pl3   1  UNL1       -0.3040
     13 C         -27.5934   50.2339   -6.1274 C.3     1  UNL1        0.1122
     14 C         -28.7043   49.4132   -5.4651 C.3     1  UNL1        0.1122
     15 N         -28.1476   48.2251   -4.8019 N.pl3   1  UNL1       -0.3041
     16 C         -27.0051   47.5182   -5.4020 C.3     1  UNL1        0.1122
     17 C         -26.7880   47.9328   -6.8603 C.3     1  UNL1        0.1122
     18 C         -28.7781   47.6903   -3.6164 C.ar    1  UNL1        0.0479
     19 C         -29.8681   48.3529   -3.0248 C.ar    1  UNL1        0.0145
     20 C         -30.4763   47.8379   -1.8766 C.ar    1  UNL1        0.0051
     21 C         -30.0185   46.6404   -1.3031 C.ar    1  UNL1        0.0715
     22 C         -28.9104   45.9932   -1.8740 C.ar    1  UNL1        0.0051
     23 C         -28.3025   46.5073   -3.0227 C.ar    1  UNL1        0.0145
     24 C         -30.6426   46.1124   -0.0360 C.3     1  UNL1        0.4186
     25 F         -31.3216   44.9416   -0.3167 F       1  UNL1       -0.1659
     26 F         -31.5308   47.0334    0.4921 F       1  UNL1       -0.1659
     27 F         -29.6717   45.8536    0.9161 F       1  UNL1       -0.1659
     28 C         -21.3773   53.3930  -11.4028 C.3     1  UNL1        0.1535
     29 C         -20.4010   54.3263  -10.7211 C.2     1  UNL1        0.2443
     30 O         -19.5066   54.9087  -11.3938 O.2     1  UNL1       -0.2730
     31 N         -20.5124   54.5618   -9.3075 N.am    1  UNL1       -0.2825
     32 H         -21.0911   53.8970   -8.7456 H       1  UNL1        0.1549
     33 C         -19.7912   55.5844   -8.5990 C.ar    1  UNL1        0.0535
     34 C         -20.0146   56.9499   -8.8458 C.ar    1  UNL1        0.0353
     35 C         -19.3087   57.9071   -8.1127 C.ar    1  UNL1        0.1002
     36 N         -18.4232   57.5191   -7.1574 N.ar    1  UNL1       -0.2422
     37 C         -18.2011   56.2064   -6.8841 C.ar    1  UNL1        0.1002
     38 C         -18.8869   55.2172   -7.5929 C.ar    1  UNL1        0.0353
     39 C         -20.6488   52.1617  -11.9865 C.3     1  UNL1        0.0569
     40 C         -18.6263   51.7444   -7.8406 C.ar    1  UNL1        0.0348
     41 C         -17.2093   51.8288   -7.9340 C.ar    1  UNL1        0.0043
     42 C         -16.5738   51.9477   -9.1823 C.ar    1  UNL1        0.0170
     43 C         -17.3713   51.9962  -10.3211 C.ar    1  UNL1        0.0563
     44 N         -16.9630   52.1440  -11.5931 N.ar    1  UNL1       -0.3523
     45 C         -18.0863   52.1818  -12.3442 C.ar    1  UNL1        0.0681
     46 C         -19.2148   52.0577  -11.5389 C.ar    1  UNL1       -0.0017
     47 C         -18.7366   51.9271  -10.2470 C.ar    1  UNL1        0.0132
     48 C         -19.3975   51.7748   -9.0279 C.ar    1  UNL1        0.0040
     49 H         -15.9801   52.2324  -11.9343 H       1  UNL1        0.1660
     50 C         -20.4279   52.5851   -6.1499 C.3     1  UNL1        0.0773
     51 C         -19.3072   51.6613   -6.5212 C.2     1  UNL1        0.1735
     52 O         -18.9496   50.7862   -5.6864 O.2     1  UNL1       -0.2913
@<TRIPOS>BOND
     1    50    51    1
     2    51    52    2
     3    51    40    1
     4    40    41   ar
     5    41    42   ar
     6    42    43   ar
     7    43    44   ar
     8    44    45   ar
     9    45    46   ar
    10    46    39    1
    11    39    28    1
    12    28     1    1
    13     1     2   am
    14     2     3    2
    15     2     5    1
    16     5     6   ar
    17     6     7   ar
    18     7     8   ar
    19     8    12    1
    20    12    13    1
    21    13    14    1
    22    14    15    1
    23    15    18    1
    24    18    19   ar
    25    19    20   ar
    26    20    21   ar
    27    21    24    1
    28    24    25    1
    29    24    26    1
    30    24    27    1
    31    21    22   ar
    32    22    23   ar
    33    15    16    1
    34    16    17    1
    35     8     9   ar
    36     9    10   ar
    37    10    11    1
    38    28    29    1
    39    29    30    2
    40    29    31   am
    41    31    33    1
    42    33    34   ar
    43    34    35   ar
    44    35    36   ar
    45    36    37   ar
    46    37    38   ar
    47    46    47   ar
    48    47    48   ar
    49    48    40   ar
    50    47    43   ar
    51    10     5   ar
    52    38    33   ar
    53    17    12    1
    54    23    18   ar
    55    44    49    1
    56     1     4    1
    57    31    32    1
@<TRIPOS>MOLECULE
*****
 52 57 0 0 0
SMALL
GASTEIGER

@<TRIPOS>ATOM
      1 N         -20.4299   56.2009   -9.0923 N.am    1  UNL1       -0.2945
      2 C         -20.5010   55.1949  -10.1158 C.2     1  UNL1        0.2483
      3 O         -19.5484   55.0819  -10.9348 O.2     1  UNL1       -0.2701
      4 H         -21.3203   56.5286   -8.6568 H       1  UNL1        0.1501
      5 C         -21.6575   54.2614  -10.1984 C.ar    1  UNL1        0.0808
      6 C         -22.9744   54.7396  -10.0613 C.ar    1  UNL1        0.0080
      7 C         -24.0553   53.8569  -10.0248 C.ar    1  UNL1        0.0148
      8 C         -23.8525   52.4714  -10.1282 C.ar    1  UNL1        0.0502
      9 C         -22.5426   51.9926  -10.2998 C.ar    1  UNL1        0.0443
     10 C         -21.4565   52.8724  -10.3313 C.ar    1  UNL1        0.1457
     11 F         -20.2106   52.3575  -10.4902 F       1  UNL1       -0.2040
     12 N         -24.9682   51.5562  -10.0434 N.pl3   1  UNL1       -0.3040
     13 C         -25.7852   51.5104   -8.8204 C.3     1  UNL1        0.1122
     14 C         -27.1409   50.8428   -9.0712 C.3     1  UNL1        0.1122
     15 N         -26.9654   49.5462   -9.7418 N.pl3   1  UNL1       -0.3041
     16 C         -25.8952   49.3744  -10.7370 C.3     1  UNL1        0.1122
     17 C         -25.3322   50.7220  -11.1983 C.3     1  UNL1        0.1122
     18 C         -27.8993   48.4697   -9.5015 C.ar    1  UNL1        0.0479
     19 C         -29.2694   48.7358   -9.3304 C.ar    1  UNL1        0.0145
     20 C         -30.1726   47.6955   -9.0948 C.ar    1  UNL1        0.0051
     21 C         -29.7286   46.3641   -9.0408 C.ar    1  UNL1        0.0715
     22 C         -28.3565   46.0987   -9.1803 C.ar    1  UNL1        0.0051
     23 C         -27.4531   47.1386   -9.4168 C.ar    1  UNL1        0.0145
     24 C         -30.6958   45.2478   -8.7366 C.3     1  UNL1        0.4186
     25 F         -31.4087   44.9392   -9.8799 F       1  UNL1       -0.1659
     26 F         -31.5807   45.6253   -7.7414 F       1  UNL1       -0.1659
     27 F         -30.0197   44.1185   -8.3080 F       1  UNL1       -0.1659
     28 C         -19.1498   56.7923   -8.6725 C.3     1  UNL1        0.1535
     29 C         -19.2741   58.2809   -8.4330 C.2     1  UNL1        0.2443
     30 O         -19.6391   59.0446   -9.3685 O.2     1  UNL1       -0.2730
     31 N         -18.9950   58.8163   -7.1285 N.am    1  UNL1       -0.2825
     32 H         -18.4721   58.2125   -6.4543 H       1  UNL1        0.1549
     33 C         -19.2889   60.1660   -6.7288 C.ar    1  UNL1        0.0535
     34 C         -19.0368   61.2578   -7.5773 C.ar    1  UNL1        0.0353
     35 C         -19.3644   62.5486   -7.1549 C.ar    1  UNL1        0.1002
     36 N         -19.9366   62.7442   -5.9377 N.ar    1  UNL1       -0.2422
     37 C         -20.2093   61.7057   -5.1046 C.ar    1  UNL1        0.1002
     38 C         -19.8989   60.3990   -5.4885 C.ar    1  UNL1        0.0353
     39 C         -18.5820   56.0777   -7.4257 C.3     1  UNL1        0.0569
     40 C         -17.6251   51.7586   -8.7980 C.ar    1  UNL1        0.0348
     41 C         -18.6326   50.8404   -8.3912 C.ar    1  UNL1        0.0043
     42 C         -19.7180   51.2617   -7.6032 C.ar    1  UNL1        0.0170
     43 C         -19.7859   52.6047   -7.2466 C.ar    1  UNL1        0.0563
     44 N         -20.7536   53.2085   -6.5356 N.ar    1  UNL1       -0.3523
     45 C         -20.4173   54.5167   -6.4823 C.ar    1  UNL1        0.0681
     46 C         -19.2265   54.7415   -7.1670 C.ar    1  UNL1       -0.0017
     47 C         -18.8301   53.5028   -7.6394 C.ar    1  UNL1        0.0132
     48 C         -17.7229   53.1119   -8.3927 C.ar    1  UNL1        0.0040
     49 H         -21.6043   52.7648   -6.1235 H       1  UNL1        0.1660
     50 C         -16.1625   52.0448  -10.9403 C.3     1  UNL1        0.0773
     51 C         -16.4973   51.3287   -9.6665 C.2     1  UNL1        0.1735
     52 O         -15.7872   50.3430   -9.3280 O.2     1  UNL1       -0.2913
@<TRIPOS>BOND
     1    50    51    1
     2    51    52    2
     3    51    40    1
     4    40    41   ar
     5    41    42   ar
     6    42    43   ar
     7    43    44   ar
     8    44    45   ar
     9    45    46   ar
    10    46    39    1
    11    39    28    1
    12    28     1    1
    13     1     2   am
    14     2     3    2
    15     2     5    1
    16     5     6   ar
    17     6     7   ar
    18     7     8   ar
    19     8    12    1
    20    12    13    1
    21    13    14    1
    22    14    15    1
    23    15    18    1
    24    18    19   ar
    25    19    20   ar
    26    20    21   ar
    27    21    24    1
    28    24    25    1
    29    24    26    1
    30    24    27    1
    31    21    22   ar
    32    22    23   ar
    33    15    16    1
    34    16    17    1
    35     8     9   ar
    36     9    10   ar
    37    10    11    1
    38    28    29    1
    39    29    30    2
    40    29    31   am
    41    31    33    1
    42    33    34   ar
    43    34    35   ar
    44    35    36   ar
    45    36    37   ar
    46    37    38   ar
    47    46    47   ar
    48    47    48   ar
    49    48    40   ar
    50    47    43   ar
    51    10     5   ar
    52    38    33   ar
    53    17    12    1
    54    23    18   ar
    55    44    49    1
    56     1     4    1
    57    31    32    1
@<TRIPOS>MOLECULE
*****
 52 57 0 0 0
SMALL
GASTEIGER

@<TRIPOS>ATOM
      1 N         -28.8820   50.0262   -9.5762 N.am    1  UNL1       -0.2945
      2 C         -29.2178   48.8030   -8.9011 C.2     1  UNL1        0.2483
      3 O         -29.1433   47.7124   -9.5304 O.2     1  UNL1       -0.2701
      4 H         -29.2648   50.9214   -9.1995 H       1  UNL1        0.1501
      5 C         -29.6107   48.7992   -7.4654 C.ar    1  UNL1        0.0808
      6 C         -29.7503   50.0085   -6.7584 C.ar    1  UNL1        0.0080
      7 C         -30.0074   50.0087   -5.3862 C.ar    1  UNL1        0.0148
      8 C         -30.1368   48.8012   -4.6815 C.ar    1  UNL1        0.0502
      9 C         -30.0325   47.5923   -5.3902 C.ar    1  UNL1        0.0443
     10 C         -29.7694   47.5871   -6.7632 C.ar    1  UNL1        0.1457
     11 F         -29.6692   46.3918   -7.3987 F       1  UNL1       -0.2040
     12 N         -30.3568   48.8032   -3.2528 N.pl3   1  UNL1       -0.3040
     13 C         -31.0567   49.9336   -2.6221 C.3     1  UNL1        0.1122
     14 C         -31.5835   49.5670   -1.2313 C.3     1  UNL1        0.1122
     15 N         -30.5180   48.9703   -0.4127 N.pl3   1  UNL1       -0.3041
     16 C         -29.5101   48.1017   -1.0411 C.3     1  UNL1        0.1122
     17 C         -29.9466   47.6500   -2.4379 C.3     1  UNL1        0.1122
     18 C         -30.5125   49.1525    1.0210 C.ar    1  UNL1        0.0479
     19 C         -31.4160   50.0392    1.6331 C.ar    1  UNL1        0.0145
     20 C         -31.4091   50.2182    3.0192 C.ar    1  UNL1        0.0051
     21 C         -30.5094   49.5028    3.8263 C.ar    1  UNL1        0.0715
     22 C         -29.5854   48.6399    3.2145 C.ar    1  UNL1        0.0051
     23 C         -29.5925   48.4600    1.8285 C.ar    1  UNL1        0.0145
     24 C         -30.4688   49.7340    5.3159 C.3     1  UNL1        0.4186
     25 F         -29.1526   49.7532    5.7377 F       1  UNL1       -0.1659
     26 F         -31.1424   48.7271    5.9855 F       1  UNL1       -0.1659
     27 F         -31.0638   50.9412    5.6395 F       1  UNL1       -0.1659
     28 C         -28.0470   50.0406  -10.7875 C.3     1  UNL1        0.1535
     29 C         -28.8872   50.0272  -12.0454 C.2     1  UNL1        0.2443
     30 O         -28.9590   51.0574  -12.7701 O.2     1  UNL1       -0.2730
     31 N         -29.5850   48.8278  -12.4209 N.am    1  UNL1       -0.2825
     32 H         -29.7040   48.0846  -11.6956 H       1  UNL1        0.1549
     33 C         -30.2263   48.6301  -13.6927 C.ar    1  UNL1        0.0535
     34 C         -30.7974   47.3956  -14.0464 C.ar    1  UNL1        0.0353
     35 C         -31.4336   47.2599  -15.2829 C.ar    1  UNL1        0.1002
     36 N         -31.5118   48.3194  -16.1306 N.ar    1  UNL1       -0.2422
     37 C         -30.9855   49.5299  -15.8069 C.ar    1  UNL1        0.1002
     38 C         -30.3421   49.7090  -14.5800 C.ar    1  UNL1        0.0353
     39 C         -27.0741   51.2410  -10.7857 C.3     1  UNL1        0.0569
     40 C         -22.6271   52.5092  -10.5236 C.ar    1  UNL1        0.0348
     41 C         -22.0269   52.0801   -9.3073 C.ar    1  UNL1        0.0043
     42 C         -22.7833   51.4222   -8.3216 C.ar    1  UNL1        0.0170
     43 C         -24.1309   51.1895   -8.5772 C.ar    1  UNL1        0.0563
     44 N         -25.0088   50.5489   -7.7864 N.ar    1  UNL1       -0.3523
     45 C         -26.1766   50.5255   -8.4667 C.ar    1  UNL1        0.0681
     46 C         -26.0348   51.1564   -9.6993 C.ar    1  UNL1       -0.0017
     47 C         -24.7205   51.5866   -9.7472 C.ar    1  UNL1        0.0132
     48 C         -24.0075   52.2714  -10.7315 C.ar    1  UNL1        0.0040
     49 H         -24.8253   50.1342   -6.8458 H       1  UNL1        0.1660
     50 C         -20.3710   52.8574  -11.7884 C.3     1  UNL1        0.0773
     51 C         -21.8239   53.1676  -11.5879 C.2     1  UNL1        0.1735
     52 O         -22.3706   54.0036  -12.3577 O.2     1  UNL1       -0.2913
@<TRIPOS>BOND
     1    50    51    1
     2    51    52    2
     3    51    40    1
     4    40    41   ar
     5    41    42   ar
     6    42    43   ar
     7    43    44   ar
     8    44    45   ar
     9    45    46   ar
    10    46    39    1
    11    39    28    1
    12    28     1    1
    13     1     2   am
    14     2     3    2
    15     2     5    1
    16     5     6   ar
    17     6     7   ar
    18     7     8   ar
    19     8    12    1
    20    12    13    1
    21    13    14    1
    22    14    15    1
    23    15    18    1
    24    18    19   ar
    25    19    20   ar
    26    20    21   ar
    27    21    24    1
    28    24    25    1
    29    24    26    1
    30    24    27    1
    31    21    22   ar
    32    22    23   ar
    33    15    16    1
    34    16    17    1
    35     8     9   ar
    36     9    10   ar
    37    10    11    1
    38    28    29    1
    39    29    30    2
    40    29    31   am
    41    31    33    1
    42    33    34   ar
    43    34    35   ar
    44    35    36   ar
    45    36    37   ar
    46    37    38   ar
    47    46    47   ar
    48    47    48   ar
    49    48    40   ar
    50    47    43   ar
    51    10     5   ar
    52    38    33   ar
    53    17    12    1
    54    23    18   ar
    55    44    49    1
    56     1     4    1
    57    31    32    1
