@<TRIPOS>MOLECULE
*****
 45 50 0 0 0
SMALL
GASTEIGER

@<TRIPOS>ATOM
      1 C           8.6943   77.6853   21.6974 C.ar    1  UNL1        0.0702
      2 C           8.8105   76.2932   21.5596 C.ar    1  UNL1        0.0191
      3 C           7.7545   75.5509   21.0289 C.ar    1  UNL1        0.0356
      4 C           6.5702   76.2026   20.6526 C.ar    1  UNL1        0.1318
      5 N           6.4763   77.5528   20.8065 N.ar    1  UNL1       -0.2279
      6 C           7.4910   78.2955   21.3222 C.ar    1  UNL1        0.1149
      7 N           5.4705   75.4712   20.0794 N.pl3   1  UNL1       -0.2932
      8 C           4.7584   76.0192   18.9115 C.3     1  UNL1        0.0923
      9 C           3.4678   75.2385   18.6103 C.3     1  UNL1        0.0252
     10 C           2.8250   74.6934   19.8985 C.3     1  UNL1        0.0472
     11 C           3.7879   73.6897   20.5749 C.3     1  UNL1        0.0252
     12 C           5.2805   74.0627   20.4521 C.3     1  UNL1        0.0923
     13 C           2.3694   75.8446   20.8272 C.3     1  UNL1        0.2054
     14 O           2.3856   75.4512   22.2016 O.3     1  UNL1       -0.4755
     15 C           3.0366   76.1231   23.2523 C.ar    1  UNL1        0.1388
     16 C           2.3744   77.0011   24.1346 C.ar    1  UNL1        0.0369
     17 C           3.0821   77.6364   25.1564 C.ar    1  UNL1        0.0033
     18 C           4.4502   77.4082   25.3135 C.ar    1  UNL1        0.0066
     19 C           5.1297   76.5397   24.4424 C.ar    1  UNL1        0.0785
     20 C           4.4109   75.9042   23.4145 C.ar    1  UNL1        0.0433
     21 C           6.5806   76.2957   24.6007 C.2     1  UNL1        0.3381
     22 O           7.0666   75.1571   24.3616 O.2     1  UNL1       -0.2451
     23 O           7.4242   77.3229   25.0159 O.3     1  UNL1       -0.4771
     24 H           8.4189   77.1664   25.1274 H       1  UNL1        0.2954
     25 C          10.3433   78.2388   23.5459 C.2     1  UNL1        0.2839
     26 O          10.1332   77.1504   24.1459 O.2     1  UNL1       -0.2665
     27 N           9.7514   78.4817   22.2595 N.am    1  UNL1       -0.2766
     28 H          10.1712   79.2273   21.6591 H       1  UNL1        0.1553
     29 C           9.5326   81.1881   24.5037 C.3     1  UNL1        0.0345
     30 C          10.8830   80.5402   24.5647 C.ar    1  UNL1        0.0202
     31 C          11.2327   79.2514   24.1461 C.ar    1  UNL1        0.1946
     32 O          12.5192   79.0401   24.3601 O.2     1  UNL1       -0.4492
     33 C          13.0219   80.1250   24.8965 C.ar    1  UNL1        0.1452
     34 C          14.3398   80.3429   25.2827 C.ar    1  UNL1        0.0375
     35 C          14.6666   81.5912   25.8402 C.ar    1  UNL1        0.0031
     36 C          13.6769   82.5980   26.0028 C.ar    1  UNL1        0.0002
     37 C          12.3464   82.3352   25.5968 C.ar    1  UNL1        0.0028
     38 C          12.0575   81.0850   25.0475 C.ar    1  UNL1        0.0337
     39 C          14.0341   83.9130   26.5929 C.ar    1  UNL1        0.0000
     40 C          14.2776   84.0354   27.9738 C.ar    1  UNL1        0.0004
     41 C          14.6146   85.2744   28.5269 C.ar    1  UNL1        0.0058
     42 C          14.7118   86.4045   27.7105 C.ar    1  UNL1        0.0301
     43 I          15.2199   88.2721   28.5483 I       1  UNL1       -0.0425
     44 C          14.4720   86.2951   26.3382 C.ar    1  UNL1        0.0058
     45 C          14.1355   85.0581   25.7804 C.ar    1  UNL1        0.0004
@<TRIPOS>BOND
     1    29    30    1
     2    30    31   ar
     3    31    25    1
     4    25    26    2
     5    25    27   am
     6    27     1    1
     7     1     2   ar
     8     2     3   ar
     9     3     4   ar
    10     4     7    1
    11     7     8    1
    12     8     9    1
    13     9    10    1
    14    10    13    1
    15    13    14    1
    16    14    15    1
    17    15    16   ar
    18    16    17   ar
    19    17    18   ar
    20    18    19   ar
    21    19    21    1
    22    21    22    2
    23    21    23    1
    24    19    20   ar
    25    10    11    1
    26    11    12    1
    27     4     5   ar
    28     5     6   ar
    29    31    32   ar
    30    32    33   ar
    31    33    34   ar
    32    34    35   ar
    33    35    36   ar
    34    36    39    1
    35    39    40   ar
    36    40    41   ar
    37    41    42   ar
    38    42    43    1
    39    42    44   ar
    40    44    45   ar
    41    36    37   ar
    42    37    38   ar
    43    38    30   ar
    44     6     1   ar
    45    38    33   ar
    46    12     7    1
    47    45    39   ar
    48    20    15   ar
    49    27    28    1
    50    23    24    1
@<TRIPOS>MOLECULE
*****
 45 50 0 0 0
SMALL
GASTEIGER

@<TRIPOS>ATOM
      1 C          13.2312   83.4272   25.4669 C.ar    1  UNL1        0.0702
      2 C          13.3230   83.6316   24.0812 C.ar    1  UNL1        0.0191
      3 C          13.9979   84.7457   23.5803 C.ar    1  UNL1        0.0356
      4 C          14.5666   85.6691   24.4707 C.ar    1  UNL1        0.1318
      5 N          14.4547   85.4559   25.8114 N.ar    1  UNL1       -0.2279
      6 C          13.8010   84.3791   26.3216 C.ar    1  UNL1        0.1149
      7 N          15.2906   86.8162   23.9882 N.pl3   1  UNL1       -0.2932
      8 C          14.9428   88.1603   24.4820 C.3     1  UNL1        0.0923
      9 C          15.6356   89.2660   23.6676 C.3     1  UNL1        0.0252
     10 C          15.8171   88.8526   22.1959 C.3     1  UNL1        0.0472
     11 C          16.7403   87.6144   22.1143 C.3     1  UNL1        0.0252
     12 C          16.5565   86.6098   23.2714 C.3     1  UNL1        0.0923
     13 C          14.4502   88.6597   21.4961 C.3     1  UNL1        0.2054
     14 O          14.6070   88.2171   20.1457 O.3     1  UNL1       -0.4755
     15 C          14.1934   86.9785   19.6222 C.ar    1  UNL1        0.1388
     16 C          12.8394   86.6340   19.4328 C.ar    1  UNL1        0.0369
     17 C          12.4986   85.3857   18.9089 C.ar    1  UNL1        0.0033
     18 C          13.4943   84.4688   18.5682 C.ar    1  UNL1        0.0066
     19 C          14.8496   84.7912   18.7527 C.ar    1  UNL1        0.0785
     20 C          15.1856   86.0497   19.2821 C.ar    1  UNL1        0.0433
     21 C          15.9104   83.8228   18.3971 C.2     1  UNL1        0.3381
     22 O          16.6244   84.0046   17.3737 O.2     1  UNL1       -0.2451
     23 O          16.1307   82.6998   19.1905 O.3     1  UNL1       -0.4771
     24 H          16.8543   82.0307   18.9559 H       1  UNL1        0.2954
     25 C          11.3777   81.6940   25.4104 C.2     1  UNL1        0.2839
     26 O          11.0786   81.9604   24.2152 O.2     1  UNL1       -0.2665
     27 N          12.5261   82.3036   26.0218 N.am    1  UNL1       -0.2766
     28 H          12.9257   81.8511   26.8752 H       1  UNL1        0.1553
     29 C           9.5817   79.3242   24.2142 C.3     1  UNL1        0.0345
     30 C           9.7851   79.6867   25.6544 C.ar    1  UNL1        0.0202
     31 C          10.5711   80.7220   26.1727 C.ar    1  UNL1        0.1946
     32 O          10.4987   80.7277   27.4919 O.2     1  UNL1       -0.4492
     33 C           9.7068   79.7489   27.8561 C.ar    1  UNL1        0.1452
     34 C           9.3479   79.3911   29.1509 C.ar    1  UNL1        0.0375
     35 C           8.4771   78.3003   29.3169 C.ar    1  UNL1        0.0031
     36 C           7.9805   77.5868   28.1926 C.ar    1  UNL1        0.0002
     37 C           8.3711   77.9836   26.8911 C.ar    1  UNL1        0.0028
     38 C           9.2371   79.0708   26.7634 C.ar    1  UNL1        0.0337
     39 C           7.0610   76.4360   28.3804 C.ar    1  UNL1        0.0000
     40 C           7.0594   75.7106   29.5867 C.ar    1  UNL1        0.0004
     41 C           6.1921   74.6280   29.7614 C.ar    1  UNL1        0.0058
     42 C           5.3179   74.2564   28.7364 C.ar    1  UNL1        0.0301
     43 I           4.0113   72.6225   29.0033 I       1  UNL1       -0.0425
     44 C           5.3107   74.9691   27.5344 C.ar    1  UNL1        0.0058
     45 C           6.1756   76.0529   27.3553 C.ar    1  UNL1        0.0004
@<TRIPOS>BOND
     1    29    30    1
     2    30    31   ar
     3    31    25    1
     4    25    26    2
     5    25    27   am
     6    27     1    1
     7     1     2   ar
     8     2     3   ar
     9     3     4   ar
    10     4     7    1
    11     7     8    1
    12     8     9    1
    13     9    10    1
    14    10    13    1
    15    13    14    1
    16    14    15    1
    17    15    16   ar
    18    16    17   ar
    19    17    18   ar
    20    18    19   ar
    21    19    21    1
    22    21    22    2
    23    21    23    1
    24    19    20   ar
    25    10    11    1
    26    11    12    1
    27     4     5   ar
    28     5     6   ar
    29    31    32   ar
    30    32    33   ar
    31    33    34   ar
    32    34    35   ar
    33    35    36   ar
    34    36    39    1
    35    39    40   ar
    36    40    41   ar
    37    41    42   ar
    38    42    43    1
    39    42    44   ar
    40    44    45   ar
    41    36    37   ar
    42    37    38   ar
    43    38    30   ar
    44     6     1   ar
    45    38    33   ar
    46    12     7    1
    47    45    39   ar
    48    20    15   ar
    49    27    28    1
    50    23    24    1
@<TRIPOS>MOLECULE
*****
 45 50 0 0 0
SMALL
GASTEIGER

@<TRIPOS>ATOM
      1 C          13.2790   83.3948   24.9066 C.ar    1  UNL1        0.0702
      2 C          13.3788   83.7986   23.5659 C.ar    1  UNL1        0.0191
      3 C          14.0233   84.9928   23.2398 C.ar    1  UNL1        0.0356
      4 C          14.5529   85.7954   24.2617 C.ar    1  UNL1        0.1318
      5 N          14.4337   85.3887   25.5563 N.ar    1  UNL1       -0.2279
      6 C          13.8092   84.2307   25.8972 C.ar    1  UNL1        0.1149
      7 N          15.2452   87.0211   23.9594 N.pl3   1  UNL1       -0.2932
      8 C          14.7178   88.3014   24.4632 C.3     1  UNL1        0.0923
      9 C          15.4329   89.5051   23.8264 C.3     1  UNL1        0.0252
     10 C          15.8683   89.2022   22.3812 C.3     1  UNL1        0.0472
     11 C          16.8915   88.0424   22.3792 C.3     1  UNL1        0.0252
     12 C          16.6176   86.9542   23.4388 C.3     1  UNL1        0.0923
     13 C          14.6434   88.9562   21.4676 C.3     1  UNL1        0.2054
     14 O          15.0087   88.2643   20.2710 O.3     1  UNL1       -0.4755
     15 C          14.3996   87.1029   19.7618 C.ar    1  UNL1        0.1388
     16 C          13.0021   86.9403   19.6718 C.ar    1  UNL1        0.0369
     17 C          12.4636   85.7600   19.1566 C.ar    1  UNL1        0.0033
     18 C          13.3033   84.7313   18.7263 C.ar    1  UNL1        0.0066
     19 C          14.6990   84.8719   18.8109 C.ar    1  UNL1        0.0785
     20 C          15.2345   86.0630   19.3322 C.ar    1  UNL1        0.0433
     21 C          15.5953   83.7843   18.3599 C.2     1  UNL1        0.3381
     22 O          15.9786   83.7287   17.1600 O.2     1  UNL1       -0.2451
     23 O          16.0247   82.8104   19.2579 O.3     1  UNL1       -0.4771
     24 H          16.6384   82.0616   18.9595 H       1  UNL1        0.2954
     25 C          13.0798   80.8650   24.9650 C.2     1  UNL1        0.2839
     26 O          14.2579   80.6994   24.5482 O.2     1  UNL1       -0.2665
     27 N          12.6040   82.1826   25.2843 N.am    1  UNL1       -0.2766
     28 H          11.7643   82.2648   25.9014 H       1  UNL1        0.1553
     29 C          10.5841   80.6601   26.9654 C.3     1  UNL1        0.0345
     30 C          11.1085   79.6054   26.0382 C.ar    1  UNL1        0.0202
     31 C          12.1983   79.6992   25.1654 C.ar    1  UNL1        0.1946
     32 O          12.3535   78.5614   24.5120 O.2     1  UNL1       -0.4492
     33 C          11.4201   77.7346   24.9154 C.ar    1  UNL1        0.1452
     34 C          11.2105   76.4269   24.4919 C.ar    1  UNL1        0.0375
     35 C          10.1430   75.7116   25.0616 C.ar    1  UNL1        0.0031
     36 C           9.3049   76.3105   26.0407 C.ar    1  UNL1        0.0002
     37 C           9.5526   77.6447   26.4438 C.ar    1  UNL1        0.0028
     38 C          10.6208   78.3252   25.8573 C.ar    1  UNL1        0.0337
     39 C           8.1802   75.5449   26.6356 C.ar    1  UNL1        0.0000
     40 C           7.2948   74.8203   25.8156 C.ar    1  UNL1        0.0004
     41 C           6.2372   74.0995   26.3781 C.ar    1  UNL1        0.0058
     42 C           6.0499   74.0934   27.7629 C.ar    1  UNL1        0.0301
     43 I           4.4530   73.0054   28.6080 I       1  UNL1       -0.0425
     44 C           6.9224   74.8094   28.5870 C.ar    1  UNL1        0.0058
     45 C           7.9820   75.5309   28.0292 C.ar    1  UNL1        0.0004
@<TRIPOS>BOND
     1    29    30    1
     2    30    31   ar
     3    31    25    1
     4    25    26    2
     5    25    27   am
     6    27     1    1
     7     1     2   ar
     8     2     3   ar
     9     3     4   ar
    10     4     7    1
    11     7     8    1
    12     8     9    1
    13     9    10    1
    14    10    13    1
    15    13    14    1
    16    14    15    1
    17    15    16   ar
    18    16    17   ar
    19    17    18   ar
    20    18    19   ar
    21    19    21    1
    22    21    22    2
    23    21    23    1
    24    19    20   ar
    25    10    11    1
    26    11    12    1
    27     4     5   ar
    28     5     6   ar
    29    31    32   ar
    30    32    33   ar
    31    33    34   ar
    32    34    35   ar
    33    35    36   ar
    34    36    39    1
    35    39    40   ar
    36    40    41   ar
    37    41    42   ar
    38    42    43    1
    39    42    44   ar
    40    44    45   ar
    41    36    37   ar
    42    37    38   ar
    43    38    30   ar
    44     6     1   ar
    45    38    33   ar
    46    12     7    1
    47    45    39   ar
    48    20    15   ar
    49    27    28    1
    50    23    24    1
@<TRIPOS>MOLECULE
*****
 45 50 0 0 0
SMALL
GASTEIGER

@<TRIPOS>ATOM
      1 C          13.0479   83.3255   24.6278 C.ar    1  UNL1        0.0702
      2 C          12.7075   84.6755   24.8069 C.ar    1  UNL1        0.0191
      3 C          13.3873   85.6693   24.1011 C.ar    1  UNL1        0.0356
      4 C          14.4250   85.3113   23.2271 C.ar    1  UNL1        0.1318
      5 N          14.7454   83.9957   23.0784 N.ar    1  UNL1       -0.2279
      6 C          14.0981   83.0115   23.7563 C.ar    1  UNL1        0.1149
      7 N          15.1309   86.3084   22.4651 N.pl3   1  UNL1       -0.2932
      8 C          16.5363   86.6134   22.7859 C.3     1  UNL1        0.0923
      9 C          17.0311   87.8706   22.0506 C.3     1  UNL1        0.0252
     10 C          15.8966   88.8926   21.8552 C.3     1  UNL1        0.0472
     11 C          14.7921   88.2784   20.9636 C.3     1  UNL1        0.0252
     12 C          14.5583   86.7702   21.1932 C.3     1  UNL1        0.0923
     13 C          15.3795   89.4216   23.2147 C.3     1  UNL1        0.2054
     14 O          14.0077   89.0792   23.4265 O.3     1  UNL1       -0.4755
     15 C          13.3422   89.0353   24.6652 C.ar    1  UNL1        0.1388
     16 C          12.0266   89.5068   24.8518 C.ar    1  UNL1        0.0369
     17 C          11.4257   89.4338   26.1096 C.ar    1  UNL1        0.0033
     18 C          12.1213   88.8939   27.1927 C.ar    1  UNL1        0.0066
     19 C          13.4348   88.4219   27.0288 C.ar    1  UNL1        0.0785
     20 C          14.0344   88.4998   25.7593 C.ar    1  UNL1        0.0433
     21 C          14.1796   87.8515   28.1731 C.2     1  UNL1        0.3381
     22 O          15.4345   87.9576   28.2352 O.2     1  UNL1       -0.2451
     23 O          13.5005   87.1913   29.1939 O.3     1  UNL1       -0.4771
     24 H          14.0008   86.7972   29.9818 H       1  UNL1        0.2954
     25 C          11.4161   81.3868   24.7734 C.2     1  UNL1        0.2839
     26 O          11.2805   81.3244   23.5218 O.2     1  UNL1       -0.2665
     27 N          12.3858   82.2748   25.3525 N.am    1  UNL1       -0.2766
     28 H          12.6928   82.0927   26.3350 H       1  UNL1        0.1553
     29 C           9.5005   78.9864   23.8562 C.3     1  UNL1        0.0345
     30 C           9.7683   79.4679   25.2503 C.ar    1  UNL1        0.0202
     31 C          10.6064   80.5161   25.6467 C.ar    1  UNL1        0.1946
     32 O          10.5824   80.6415   26.9617 O.2     1  UNL1       -0.4492
     33 C           9.7726   79.7282   27.4389 C.ar    1  UNL1        0.1452
     34 C           9.4496   79.5000   28.7719 C.ar    1  UNL1        0.0375
     35 C           8.5500   78.4604   29.0645 C.ar    1  UNL1        0.0031
     36 C           7.9894   77.6682   28.0263 C.ar    1  UNL1        0.0002
     37 C           8.3451   77.9335   26.6820 C.ar    1  UNL1        0.0028
     38 C           9.2412   78.9731   26.4280 C.ar    1  UNL1        0.0337
     39 C           7.0400   76.5727   28.3476 C.ar    1  UNL1        0.0000
     40 C           6.1157   76.1217   27.3865 C.ar    1  UNL1        0.0004
     41 C           5.2234   75.0894   27.6912 C.ar    1  UNL1        0.0058
     42 C           5.2419   74.4961   28.9563 C.ar    1  UNL1        0.0301
     43 I           3.8940   72.9395   29.4126 I       1  UNL1       -0.0425
     44 C           6.1549   74.9357   29.9186 C.ar    1  UNL1        0.0058
     45 C           7.0497   75.9671   29.6184 C.ar    1  UNL1        0.0004
@<TRIPOS>BOND
     1    29    30    1
     2    30    31   ar
     3    31    25    1
     4    25    26    2
     5    25    27   am
     6    27     1    1
     7     1     2   ar
     8     2     3   ar
     9     3     4   ar
    10     4     7    1
    11     7     8    1
    12     8     9    1
    13     9    10    1
    14    10    13    1
    15    13    14    1
    16    14    15    1
    17    15    16   ar
    18    16    17   ar
    19    17    18   ar
    20    18    19   ar
    21    19    21    1
    22    21    22    2
    23    21    23    1
    24    19    20   ar
    25    10    11    1
    26    11    12    1
    27     4     5   ar
    28     5     6   ar
    29    31    32   ar
    30    32    33   ar
    31    33    34   ar
    32    34    35   ar
    33    35    36   ar
    34    36    39    1
    35    39    40   ar
    36    40    41   ar
    37    41    42   ar
    38    42    43    1
    39    42    44   ar
    40    44    45   ar
    41    36    37   ar
    42    37    38   ar
    43    38    30   ar
    44     6     1   ar
    45    38    33   ar
    46    12     7    1
    47    45    39   ar
    48    20    15   ar
    49    27    28    1
    50    23    24    1
@<TRIPOS>MOLECULE
*****
 45 50 0 0 0
SMALL
GASTEIGER

@<TRIPOS>ATOM
      1 C          13.0913   83.4993   25.2765 C.ar    1  UNL1        0.0702
      2 C          13.7074   84.5088   26.0327 C.ar    1  UNL1        0.0191
      3 C          14.3530   85.5682   25.3934 C.ar    1  UNL1        0.0356
      4 C          14.3986   85.6068   23.9914 C.ar    1  UNL1        0.1318
      5 N          13.8037   84.6098   23.2789 N.ar    1  UNL1       -0.2279
      6 C          13.1708   83.5681   23.8801 C.ar    1  UNL1        0.1149
      7 N          15.0350   86.6971   23.2993 N.pl3   1  UNL1       -0.2932
      8 C          14.5199   88.0676   23.4652 C.3     1  UNL1        0.0923
      9 C          15.1525   89.0425   22.4575 C.3     1  UNL1        0.0252
     10 C          15.4765   88.3439   21.1246 C.3     1  UNL1        0.0472
     11 C          16.5233   87.2306   21.3626 C.3     1  UNL1        0.0252
     12 C          16.3619   86.4858   22.7047 C.3     1  UNL1        0.0923
     13 C          14.1879   87.8501   20.4237 C.3     1  UNL1        0.2054
     14 O          14.2275   86.4422   20.1786 O.3     1  UNL1       -0.4755
     15 C          14.4162   85.8193   18.9313 C.ar    1  UNL1        0.1388
     16 C          14.5709   84.4261   18.7800 C.ar    1  UNL1        0.0369
     17 C          14.7558   83.8732   17.5116 C.ar    1  UNL1        0.0033
     18 C          14.7890   84.6941   16.3831 C.ar    1  UNL1        0.0066
     19 C          14.6406   86.0856   16.5127 C.ar    1  UNL1        0.0785
     20 C          14.4561   86.6357   17.7935 C.ar    1  UNL1        0.0433
     21 C          14.6783   86.9623   15.3213 C.2     1  UNL1        0.3381
     22 O          14.4634   86.4886   14.1726 O.2     1  UNL1       -0.2451
     23 O          14.9517   88.3209   15.4576 O.3     1  UNL1       -0.4771
     24 H          14.9799   88.9298   14.6484 H       1  UNL1        0.2954
     25 C          11.3951   81.6110   25.2737 C.2     1  UNL1        0.2839
     26 O          11.1767   81.7242   24.0375 O.2     1  UNL1       -0.2665
     27 N          12.4353   82.3809   25.8981 N.am    1  UNL1       -0.2766
     28 H          12.7973   82.0569   26.8236 H       1  UNL1        0.1553
     29 C           9.4664   79.3007   24.1715 C.3     1  UNL1        0.0345
     30 C           9.7650   79.6459   25.5993 C.ar    1  UNL1        0.0202
     31 C          10.6087   80.6552   26.0765 C.ar    1  UNL1        0.1946
     32 O          10.6150   80.6522   27.3977 O.2     1  UNL1       -0.4492
     33 C           9.8194   79.6924   27.8022 C.ar    1  UNL1        0.1452
     34 C           9.5282   79.3340   29.1137 C.ar    1  UNL1        0.0375
     35 C           8.6390   78.2660   29.3243 C.ar    1  UNL1        0.0031
     36 C           8.0570   77.5754   28.2270 C.ar    1  UNL1        0.0002
     37 C           8.3804   77.9720   26.9071 C.ar    1  UNL1        0.0028
     38 C           9.2670   79.0362   26.7350 C.ar    1  UNL1        0.0337
     39 C           7.1188   76.4486   28.4619 C.ar    1  UNL1        0.0000
     40 C           6.2034   76.0599   27.4657 C.ar    1  UNL1        0.0004
     41 C           5.3217   74.9981   27.6890 C.ar    1  UNL1        0.0058
     42 C           5.3420   74.3129   28.9067 C.ar    1  UNL1        0.0301
     43 I           4.0102   72.7120   29.2402 I       1  UNL1       -0.0425
     44 C           6.2463   74.6901   29.9032 C.ar    1  UNL1        0.0058
     45 C           7.1305   75.7507   29.6843 C.ar    1  UNL1        0.0004
@<TRIPOS>BOND
     1    29    30    1
     2    30    31   ar
     3    31    25    1
     4    25    26    2
     5    25    27   am
     6    27     1    1
     7     1     2   ar
     8     2     3   ar
     9     3     4   ar
    10     4     7    1
    11     7     8    1
    12     8     9    1
    13     9    10    1
    14    10    13    1
    15    13    14    1
    16    14    15    1
    17    15    16   ar
    18    16    17   ar
    19    17    18   ar
    20    18    19   ar
    21    19    21    1
    22    21    22    2
    23    21    23    1
    24    19    20   ar
    25    10    11    1
    26    11    12    1
    27     4     5   ar
    28     5     6   ar
    29    31    32   ar
    30    32    33   ar
    31    33    34   ar
    32    34    35   ar
    33    35    36   ar
    34    36    39    1
    35    39    40   ar
    36    40    41   ar
    37    41    42   ar
    38    42    43    1
    39    42    44   ar
    40    44    45   ar
    41    36    37   ar
    42    37    38   ar
    43    38    30   ar
    44     6     1   ar
    45    38    33   ar
    46    12     7    1
    47    45    39   ar
    48    20    15   ar
    49    27    28    1
    50    23    24    1
@<TRIPOS>MOLECULE
*****
 45 50 0 0 0
SMALL
GASTEIGER

@<TRIPOS>ATOM
      1 C           8.0962   78.9662   26.6095 C.ar    1  UNL1        0.0702
      2 C           7.9007   77.7190   25.9959 C.ar    1  UNL1        0.0191
      3 C           6.9774   76.8153   26.5237 C.ar    1  UNL1        0.0356
      4 C           6.2611   77.1540   27.6818 C.ar    1  UNL1        0.1318
      5 N           6.4762   78.3654   28.2664 N.ar    1  UNL1       -0.2279
      6 C           7.3710   79.2602   27.7709 C.ar    1  UNL1        0.1149
      7 N           5.2836   76.2558   28.2392 N.pl3   1  UNL1       -0.2932
      8 C           4.3755   76.7302   29.2981 C.3     1  UNL1        0.0923
      9 C           3.5935   75.5728   29.9421 C.3     1  UNL1        0.0252
     10 C           4.4220   74.2756   29.9634 C.3     1  UNL1        0.0472
     11 C           4.7313   73.8330   28.5141 C.3     1  UNL1        0.0252
     12 C           4.9883   74.9995   27.5366 C.3     1  UNL1        0.0923
     13 C           5.6803   74.4296   30.8514 C.3     1  UNL1        0.2054
     14 O           6.8753   74.1180   30.1311 O.3     1  UNL1       -0.4755
     15 C           7.9003   75.0190   29.7893 C.ar    1  UNL1        0.1388
     16 C           8.8967   74.7286   28.8350 C.ar    1  UNL1        0.0369
     17 C           9.8864   75.6691   28.5440 C.ar    1  UNL1        0.0033
     18 C           9.8981   76.9040   29.1945 C.ar    1  UNL1        0.0066
     19 C           8.9162   77.2117   30.1516 C.ar    1  UNL1        0.0785
     20 C           7.9232   76.2591   30.4408 C.ar    1  UNL1        0.0433
     21 C           8.9244   78.5174   30.8477 C.2     1  UNL1        0.3381
     22 O           9.9909   79.1832   30.9441 O.2     1  UNL1       -0.2451
     23 O           7.7525   79.0241   31.4037 O.3     1  UNL1       -0.4771
     24 H           7.7472   79.9170   31.8823 H       1  UNL1        0.2954
     25 C          10.4741   79.7922   26.2837 C.2     1  UNL1        0.2839
     26 O          10.9734   78.7028   26.6746 O.2     1  UNL1       -0.2665
     27 N           9.0533   79.9152   26.1085 N.am    1  UNL1       -0.2766
     28 H           8.6986   80.6937   25.5078 H       1  UNL1        0.1553
     29 C          11.0006   81.0673   23.3907 C.3     1  UNL1        0.0345
     30 C          11.5863   81.4925   24.7034 C.ar    1  UNL1        0.0202
     31 C          11.3530   80.9334   25.9649 C.ar    1  UNL1        0.1946
     32 O          12.0512   81.5795   26.8818 O.2     1  UNL1       -0.4492
     33 C          12.7247   82.5293   26.2803 C.ar    1  UNL1        0.1452
     34 C          13.5895   83.4493   26.8625 C.ar    1  UNL1        0.0375
     35 C          14.2147   84.3894   26.0251 C.ar    1  UNL1        0.0031
     36 C          13.9675   84.3964   24.6257 C.ar    1  UNL1        0.0002
     37 C          13.0794   83.4425   24.0731 C.ar    1  UNL1        0.0028
     38 C          12.4762   82.5242   24.9339 C.ar    1  UNL1        0.0337
     39 C          14.6338   85.3944   23.7510 C.ar    1  UNL1        0.0000
     40 C          15.0898   86.6172   24.2784 C.ar    1  UNL1        0.0004
     41 C          15.7176   87.5548   23.4529 C.ar    1  UNL1        0.0058
     42 C          15.8972   87.2846   22.0936 C.ar    1  UNL1        0.0301
     43 I          16.8442   88.7016   20.8513 I       1  UNL1       -0.0425
     44 C          15.4483   86.0741   21.5588 C.ar    1  UNL1        0.0058
     45 C          14.8207   85.1330   22.3804 C.ar    1  UNL1        0.0004
@<TRIPOS>BOND
     1    29    30    1
     2    30    31   ar
     3    31    25    1
     4    25    26    2
     5    25    27   am
     6    27     1    1
     7     1     2   ar
     8     2     3   ar
     9     3     4   ar
    10     4     7    1
    11     7     8    1
    12     8     9    1
    13     9    10    1
    14    10    13    1
    15    13    14    1
    16    14    15    1
    17    15    16   ar
    18    16    17   ar
    19    17    18   ar
    20    18    19   ar
    21    19    21    1
    22    21    22    2
    23    21    23    1
    24    19    20   ar
    25    10    11    1
    26    11    12    1
    27     4     5   ar
    28     5     6   ar
    29    31    32   ar
    30    32    33   ar
    31    33    34   ar
    32    34    35   ar
    33    35    36   ar
    34    36    39    1
    35    39    40   ar
    36    40    41   ar
    37    41    42   ar
    38    42    43    1
    39    42    44   ar
    40    44    45   ar
    41    36    37   ar
    42    37    38   ar
    43    38    30   ar
    44     6     1   ar
    45    38    33   ar
    46    12     7    1
    47    45    39   ar
    48    20    15   ar
    49    27    28    1
    50    23    24    1
@<TRIPOS>MOLECULE
*****
 45 50 0 0 0
SMALL
GASTEIGER

@<TRIPOS>ATOM
      1 C           8.8003   78.1963   26.5241 C.ar    1  UNL1        0.0702
      2 C           7.5077   77.9123   26.0561 C.ar    1  UNL1        0.0191
      3 C           6.7703   76.8716   26.6225 C.ar    1  UNL1        0.0356
      4 C           7.3366   76.0999   27.6485 C.ar    1  UNL1        0.1318
      5 N           8.5970   76.3867   28.0782 N.ar    1  UNL1       -0.2279
      6 C           9.3339   77.3942   27.5404 C.ar    1  UNL1        0.1149
      7 N           6.5950   75.0346   28.2716 N.pl3   1  UNL1       -0.2932
      8 C           5.3499   74.5505   27.6500 C.3     1  UNL1        0.0923
      9 C           4.5733   73.6071   28.5843 C.3     1  UNL1        0.0252
     10 C           4.7661   73.9927   30.0621 C.3     1  UNL1        0.0472
     11 C           6.2573   73.8483   30.4462 C.3     1  UNL1        0.0252
     12 C           7.2415   74.2367   29.3226 C.3     1  UNL1        0.0923
     13 C           4.1782   75.3939   30.3562 C.3     1  UNL1        0.2054
     14 O           5.1230   76.2321   31.0263 O.3     1  UNL1       -0.4755
     15 C           5.7644   77.3615   30.4857 C.ar    1  UNL1        0.1388
     16 C           5.1600   78.2125   29.5379 C.ar    1  UNL1        0.0369
     17 C           5.8545   79.3169   29.0413 C.ar    1  UNL1        0.0033
     18 C           7.1521   79.5881   29.4784 C.ar    1  UNL1        0.0066
     19 C           7.7739   78.7502   30.4198 C.ar    1  UNL1        0.0785
     20 C           7.0690   77.6387   30.9146 C.ar    1  UNL1        0.0433
     21 C           9.1505   79.0295   30.8851 C.2     1  UNL1        0.3381
     22 O           9.4613   78.8643   32.0959 O.2     1  UNL1       -0.2451
     23 O          10.1173   79.4781   29.9888 O.3     1  UNL1       -0.4771
     24 H          11.0626   79.6723   30.2971 H       1  UNL1        0.2954
     25 C          11.0200   79.3636   26.1327 C.2     1  UNL1        0.2839
     26 O          11.6821   78.3993   26.6023 O.2     1  UNL1       -0.2665
     27 N           9.5995   79.2458   25.9519 N.am    1  UNL1       -0.2766
     28 H           9.1315   79.9116   25.2958 H       1  UNL1        0.1553
     29 C          10.7279   80.9047   23.3377 C.3     1  UNL1        0.0345
     30 C          11.5858   81.2787   24.5088 C.ar    1  UNL1        0.0202
     31 C          11.7097   80.6033   25.7281 C.ar    1  UNL1        0.1946
     32 O          12.5632   81.2382   26.5118 O.2     1  UNL1       -0.4492
     33 C          12.9987   82.2909   25.8640 C.ar    1  UNL1        0.1452
     34 C          13.9117   83.2393   26.3116 C.ar    1  UNL1        0.0375
     35 C          14.2432   84.2964   25.4464 C.ar    1  UNL1        0.0031
     36 C          13.6605   84.3897   24.1536 C.ar    1  UNL1        0.0002
     37 C          12.7348   83.4031   23.7368 C.ar    1  UNL1        0.0028
     38 C          12.4286   82.3679   24.6215 C.ar    1  UNL1        0.0337
     39 C          14.0185   85.5110   23.2483 C.ar    1  UNL1        0.0000
     40 C          15.2515   85.5169   22.5693 C.ar    1  UNL1        0.0004
     41 C          15.5859   86.5734   21.7167 C.ar    1  UNL1        0.0058
     42 C          14.6961   87.6350   21.5321 C.ar    1  UNL1        0.0301
     43 I          15.2041   89.2272   20.2457 I       1  UNL1       -0.0425
     44 C          13.4693   87.6401   22.2012 C.ar    1  UNL1        0.0058
     45 C          13.1301   86.5855   23.0540 C.ar    1  UNL1        0.0004
@<TRIPOS>BOND
     1    29    30    1
     2    30    31   ar
     3    31    25    1
     4    25    26    2
     5    25    27   am
     6    27     1    1
     7     1     2   ar
     8     2     3   ar
     9     3     4   ar
    10     4     7    1
    11     7     8    1
    12     8     9    1
    13     9    10    1
    14    10    13    1
    15    13    14    1
    16    14    15    1
    17    15    16   ar
    18    16    17   ar
    19    17    18   ar
    20    18    19   ar
    21    19    21    1
    22    21    22    2
    23    21    23    1
    24    19    20   ar
    25    10    11    1
    26    11    12    1
    27     4     5   ar
    28     5     6   ar
    29    31    32   ar
    30    32    33   ar
    31    33    34   ar
    32    34    35   ar
    33    35    36   ar
    34    36    39    1
    35    39    40   ar
    36    40    41   ar
    37    41    42   ar
    38    42    43    1
    39    42    44   ar
    40    44    45   ar
    41    36    37   ar
    42    37    38   ar
    43    38    30   ar
    44     6     1   ar
    45    38    33   ar
    46    12     7    1
    47    45    39   ar
    48    20    15   ar
    49    27    28    1
    50    23    24    1
@<TRIPOS>MOLECULE
*****
 45 50 0 0 0
SMALL
GASTEIGER

@<TRIPOS>ATOM
      1 C           8.4846   79.1128   28.1527 C.ar    1  UNL1        0.0702
      2 C           9.0505   78.2142   29.0705 C.ar    1  UNL1        0.0191
      3 C           8.2570   77.2395   29.6772 C.ar    1  UNL1        0.0356
      4 C           6.8875   77.1767   29.3783 C.ar    1  UNL1        0.1318
      5 N           6.3584   78.0668   28.4932 N.ar    1  UNL1       -0.2279
      6 C           7.1116   79.0250   27.8918 C.ar    1  UNL1        0.1149
      7 N           6.0447   76.1688   29.9672 N.pl3   1  UNL1       -0.2932
      8 C           6.6537   74.9837   30.5964 C.3     1  UNL1        0.0923
      9 C           5.6041   73.9096   30.9290 C.3     1  UNL1        0.0252
     10 C           4.4529   73.9108   29.9070 C.3     1  UNL1        0.0472
     11 C           3.7127   75.2678   29.9600 C.3     1  UNL1        0.0252
     12 C           4.6311   76.4807   30.2193 C.3     1  UNL1        0.0923
     13 C           4.9579   73.5296   28.4945 C.3     1  UNL1        0.2054
     14 O           4.4360   74.4067   27.4934 O.3     1  UNL1       -0.4755
     15 C           5.1849   75.2541   26.6565 C.ar    1  UNL1        0.1388
     16 C           4.6100   76.2936   25.8972 C.ar    1  UNL1        0.0369
     17 C           5.4122   77.0975   25.0855 C.ar    1  UNL1        0.0033
     18 C           6.7893   76.8794   25.0187 C.ar    1  UNL1        0.0066
     19 C           7.3815   75.8461   25.7646 C.ar    1  UNL1        0.0785
     20 C           6.5672   75.0394   26.5791 C.ar    1  UNL1        0.0433
     21 C           8.8401   75.6068   25.6961 C.2     1  UNL1        0.3381
     22 O           9.3262   74.8798   24.7877 O.2     1  UNL1       -0.2451
     23 O           9.6912   76.1833   26.6356 O.3     1  UNL1       -0.4771
     24 H          10.6912   76.0259   26.5976 H       1  UNL1        0.2954
     25 C          10.3493   79.8908   26.6163 C.2     1  UNL1        0.2839
     26 O          10.5123   78.7405   26.1273 O.2     1  UNL1       -0.2665
     27 N           9.2643   80.1442   27.5234 N.am    1  UNL1       -0.2766
     28 H           8.9673   81.1360   27.6682 H       1  UNL1        0.1553
     29 C          10.7838   81.0674   23.6668 C.3     1  UNL1        0.0345
     30 C          11.4431   81.5081   24.9389 C.ar    1  UNL1        0.0202
     31 C          11.2498   80.9921   26.2253 C.ar    1  UNL1        0.1946
     32 O          12.0103   81.6388   27.0908 O.2     1  UNL1       -0.4492
     33 C          12.6863   82.5482   26.4323 C.ar    1  UNL1        0.1452
     34 C          13.6069   83.4536   26.9481 C.ar    1  UNL1        0.0375
     35 C          14.2234   84.3485   26.0565 C.ar    1  UNL1        0.0031
     36 C          13.9125   84.3256   24.6700 C.ar    1  UNL1        0.0002
     37 C          12.9690   83.3878   24.1858 C.ar    1  UNL1        0.0028
     38 C          12.3761   82.5147   25.0991 C.ar    1  UNL1        0.0337
     39 C          14.5703   85.2758   23.7376 C.ar    1  UNL1        0.0000
     40 C          15.0459   86.5177   24.1989 C.ar    1  UNL1        0.0004
     41 C          15.6657   87.4103   23.3193 C.ar    1  UNL1        0.0058
     42 C          15.8177   87.0756   21.9710 C.ar    1  UNL1        0.0301
     43 I          16.7527   88.4248   20.6468 I       1  UNL1       -0.0425
     44 C          15.3492   85.8456   21.5016 C.ar    1  UNL1        0.0058
     45 C          14.7295   84.9494   22.3776 C.ar    1  UNL1        0.0004
@<TRIPOS>BOND
     1    29    30    1
     2    30    31   ar
     3    31    25    1
     4    25    26    2
     5    25    27   am
     6    27     1    1
     7     1     2   ar
     8     2     3   ar
     9     3     4   ar
    10     4     7    1
    11     7     8    1
    12     8     9    1
    13     9    10    1
    14    10    13    1
    15    13    14    1
    16    14    15    1
    17    15    16   ar
    18    16    17   ar
    19    17    18   ar
    20    18    19   ar
    21    19    21    1
    22    21    22    2
    23    21    23    1
    24    19    20   ar
    25    10    11    1
    26    11    12    1
    27     4     5   ar
    28     5     6   ar
    29    31    32   ar
    30    32    33   ar
    31    33    34   ar
    32    34    35   ar
    33    35    36   ar
    34    36    39    1
    35    39    40   ar
    36    40    41   ar
    37    41    42   ar
    38    42    43    1
    39    42    44   ar
    40    44    45   ar
    41    36    37   ar
    42    37    38   ar
    43    38    30   ar
    44     6     1   ar
    45    38    33   ar
    46    12     7    1
    47    45    39   ar
    48    20    15   ar
    49    27    28    1
    50    23    24    1
@<TRIPOS>MOLECULE
*****
 45 50 0 0 0
SMALL
GASTEIGER

@<TRIPOS>ATOM
      1 C           8.4506   77.9001   25.8279 C.ar    1  UNL1        0.0702
      2 C           8.6055   76.5585   25.4452 C.ar    1  UNL1        0.0191
      3 C           7.7075   75.5918   25.8999 C.ar    1  UNL1        0.0356
      4 C           6.6615   75.9666   26.7568 C.ar    1  UNL1        0.1318
      5 N           6.5381   77.2726   27.1240 N.ar    1  UNL1       -0.2279
      6 C           7.4015   78.2304   26.6947 C.ar    1  UNL1        0.1149
      7 N           5.7031   74.9997   27.2252 N.pl3   1  UNL1       -0.2932
      8 C           4.3369   75.4324   27.5683 C.3     1  UNL1        0.0923
      9 C           3.5500   74.3246   28.2889 C.3     1  UNL1        0.0252
     10 C           4.4740   73.4475   29.1529 C.3     1  UNL1        0.0472
     11 C           5.5017   72.7276   28.2486 C.3     1  UNL1        0.0252
     12 C           5.9909   73.5694   27.0511 C.3     1  UNL1        0.0923
     13 C           5.1160   74.2685   30.2971 C.3     1  UNL1        0.2054
     14 O           6.5348   74.0973   30.3371 O.3     1  UNL1       -0.4755
     15 C           7.5002   75.0718   30.0246 C.ar    1  UNL1        0.1388
     16 C           7.3464   76.4383   30.3357 C.ar    1  UNL1        0.0369
     17 C           8.3444   77.3531   29.9956 C.ar    1  UNL1        0.0033
     18 C           9.5023   76.9234   29.3452 C.ar    1  UNL1        0.0066
     19 C           9.6734   75.5663   29.0227 C.ar    1  UNL1        0.0785
     20 C           8.6635   74.6506   29.3671 C.ar    1  UNL1        0.0433
     21 C          10.8966   75.1041   28.3302 C.2     1  UNL1        0.3381
     22 O          11.0099   75.2310   27.0807 O.2     1  UNL1       -0.2451
     23 O          11.9359   74.5238   29.0529 O.3     1  UNL1       -0.4771
     24 H          12.7776   74.2040   28.5885 H       1  UNL1        0.2954
     25 C          10.6458   79.1617   26.0078 C.2     1  UNL1        0.2839
     26 O          11.1402   78.3153   26.8004 O.2     1  UNL1       -0.2665
     27 N           9.3672   78.9211   25.3980 N.am    1  UNL1       -0.2766
     28 H           9.1248   79.4619   24.5369 H       1  UNL1        0.1553
     29 C          10.4957   80.8247   23.2720 C.3     1  UNL1        0.0345
     30 C          11.3372   81.1131   24.4785 C.ar    1  UNL1        0.0202
     31 C          11.3992   80.3847   25.6718 C.ar    1  UNL1        0.1946
     32 O          12.2581   80.9492   26.5019 O.2     1  UNL1       -0.4492
     33 C          12.7560   82.0066   25.9090 C.ar    1  UNL1        0.1452
     34 C          13.6969   82.8949   26.4178 C.ar    1  UNL1        0.0375
     35 C          14.0970   83.9699   25.6053 C.ar    1  UNL1        0.0031
     36 C          13.5537   84.1406   24.3033 C.ar    1  UNL1        0.0002
     37 C          12.5975   83.2135   23.8233 C.ar    1  UNL1        0.0028
     38 C          12.2232   82.1584   24.6569 C.ar    1  UNL1        0.0337
     39 C          13.9841   85.2801   23.4540 C.ar    1  UNL1        0.0000
     40 C          13.1511   86.4023   23.2861 C.ar    1  UNL1        0.0004
     41 C          13.5590   87.4743   22.4867 C.ar    1  UNL1        0.0058
     42 C          14.8003   87.4395   21.8457 C.ar    1  UNL1        0.0301
     43 I          15.4121   89.0582   20.6401 I       1  UNL1       -0.0425
     44 C          15.6356   86.3305   22.0048 C.ar    1  UNL1        0.0058
     45 C          15.2325   85.2565   22.8039 C.ar    1  UNL1        0.0004
@<TRIPOS>BOND
     1    29    30    1
     2    30    31   ar
     3    31    25    1
     4    25    26    2
     5    25    27   am
     6    27     1    1
     7     1     2   ar
     8     2     3   ar
     9     3     4   ar
    10     4     7    1
    11     7     8    1
    12     8     9    1
    13     9    10    1
    14    10    13    1
    15    13    14    1
    16    14    15    1
    17    15    16   ar
    18    16    17   ar
    19    17    18   ar
    20    18    19   ar
    21    19    21    1
    22    21    22    2
    23    21    23    1
    24    19    20   ar
    25    10    11    1
    26    11    12    1
    27     4     5   ar
    28     5     6   ar
    29    31    32   ar
    30    32    33   ar
    31    33    34   ar
    32    34    35   ar
    33    35    36   ar
    34    36    39    1
    35    39    40   ar
    36    40    41   ar
    37    41    42   ar
    38    42    43    1
    39    42    44   ar
    40    44    45   ar
    41    36    37   ar
    42    37    38   ar
    43    38    30   ar
    44     6     1   ar
    45    38    33   ar
    46    12     7    1
    47    45    39   ar
    48    20    15   ar
    49    27    28    1
    50    23    24    1
