@<TRIPOS>MOLECULE
*****
 34 39 0 0 0
SMALL
GASTEIGER

@<TRIPOS>ATOM
      1 C          61.3249   86.2930   12.4518 C.ar    1  UNL1        0.1534
      2 N          61.6169   86.7169   11.1960 N.ar    1  UNL1       -0.1329
      3 N          62.4322   87.7452   10.9704 N.ar    1  UNL1       -0.1468
      4 C          63.0233   88.4357   11.9801 C.ar    1  UNL1        0.1029
      5 C          62.7298   88.0812   13.3174 C.ar    1  UNL1        0.0221
      6 C          63.2310   88.8089   14.4177 C.ar    1  UNL1        0.0016
      7 C          62.9033   88.4364   15.7225 C.ar    1  UNL1        0.0001
      8 C          62.0605   87.3506   15.9519 C.ar    1  UNL1        0.0001
      9 C          61.5352   86.6313   14.8780 C.ar    1  UNL1        0.0029
     10 C          61.8651   86.9827   13.5543 C.ar    1  UNL1        0.0349
     11 C          58.3279   84.8730   13.8134 C.3     1  UNL1        0.0233
     12 C          59.0088   85.3160   12.5134 C.3     1  UNL1        0.0941
     13 C          58.4858   84.5231   11.3035 C.3     1  UNL1        0.1134
     14 N          59.0580   83.1707   11.2871 N.am    1  UNL1       -0.2726
     15 C          58.2835   82.0862   10.7452 C.2     1  UNL1        0.2491
     16 O          57.5163   82.3031    9.7673 O.2     1  UNL1       -0.2699
     17 C          60.5187   83.0427   11.3782 C.3     1  UNL1        0.1152
     18 C          61.0369   83.8015   12.5992 C.3     1  UNL1        0.1137
     19 N          60.4660   85.1538   12.6199 N.pl3   1  UNL1       -0.2900
     20 C          58.3569   80.7243   11.3254 C.ar    1  UNL1        0.0536
     21 C          58.0646   79.5987   10.5332 C.ar    1  UNL1        0.0045
     22 C          58.1223   78.3135   11.0814 C.ar    1  UNL1        0.0001
     23 C          58.4634   78.1391   12.4245 C.ar    1  UNL1        0.0000
     24 C          58.7434   79.2499   13.2235 C.ar    1  UNL1        0.0001
     25 C          58.6873   80.5369   12.6803 C.ar    1  UNL1        0.0045
     26 C          63.9505   89.5285   11.6175 C.ar    1  UNL1        0.0194
     27 C          64.9991   89.8920   12.4745 C.ar    1  UNL1        0.0012
     28 C          65.8921   90.9024   12.1084 C.ar    1  UNL1       -0.0042
     29 C          65.7672   91.5601   10.8738 C.ar    1  UNL1       -0.0225
     30 C          64.7229   91.1735   10.0054 C.ar    1  UNL1       -0.0042
     31 C          63.8306   90.1624   10.3740 C.ar    1  UNL1        0.0012
     32 C          66.7768   92.6483   10.5490 C.3     1  UNL1        0.0224
     33 C          66.4638   93.5622    9.3720 C.3     1  UNL1        0.0047
     34 C          67.5584   92.5091    9.2496 C.3     1  UNL1        0.0047
@<TRIPOS>BOND
     1    11    12    1
     2    12    13    1
     3    13    14    1
     4    14    15   am
     5    15    16    2
     6    15    20    1
     7    20    21   ar
     8    21    22   ar
     9    22    23   ar
    10    23    24   ar
    11    24    25   ar
    12    14    17    1
    13    17    18    1
    14    18    19    1
    15    19     1    1
    16     1     2   ar
    17     2     3   ar
    18     3     4   ar
    19     4    26    1
    20    26    27   ar
    21    27    28   ar
    22    28    29   ar
    23    29    32    1
    24    32    33    1
    25    33    34    1
    26    29    30   ar
    27    30    31   ar
    28     4     5   ar
    29     5     6   ar
    30     6     7   ar
    31     7     8   ar
    32     8     9   ar
    33     9    10   ar
    34    19    12    1
    35    10     1   ar
    36    25    20   ar
    37    31    26   ar
    38    10     5   ar
    39    34    32    1
@<TRIPOS>MOLECULE
*****
 34 39 0 0 0
SMALL
GASTEIGER

@<TRIPOS>ATOM
      1 C          61.5452   85.9803   12.9320 C.ar    1  UNL1        0.1534
      2 N          62.2683   86.1135   14.0728 N.ar    1  UNL1       -0.1329
      3 N          63.1628   87.0870   14.2313 N.ar    1  UNL1       -0.1468
      4 C          63.4097   88.0080   13.2636 C.ar    1  UNL1        0.1029
      5 C          62.7278   87.9055   12.0288 C.ar    1  UNL1        0.0221
      6 C          62.9979   88.7672   10.9444 C.ar    1  UNL1        0.0016
      7 C          62.3146   88.6216    9.7359 C.ar    1  UNL1        0.0001
      8 C          61.3696   87.6091    9.5814 C.ar    1  UNL1        0.0001
      9 C          61.1035   86.7316   10.6329 C.ar    1  UNL1        0.0029
     10 C          61.7723   86.8707   11.8649 C.ar    1  UNL1        0.0349
     11 C          58.2676   84.7491   13.7027 C.3     1  UNL1        0.0233
     12 C          59.1649   85.2563   12.5680 C.3     1  UNL1        0.0941
     13 C          58.7502   84.6614   11.2114 C.3     1  UNL1        0.1134
     14 N          59.1934   83.2654   11.1037 N.am    1  UNL1       -0.2726
     15 C          58.4089   82.3362   10.3352 C.2     1  UNL1        0.2491
     16 O          57.8123   82.7398    9.2993 O.2     1  UNL1       -0.2699
     17 C          60.6083   82.9724   11.3693 C.3     1  UNL1        0.1152
     18 C          61.0135   83.5329   12.7320 C.3     1  UNL1        0.1137
     19 N          60.5710   84.9282   12.8441 N.pl3   1  UNL1       -0.2900
     20 C          58.2743   80.9188   10.7476 C.ar    1  UNL1        0.0536
     21 C          58.5626   80.5341   12.0700 C.ar    1  UNL1        0.0045
     22 C          58.4471   79.1957   12.4586 C.ar    1  UNL1        0.0001
     23 C          58.0517   78.2285   11.5318 C.ar    1  UNL1        0.0000
     24 C          57.7749   78.5970   10.2134 C.ar    1  UNL1        0.0001
     25 C          57.8887   79.9337    9.8199 C.ar    1  UNL1        0.0045
     26 C          64.3867   89.0766   13.5621 C.ar    1  UNL1        0.0194
     27 C          64.6673   89.4409   14.8868 C.ar    1  UNL1        0.0012
     28 C          65.6177   90.4277   15.1614 C.ar    1  UNL1       -0.0042
     29 C          66.3188   91.0600   14.1219 C.ar    1  UNL1       -0.0225
     30 C          66.0482   90.6723   12.7912 C.ar    1  UNL1       -0.0042
     31 C          65.0968   89.6850   12.5189 C.ar    1  UNL1        0.0012
     32 C          67.3357   92.1235   14.5018 C.3     1  UNL1        0.0224
     33 C          68.7581   91.6598   14.7850 C.3     1  UNL1        0.0047
     34 C          67.8597   92.1082   15.9314 C.3     1  UNL1        0.0047
@<TRIPOS>BOND
     1    11    12    1
     2    12    13    1
     3    13    14    1
     4    14    15   am
     5    15    16    2
     6    15    20    1
     7    20    21   ar
     8    21    22   ar
     9    22    23   ar
    10    23    24   ar
    11    24    25   ar
    12    14    17    1
    13    17    18    1
    14    18    19    1
    15    19     1    1
    16     1     2   ar
    17     2     3   ar
    18     3     4   ar
    19     4    26    1
    20    26    27   ar
    21    27    28   ar
    22    28    29   ar
    23    29    32    1
    24    32    33    1
    25    33    34    1
    26    29    30   ar
    27    30    31   ar
    28     4     5   ar
    29     5     6   ar
    30     6     7   ar
    31     7     8   ar
    32     8     9   ar
    33     9    10   ar
    34    19    12    1
    35    10     1   ar
    36    25    20   ar
    37    31    26   ar
    38    10     5   ar
    39    34    32    1
