@<TRIPOS>MOLECULE
*****
 46 51 0 0 0
SMALL
GASTEIGER

@<TRIPOS>ATOM
      1 C          11.9305   80.7670   25.1285 C.ar    1  UNL1        0.0702
      2 C          13.3295   80.7648   25.1418 C.ar    1  UNL1        0.0191
      3 C          14.0408   81.8791   24.6943 C.ar    1  UNL1        0.0356
      4 C          13.3449   83.0028   24.2111 C.ar    1  UNL1        0.1318
      5 N          11.9825   82.9670   24.1849 N.ar    1  UNL1       -0.2279
      6 C          11.2692   81.8948   24.6191 C.ar    1  UNL1        0.1149
      7 N          14.0439   84.1829   23.7464 N.pl3   1  UNL1       -0.2932
      8 C          15.1675   84.0672   22.8027 C.3     1  UNL1        0.0923
      9 C          14.9411   84.9547   21.5674 C.3     1  UNL1        0.0252
     10 C          14.2164   86.2911   21.8879 C.3     1  UNL1        0.0472
     11 C          14.3000   86.6382   23.3849 C.3     1  UNL1        0.0252
     12 C          13.6549   85.5233   24.2214 C.3     1  UNL1        0.0923
     13 C          14.7628   87.4451   21.0347 C.3     1  UNL1        0.2054
     14 O          13.8438   87.7485   19.9868 O.3     1  UNL1       -0.4755
     15 C          14.0835   87.5077   18.6261 C.ar    1  UNL1        0.1388
     16 C          14.0139   88.5250   17.6564 C.ar    1  UNL1        0.0369
     17 C          14.2620   88.2326   16.3138 C.ar    1  UNL1        0.0033
     18 C          14.5806   86.9298   15.9240 C.ar    1  UNL1        0.0066
     19 C          14.6546   85.9009   16.8780 C.ar    1  UNL1        0.0785
     20 C          14.4032   86.2031   18.2292 C.ar    1  UNL1        0.0433
     21 C          14.9923   84.5213   16.4630 C.2     1  UNL1        0.3381
     22 O          16.1123   84.0220   16.7563 O.2     1  UNL1       -0.2451
     23 O          14.0747   83.7603   15.7431 O.3     1  UNL1       -0.4771
     24 H          14.2958   82.8149   15.4541 H       1  UNL1        0.2954
     25 C          10.1831   79.6257   26.5741 C.2     1  UNL1        0.2839
     26 O          10.0315   80.6414   27.3049 O.2     1  UNL1       -0.2665
     27 N          11.2122   79.6027   25.5716 N.am    1  UNL1       -0.2766
     28 H          11.5158   78.6733   25.2020 H       1  UNL1        0.1553
     29 C           8.1764   75.2798   25.8573 C.ar    1  UNL1        0.1730
     30 C           7.2032   74.4921   26.5168 C.ar    1  UNL1        0.0401
     31 C           6.5649   74.9585   27.6974 C.ar    1  UNL1        0.0032
     32 C           6.9069   76.2282   28.2178 C.ar    1  UNL1        0.0030
     33 C           7.8690   76.9810   27.5454 C.ar    1  UNL1        0.0367
     34 C           8.4055   78.2282   27.8035 C.ar    1  UNL1        0.0203
     35 C           8.0707   79.1506   28.9369 C.3     1  UNL1        0.0345
     36 C           9.3292   78.4395   26.7744 C.ar    1  UNL1        0.1948
     37 O           9.3446   77.3989   25.9610 O.2     1  UNL1       -0.4462
     38 C           8.4795   76.5215   26.4091 C.ar    1  UNL1        0.1788
     39 C           5.5468   74.1207   28.3805 C.ar    1  UNL1        0.0001
     40 C           4.8310   74.6219   29.4844 C.ar    1  UNL1        0.0000
     41 C           3.8724   73.8307   30.1250 C.ar    1  UNL1        0.0000
     42 C           3.6180   72.5340   29.6732 C.ar    1  UNL1        0.0000
     43 C           4.3213   72.0254   28.5791 C.ar    1  UNL1        0.0000
     44 C           5.2804   72.8123   27.9341 C.ar    1  UNL1        0.0000
     45 C           8.1840   74.2717   23.5732 C.3     1  UNL1        0.2526
     46 O           8.8349   74.8676   24.6901 O.3     1  UNL1       -0.4684
@<TRIPOS>BOND
     1    45    46    1
     2    46    29    1
     3    29    30   ar
     4    30    31   ar
     5    31    39    1
     6    39    40   ar
     7    40    41   ar
     8    41    42   ar
     9    42    43   ar
    10    43    44   ar
    11    31    32   ar
    12    32    33   ar
    13    33    34   ar
    14    34    35    1
    15    34    36   ar
    16    36    25    1
    17    25    26    2
    18    25    27   am
    19    27     1    1
    20     1     2   ar
    21     2     3   ar
    22     3     4   ar
    23     4     7    1
    24     7     8    1
    25     8     9    1
    26     9    10    1
    27    10    13    1
    28    13    14    1
    29    14    15    1
    30    15    16   ar
    31    16    17   ar
    32    17    18   ar
    33    18    19   ar
    34    19    21    1
    35    21    22    2
    36    21    23    1
    37    19    20   ar
    38    10    11    1
    39    11    12    1
    40     4     5   ar
    41     5     6   ar
    42    36    37   ar
    43    37    38   ar
    44    38    29   ar
    45    44    39   ar
    46    38    33   ar
    47     6     1   ar
    48    12     7    1
    49    20    15   ar
    50    27    28    1
    51    23    24    1
@<TRIPOS>MOLECULE
*****
 46 51 0 0 0
SMALL
GASTEIGER

@<TRIPOS>ATOM
      1 C          11.9374   80.7719   25.0268 C.ar    1  UNL1        0.0702
      2 C          11.2419   81.9330   24.6728 C.ar    1  UNL1        0.0191
      3 C          11.9362   83.0851   24.3006 C.ar    1  UNL1        0.0356
      4 C          13.3434   83.0816   24.2992 C.ar    1  UNL1        0.1318
      5 N          13.9950   81.9446   24.6743 N.ar    1  UNL1       -0.2279
      6 C          13.3400   80.8102   25.0366 C.ar    1  UNL1        0.1149
      7 N          14.1023   84.2522   23.9108 N.pl3   1  UNL1       -0.2932
      8 C          15.0189   84.2050   22.7601 C.3     1  UNL1        0.0923
      9 C          14.7018   85.3281   21.7587 C.3     1  UNL1        0.0252
     10 C          14.2292   86.6456   22.4331 C.3     1  UNL1        0.0472
     11 C          14.6177   86.6933   23.9215 C.3     1  UNL1        0.0252
     12 C          13.9847   85.5108   24.6697 C.3     1  UNL1        0.0923
     13 C          14.7683   87.8794   21.6945 C.3     1  UNL1        0.2054
     14 O          16.0775   87.6106   21.1963 O.3     1  UNL1       -0.4755
     15 C          17.2510   88.1996   21.6891 C.ar    1  UNL1        0.1388
     16 C          18.2512   88.7115   20.8419 C.ar    1  UNL1        0.0369
     17 C          19.4014   89.2890   21.3835 C.ar    1  UNL1        0.0033
     18 C          19.5673   89.3627   22.7684 C.ar    1  UNL1        0.0066
     19 C          18.5795   88.8568   23.6300 C.ar    1  UNL1        0.0785
     20 C          17.4231   88.2761   23.0770 C.ar    1  UNL1        0.0433
     21 C          18.7571   88.9357   25.0969 C.2     1  UNL1        0.3381
     22 O          17.8171   88.6126   25.8726 O.2     1  UNL1       -0.2451
     23 O          19.9663   89.3686   25.6353 O.3     1  UNL1       -0.4771
     24 H          20.0984   89.4264   26.6380 H       1  UNL1        0.2954
     25 C          10.2234   79.5855   26.4762 C.2     1  UNL1        0.2839
     26 O          10.1298   80.5576   27.2730 O.2     1  UNL1       -0.2665
     27 N          11.2081   79.5999   25.4299 N.am    1  UNL1       -0.2766
     28 H          11.4713   78.6880   24.9918 H       1  UNL1        0.1553
     29 C           8.0094   75.3833   25.5454 C.ar    1  UNL1        0.1730
     30 C           7.0683   74.5643   26.2133 C.ar    1  UNL1        0.0401
     31 C           6.5497   74.9352   27.4830 C.ar    1  UNL1        0.0032
     32 C           6.9797   76.1404   28.0850 C.ar    1  UNL1        0.0030
     33 C           7.9074   76.9263   27.4020 C.ar    1  UNL1        0.0367
     34 C           8.5081   78.1284   27.7245 C.ar    1  UNL1        0.0203
     35 C           8.3039   78.9491   28.9624 C.3     1  UNL1        0.0345
     36 C           9.3479   78.4097   26.6418 C.ar    1  UNL1        0.1948
     37 O           9.2570   77.4501   25.7387 O.2     1  UNL1       -0.4462
     38 C           8.4024   76.5588   26.1793 C.ar    1  UNL1        0.1788
     39 C           5.5641   74.0654   28.1738 C.ar    1  UNL1        0.0001
     40 C           4.7842   74.5679   29.2327 C.ar    1  UNL1        0.0000
     41 C           3.8564   73.7465   29.8806 C.ar    1  UNL1        0.0000
     42 C           3.6969   72.4180   29.4809 C.ar    1  UNL1        0.0000
     43 C           4.4645   71.9076   28.4318 C.ar    1  UNL1        0.0000
     44 C           5.3932   72.7246   27.7796 C.ar    1  UNL1        0.0000
     45 C           7.8160   75.0902   23.0735 C.3     1  UNL1        0.2526
     46 O           8.5512   75.0645   24.2920 O.3     1  UNL1       -0.4684
@<TRIPOS>BOND
     1    45    46    1
     2    46    29    1
     3    29    30   ar
     4    30    31   ar
     5    31    39    1
     6    39    40   ar
     7    40    41   ar
     8    41    42   ar
     9    42    43   ar
    10    43    44   ar
    11    31    32   ar
    12    32    33   ar
    13    33    34   ar
    14    34    35    1
    15    34    36   ar
    16    36    25    1
    17    25    26    2
    18    25    27   am
    19    27     1    1
    20     1     2   ar
    21     2     3   ar
    22     3     4   ar
    23     4     7    1
    24     7     8    1
    25     8     9    1
    26     9    10    1
    27    10    13    1
    28    13    14    1
    29    14    15    1
    30    15    16   ar
    31    16    17   ar
    32    17    18   ar
    33    18    19   ar
    34    19    21    1
    35    21    22    2
    36    21    23    1
    37    19    20   ar
    38    10    11    1
    39    11    12    1
    40     4     5   ar
    41     5     6   ar
    42    36    37   ar
    43    37    38   ar
    44    38    29   ar
    45    44    39   ar
    46    38    33   ar
    47     6     1   ar
    48    12     7    1
    49    20    15   ar
    50    27    28    1
    51    23    24    1
@<TRIPOS>MOLECULE
*****
 46 51 0 0 0
SMALL
GASTEIGER

@<TRIPOS>ATOM
      1 C          11.9285   80.8024   25.1742 C.ar    1  UNL1        0.0702
      2 C          13.3271   80.7705   25.1591 C.ar    1  UNL1        0.0191
      3 C          14.0539   81.8946   24.7641 C.ar    1  UNL1        0.0356
      4 C          13.3737   83.0592   24.3623 C.ar    1  UNL1        0.1318
      5 N          12.0106   83.0532   24.3614 N.ar    1  UNL1       -0.2279
      6 C          11.2824   81.9719   24.7457 C.ar    1  UNL1        0.1149
      7 N          14.0893   84.2502   23.9542 N.pl3   1  UNL1       -0.2932
      8 C          15.0209   84.2131   22.8152 C.3     1  UNL1        0.0923
      9 C          14.6708   85.2985   21.7836 C.3     1  UNL1        0.0252
     10 C          14.1373   86.6112   22.4208 C.3     1  UNL1        0.0472
     11 C          14.5054   86.7098   23.9118 C.3     1  UNL1        0.0252
     12 C          13.9118   85.5205   24.6812 C.3     1  UNL1        0.0923
     13 C          14.6349   87.8482   21.6587 C.3     1  UNL1        0.2054
     14 O          14.7171   87.5563   20.2650 O.3     1  UNL1       -0.4755
     15 C          13.8601   88.0880   19.2905 C.ar    1  UNL1        0.1388
     16 C          12.5559   88.5235   19.5897 C.ar    1  UNL1        0.0369
     17 C          11.7423   89.0461   18.5823 C.ar    1  UNL1        0.0033
     18 C          12.2165   89.1402   17.2719 C.ar    1  UNL1        0.0066
     19 C          13.5159   88.7102   16.9541 C.ar    1  UNL1        0.0785
     20 C          14.3300   88.1846   17.9746 C.ar    1  UNL1        0.0433
     21 C          14.0165   88.8107   15.5654 C.2     1  UNL1        0.3381
     22 O          13.2313   88.6580   14.5906 O.2     1  UNL1       -0.2451
     23 O          15.3619   89.0749   15.3214 O.3     1  UNL1       -0.4771
     24 H          15.7149   89.1457   14.3746 H       1  UNL1        0.2954
     25 C          10.1794   79.6148   26.5800 C.2     1  UNL1        0.2839
     26 O          10.0586   80.5902   27.3690 O.2     1  UNL1       -0.2665
     27 N          11.1935   79.6288   25.5620 N.am    1  UNL1       -0.2766
     28 H          11.4732   78.7162   25.1361 H       1  UNL1        0.1553
     29 C           7.9326   75.4509   25.5596 C.ar    1  UNL1        0.1730
     30 C           7.0055   74.6113   26.2215 C.ar    1  UNL1        0.0401
     31 C           6.5184   74.9396   27.5153 C.ar    1  UNL1        0.0032
     32 C           6.9659   76.1228   28.1475 C.ar    1  UNL1        0.0030
     33 C           7.8791   76.9297   27.4697 C.ar    1  UNL1        0.0367
     34 C           8.4905   78.1190   27.8186 C.ar    1  UNL1        0.0203
     35 C           8.3181   78.8973   29.0883 C.3     1  UNL1        0.0345
     36 C           9.3050   78.4357   26.7263 C.ar    1  UNL1        0.1948
     37 O           9.1900   77.5076   25.7934 O.2     1  UNL1       -0.4462
     38 C           8.3437   76.6034   26.2237 C.ar    1  UNL1        0.1788
     39 C           5.5472   74.0485   28.1993 C.ar    1  UNL1        0.0001
     40 C           5.4023   72.7065   27.7993 C.ar    1  UNL1        0.0000
     41 C           4.4875   71.8698   28.4459 C.ar    1  UNL1        0.0000
     42 C           3.7086   72.3610   29.4958 C.ar    1  UNL1        0.0000
     43 C           3.8431   73.6904   29.9021 C.ar    1  UNL1        0.0000
     44 C           4.7570   74.5315   29.2598 C.ar    1  UNL1        0.0000
     45 C           8.1469   73.9957   23.5422 C.3     1  UNL1        0.2526
     46 O           8.4435   75.1741   24.2835 O.3     1  UNL1       -0.4684
@<TRIPOS>BOND
     1    45    46    1
     2    46    29    1
     3    29    30   ar
     4    30    31   ar
     5    31    39    1
     6    39    40   ar
     7    40    41   ar
     8    41    42   ar
     9    42    43   ar
    10    43    44   ar
    11    31    32   ar
    12    32    33   ar
    13    33    34   ar
    14    34    35    1
    15    34    36   ar
    16    36    25    1
    17    25    26    2
    18    25    27   am
    19    27     1    1
    20     1     2   ar
    21     2     3   ar
    22     3     4   ar
    23     4     7    1
    24     7     8    1
    25     8     9    1
    26     9    10    1
    27    10    13    1
    28    13    14    1
    29    14    15    1
    30    15    16   ar
    31    16    17   ar
    32    17    18   ar
    33    18    19   ar
    34    19    21    1
    35    21    22    2
    36    21    23    1
    37    19    20   ar
    38    10    11    1
    39    11    12    1
    40     4     5   ar
    41     5     6   ar
    42    36    37   ar
    43    37    38   ar
    44    38    29   ar
    45    44    39   ar
    46    38    33   ar
    47     6     1   ar
    48    12     7    1
    49    20    15   ar
    50    27    28    1
    51    23    24    1
@<TRIPOS>MOLECULE
*****
 46 51 0 0 0
SMALL
GASTEIGER

@<TRIPOS>ATOM
      1 C          11.4265   81.4733   25.3763 C.ar    1  UNL1        0.0702
      2 C          12.3198   82.0762   26.2683 C.ar    1  UNL1        0.0191
      3 C          13.2494   83.0116   25.8113 C.ar    1  UNL1        0.0356
      4 C          13.2981   83.3351   24.4426 C.ar    1  UNL1        0.1318
      5 N          12.4337   82.7126   23.5921 N.ar    1  UNL1       -0.2279
      6 C          11.5178   81.8019   24.0152 C.ar    1  UNL1        0.1149
      7 N          14.2406   84.3070   23.9283 N.pl3   1  UNL1       -0.2932
      8 C          15.1332   83.9674   22.8083 C.3     1  UNL1        0.0923
      9 C          15.0051   84.9960   21.6724 C.3     1  UNL1        0.0252
     10 C          14.7607   86.4463   22.1731 C.3     1  UNL1        0.0472
     11 C          15.1558   86.6113   23.6514 C.3     1  UNL1        0.0252
     12 C          14.3366   85.6511   24.5264 C.3     1  UNL1        0.0923
     13 C          15.4959   87.4735   21.2998 C.3     1  UNL1        0.2054
     14 O          14.6615   88.6101   21.0847 O.3     1  UNL1       -0.4755
     15 C          13.6908   88.7031   20.0767 C.ar    1  UNL1        0.1388
     16 C          12.3126   88.7415   20.3580 C.ar    1  UNL1        0.0369
     17 C          11.3864   88.8350   19.3172 C.ar    1  UNL1        0.0033
     18 C          11.8208   88.8910   17.9909 C.ar    1  UNL1        0.0066
     19 C          13.1928   88.8537   17.6906 C.ar    1  UNL1        0.0785
     20 C          14.1203   88.7593   18.7447 C.ar    1  UNL1        0.0433
     21 C          13.6509   88.9131   16.2849 C.2     1  UNL1        0.3381
     22 O          12.8207   88.8404   15.3388 O.2     1  UNL1       -0.2451
     23 O          15.0058   89.0498   15.9933 O.3     1  UNL1       -0.4771
     24 H          15.3301   89.0914   15.0345 H       1  UNL1        0.2954
     25 C          10.8176   79.1160   26.0961 C.2     1  UNL1        0.2839
     26 O          11.8922   78.6330   25.6481 O.2     1  UNL1       -0.2665
     27 N          10.4898   80.4947   25.8587 N.am    1  UNL1       -0.2766
     28 H           9.4913   80.7860   25.9625 H       1  UNL1        0.1553
     29 C           8.3449   77.1555   29.7661 C.ar    1  UNL1        0.1730
     30 C           7.3578   76.1505   29.9003 C.ar    1  UNL1        0.0401
     31 C           6.8696   75.4511   28.7638 C.ar    1  UNL1        0.0032
     32 C           7.3797   75.7638   27.4825 C.ar    1  UNL1        0.0030
     33 C           8.3521   76.7584   27.3827 C.ar    1  UNL1        0.0367
     34 C           9.0259   77.2790   26.2943 C.ar    1  UNL1        0.0203
     35 C           8.8807   76.8846   24.8552 C.3     1  UNL1        0.0345
     36 C           9.8724   78.2546   26.8315 C.ar    1  UNL1        0.1948
     37 O           9.7185   78.3137   28.1420 O.2     1  UNL1       -0.4462
     38 C           8.8146   77.4277   28.4841 C.ar    1  UNL1        0.1788
     39 C           5.8320   74.4002   28.9187 C.ar    1  UNL1        0.0001
     40 C           5.7844   73.3055   28.0347 C.ar    1  UNL1        0.0000
     41 C           4.8066   72.3171   28.1836 C.ar    1  UNL1        0.0000
     42 C           3.8674   72.4095   29.2130 C.ar    1  UNL1        0.0000
     43 C           3.9041   73.4904   30.0966 C.ar    1  UNL1        0.0000
     44 C           4.8802   74.4813   29.9530 C.ar    1  UNL1        0.0000
     45 C           8.7448   79.2846   31.0073 C.3     1  UNL1        0.2526
     46 O           8.8610   77.8743   30.8539 O.3     1  UNL1       -0.4684
@<TRIPOS>BOND
     1    45    46    1
     2    46    29    1
     3    29    30   ar
     4    30    31   ar
     5    31    39    1
     6    39    40   ar
     7    40    41   ar
     8    41    42   ar
     9    42    43   ar
    10    43    44   ar
    11    31    32   ar
    12    32    33   ar
    13    33    34   ar
    14    34    35    1
    15    34    36   ar
    16    36    25    1
    17    25    26    2
    18    25    27   am
    19    27     1    1
    20     1     2   ar
    21     2     3   ar
    22     3     4   ar
    23     4     7    1
    24     7     8    1
    25     8     9    1
    26     9    10    1
    27    10    13    1
    28    13    14    1
    29    14    15    1
    30    15    16   ar
    31    16    17   ar
    32    17    18   ar
    33    18    19   ar
    34    19    21    1
    35    21    22    2
    36    21    23    1
    37    19    20   ar
    38    10    11    1
    39    11    12    1
    40     4     5   ar
    41     5     6   ar
    42    36    37   ar
    43    37    38   ar
    44    38    29   ar
    45    44    39   ar
    46    38    33   ar
    47     6     1   ar
    48    12     7    1
    49    20    15   ar
    50    27    28    1
    51    23    24    1
@<TRIPOS>MOLECULE
*****
 46 51 0 0 0
SMALL
GASTEIGER

@<TRIPOS>ATOM
      1 C          11.3422   81.3555   25.4026 C.ar    1  UNL1        0.0702
      2 C          12.2397   81.9559   26.2922 C.ar    1  UNL1        0.0191
      3 C          13.1623   82.8980   25.8348 C.ar    1  UNL1        0.0356
      4 C          13.1999   83.2308   24.4680 C.ar    1  UNL1        0.1318
      5 N          12.3317   82.6106   23.6196 N.ar    1  UNL1       -0.2279
      6 C          11.4224   81.6935   24.0432 C.ar    1  UNL1        0.1149
      7 N          14.1347   84.2098   23.9533 N.pl3   1  UNL1       -0.2932
      8 C          15.0808   83.8544   22.8833 C.3     1  UNL1        0.0923
      9 C          14.9699   84.8350   21.7039 C.3     1  UNL1        0.0252
     10 C          14.6652   86.2954   22.1377 C.3     1  UNL1        0.0472
     11 C          14.9958   86.5279   23.6227 C.3     1  UNL1        0.0252
     12 C          14.1691   85.5779   24.5018 C.3     1  UNL1        0.0923
     13 C          15.4061   87.3099   21.2543 C.3     1  UNL1        0.2054
     14 O          14.5055   87.8665   20.2984 O.3     1  UNL1       -0.4755
     15 C          14.4566   87.4990   18.9458 C.ar    1  UNL1        0.1388
     16 C          14.1889   88.4260   17.9216 C.ar    1  UNL1        0.0369
     17 C          14.1519   88.0086   16.5896 C.ar    1  UNL1        0.0033
     18 C          14.3800   86.6695   16.2646 C.ar    1  UNL1        0.0066
     19 C          14.6487   85.7295   17.2738 C.ar    1  UNL1        0.0785
     20 C          14.6843   86.1575   18.6138 C.ar    1  UNL1        0.0433
     21 C          14.8900   84.3113   16.9275 C.2     1  UNL1        0.3381
     22 O          15.8866   83.6993   17.3986 O.2     1  UNL1       -0.2451
     23 O          14.0171   83.6381   16.0764 O.3     1  UNL1       -0.4771
     24 H          14.1731   82.6673   15.8329 H       1  UNL1        0.2954
     25 C          10.7674   79.0112   26.1899 C.2     1  UNL1        0.2839
     26 O          11.8720   78.5420   25.8050 O.2     1  UNL1       -0.2665
     27 N          10.4129   80.3700   25.8853 N.am    1  UNL1       -0.2766
     28 H           9.4035   80.6367   25.9372 H       1  UNL1        0.1553
     29 C           8.2500   77.0760   29.8429 C.ar    1  UNL1        0.1730
     30 C           7.2666   76.0667   29.9729 C.ar    1  UNL1        0.0401
     31 C           6.7999   75.3523   28.8369 C.ar    1  UNL1        0.0032
     32 C           7.3278   75.6542   27.5602 C.ar    1  UNL1        0.0030
     33 C           8.2959   76.6533   27.4644 C.ar    1  UNL1        0.0367
     34 C           8.9833   77.1661   26.3807 C.ar    1  UNL1        0.0203
     35 C           8.8625   76.7553   24.9440 C.3     1  UNL1        0.0345
     36 C           9.8159   78.1523   26.9202 C.ar    1  UNL1        0.1948
     37 O           9.6416   78.2247   28.2275 O.2     1  UNL1       -0.4462
     38 C           8.7377   77.3371   28.5654 C.ar    1  UNL1        0.1788
     39 C           5.7660   74.2970   28.9873 C.ar    1  UNL1        0.0001
     40 C           4.8468   74.3422   30.0526 C.ar    1  UNL1        0.0000
     41 C           3.8739   73.3474   30.1911 C.ar    1  UNL1        0.0000
     42 C           3.8076   72.2987   29.2712 C.ar    1  UNL1        0.0000
     43 C           4.7138   72.2427   28.2100 C.ar    1  UNL1        0.0000
     44 C           5.6881   73.2352   28.0660 C.ar    1  UNL1        0.0000
     45 C           8.8097   79.2308   30.9730 C.3     1  UNL1        0.2526
     46 O           8.7452   77.8095   30.9305 O.3     1  UNL1       -0.4684
@<TRIPOS>BOND
     1    45    46    1
     2    46    29    1
     3    29    30   ar
     4    30    31   ar
     5    31    39    1
     6    39    40   ar
     7    40    41   ar
     8    41    42   ar
     9    42    43   ar
    10    43    44   ar
    11    31    32   ar
    12    32    33   ar
    13    33    34   ar
    14    34    35    1
    15    34    36   ar
    16    36    25    1
    17    25    26    2
    18    25    27   am
    19    27     1    1
    20     1     2   ar
    21     2     3   ar
    22     3     4   ar
    23     4     7    1
    24     7     8    1
    25     8     9    1
    26     9    10    1
    27    10    13    1
    28    13    14    1
    29    14    15    1
    30    15    16   ar
    31    16    17   ar
    32    17    18   ar
    33    18    19   ar
    34    19    21    1
    35    21    22    2
    36    21    23    1
    37    19    20   ar
    38    10    11    1
    39    11    12    1
    40     4     5   ar
    41     5     6   ar
    42    36    37   ar
    43    37    38   ar
    44    38    29   ar
    45    44    39   ar
    46    38    33   ar
    47     6     1   ar
    48    12     7    1
    49    20    15   ar
    50    27    28    1
    51    23    24    1
@<TRIPOS>MOLECULE
*****
 46 51 0 0 0
SMALL
GASTEIGER

@<TRIPOS>ATOM
      1 C          10.4773   81.1331   24.8929 C.ar    1  UNL1        0.0702
      2 C          10.1727   80.3264   23.7913 C.ar    1  UNL1        0.0191
      3 C           9.4680   79.1341   23.9635 C.ar    1  UNL1        0.0356
      4 C           9.0782   78.7347   25.2554 C.ar    1  UNL1        0.1318
      5 N           9.4116   79.5269   26.3134 N.ar    1  UNL1       -0.2279
      6 C          10.0937   80.6935   26.1691 C.ar    1  UNL1        0.1149
      7 N           8.3376   77.5102   25.4773 N.pl3   1  UNL1       -0.2932
      8 C           8.9807   76.1995   25.2906 C.3     1  UNL1        0.0923
      9 C           8.8242   75.3269   26.5471 C.3     1  UNL1        0.0252
     10 C           7.4672   75.5271   27.2766 C.3     1  UNL1        0.0472
     11 C           6.4192   76.1805   26.3583 C.3     1  UNL1        0.0252
     12 C           6.9196   77.5511   25.8789 C.3     1  UNL1        0.0923
     13 C           6.9355   74.2042   27.8471 C.3     1  UNL1        0.2054
     14 O           6.9138   74.2665   29.2720 O.3     1  UNL1       -0.4755
     15 C           6.8196   75.4532   30.0134 C.ar    1  UNL1        0.1388
     16 C           5.6976   75.7610   30.8049 C.ar    1  UNL1        0.0369
     17 C           5.6536   76.9566   31.5249 C.ar    1  UNL1        0.0033
     18 C           6.7216   77.8547   31.4646 C.ar    1  UNL1        0.0066
     19 C           7.8502   77.5646   30.6796 C.ar    1  UNL1        0.0785
     20 C           7.8874   76.3578   29.9568 C.ar    1  UNL1        0.0433
     21 C           8.9806   78.5173   30.6170 C.2     1  UNL1        0.3381
     22 O           9.5864   78.7194   29.5298 O.2     1  UNL1       -0.2451
     23 O           9.3868   79.2008   31.7604 O.3     1  UNL1       -0.4771
     24 H          10.1594   79.8552   31.7285 H       1  UNL1        0.2954
     25 C          12.6584   82.4226   24.7324 C.2     1  UNL1        0.2839
     26 O          13.3351   81.4599   25.1840 O.2     1  UNL1       -0.2665
     27 N          11.2238   82.3472   24.7020 N.am    1  UNL1       -0.2766
     28 H          10.6876   83.2407   24.6197 H       1  UNL1        0.1553
     29 C          13.4820   87.0983   23.7910 C.ar    1  UNL1        0.1730
     30 C          14.5363   87.8451   23.2136 C.ar    1  UNL1        0.0401
     31 C          15.7137   87.2027   22.7446 C.ar    1  UNL1        0.0032
     32 C          15.8308   85.7978   22.8556 C.ar    1  UNL1        0.0030
     33 C          14.7750   85.0895   23.4285 C.ar    1  UNL1        0.0367
     34 C          14.5984   83.7408   23.6727 C.ar    1  UNL1        0.0203
     35 C          15.5495   82.6238   23.3641 C.3     1  UNL1        0.0345
     36 C          13.3373   83.6484   24.2710 C.ar    1  UNL1        0.1948
     37 O          12.7986   84.8498   24.3766 O.2     1  UNL1       -0.4462
     38 C          13.6452   85.7185   23.8789 C.ar    1  UNL1        0.1788
     39 C          16.8133   87.9987   22.1427 C.ar    1  UNL1        0.0001
     40 C          16.6765   88.5484   20.8539 C.ar    1  UNL1        0.0000
     41 C          17.7135   89.2982   20.2901 C.ar    1  UNL1        0.0000
     42 C          18.8957   89.5071   21.0036 C.ar    1  UNL1        0.0000
     43 C          19.0436   88.9671   22.2831 C.ar    1  UNL1        0.0000
     44 C          18.0096   88.2173   22.8522 C.ar    1  UNL1        0.0000
     45 C          12.2301   88.9722   24.8656 C.3     1  UNL1        0.2526
     46 O          12.2998   87.6821   24.2681 O.3     1  UNL1       -0.4684
@<TRIPOS>BOND
     1    45    46    1
     2    46    29    1
     3    29    30   ar
     4    30    31   ar
     5    31    39    1
     6    39    40   ar
     7    40    41   ar
     8    41    42   ar
     9    42    43   ar
    10    43    44   ar
    11    31    32   ar
    12    32    33   ar
    13    33    34   ar
    14    34    35    1
    15    34    36   ar
    16    36    25    1
    17    25    26    2
    18    25    27   am
    19    27     1    1
    20     1     2   ar
    21     2     3   ar
    22     3     4   ar
    23     4     7    1
    24     7     8    1
    25     8     9    1
    26     9    10    1
    27    10    13    1
    28    13    14    1
    29    14    15    1
    30    15    16   ar
    31    16    17   ar
    32    17    18   ar
    33    18    19   ar
    34    19    21    1
    35    21    22    2
    36    21    23    1
    37    19    20   ar
    38    10    11    1
    39    11    12    1
    40     4     5   ar
    41     5     6   ar
    42    36    37   ar
    43    37    38   ar
    44    38    29   ar
    45    44    39   ar
    46    38    33   ar
    47     6     1   ar
    48    12     7    1
    49    20    15   ar
    50    27    28    1
    51    23    24    1
@<TRIPOS>MOLECULE
*****
 46 51 0 0 0
SMALL
GASTEIGER

@<TRIPOS>ATOM
      1 C          10.1704   79.4475   24.4209 C.ar    1  UNL1        0.0702
      2 C           9.6470   79.3854   23.1249 C.ar    1  UNL1        0.0191
      3 C           8.9771   78.2413   22.6889 C.ar    1  UNL1        0.0356
      4 C           8.8443   77.1388   23.5533 C.ar    1  UNL1        0.1318
      5 N           9.3872   77.2169   24.8012 N.ar    1  UNL1       -0.2279
      6 C          10.0400   78.3218   25.2485 C.ar    1  UNL1        0.1149
      7 N           8.1486   75.9364   23.1441 N.pl3   1  UNL1       -0.2932
      8 C           6.8587   75.5716   23.7519 C.3     1  UNL1        0.0923
      9 C           5.7881   75.3416   22.6722 C.3     1  UNL1        0.0252
     10 C           6.3450   74.6947   21.3740 C.3     1  UNL1        0.0472
     11 C           7.7046   74.0152   21.6157 C.3     1  UNL1        0.0252
     12 C           8.7258   75.0445   22.1218 C.3     1  UNL1        0.0923
     13 C           5.3442   73.6999   20.7682 C.3     1  UNL1        0.2054
     14 O           5.0880   74.0408   19.4070 O.3     1  UNL1       -0.4755
     15 C           4.4397   75.2126   18.9905 C.ar    1  UNL1        0.1388
     16 C           3.0797   75.2349   18.6302 C.ar    1  UNL1        0.0369
     17 C           2.4813   76.4289   18.2226 C.ar    1  UNL1        0.0033
     18 C           3.2275   77.6083   18.1696 C.ar    1  UNL1        0.0066
     19 C           4.5868   77.6056   18.5254 C.ar    1  UNL1        0.0785
     20 C           5.1829   76.3985   18.9351 C.ar    1  UNL1        0.0433
     21 C           5.3756   78.8561   18.4685 C.2     1  UNL1        0.3381
     22 O           4.9636   79.8414   17.7983 O.2     1  UNL1       -0.2451
     23 O           6.5827   78.9566   19.1558 O.3     1  UNL1       -0.4771
     24 H           7.1306   79.8080   19.1235 H       1  UNL1        0.2954
     25 C          12.2820   80.8410   24.6333 C.2     1  UNL1        0.2839
     26 O          13.0245   79.8863   24.2785 O.2     1  UNL1       -0.2665
     27 N          10.8778   80.6244   24.8477 N.am    1  UNL1       -0.2766
     28 H          10.3557   81.3251   25.4214 H       1  UNL1        0.1553
     29 C          14.1616   85.2147   23.7590 C.ar    1  UNL1        0.1730
     30 C          14.6340   86.2905   24.5477 C.ar    1  UNL1        0.0401
     31 C          14.6177   86.2171   25.9666 C.ar    1  UNL1        0.0032
     32 C          14.1240   85.0515   26.5971 C.ar    1  UNL1        0.0030
     33 C          13.6660   84.0083   25.7930 C.ar    1  UNL1        0.0367
     34 C          13.1344   82.7718   26.1062 C.ar    1  UNL1        0.0203
     35 C          12.9017   82.1958   27.4707 C.3     1  UNL1        0.0345
     36 C          12.8615   82.1768   24.8699 C.ar    1  UNL1        0.1948
     37 O          13.2042   82.9939   23.8903 O.2     1  UNL1       -0.4462
     38 C          13.6845   84.0899   24.4263 C.ar    1  UNL1        0.1788
     39 C          15.1146   87.3542   26.7822 C.ar    1  UNL1        0.0001
     40 C          14.6708   87.5332   28.1062 C.ar    1  UNL1        0.0000
     41 C          15.1412   88.6046   28.8719 C.ar    1  UNL1        0.0000
     42 C          16.0567   89.5073   28.3267 C.ar    1  UNL1        0.0000
     43 C          16.5045   89.3406   27.0144 C.ar    1  UNL1        0.0000
     44 C          16.0383   88.2706   26.2444 C.ar    1  UNL1        0.0000
     45 C          15.2236   85.7394   21.5612 C.3     1  UNL1        0.2526
     46 O          14.1564   85.2355   22.3570 O.3     1  UNL1       -0.4684
@<TRIPOS>BOND
     1    45    46    1
     2    46    29    1
     3    29    30   ar
     4    30    31   ar
     5    31    39    1
     6    39    40   ar
     7    40    41   ar
     8    41    42   ar
     9    42    43   ar
    10    43    44   ar
    11    31    32   ar
    12    32    33   ar
    13    33    34   ar
    14    34    35    1
    15    34    36   ar
    16    36    25    1
    17    25    26    2
    18    25    27   am
    19    27     1    1
    20     1     2   ar
    21     2     3   ar
    22     3     4   ar
    23     4     7    1
    24     7     8    1
    25     8     9    1
    26     9    10    1
    27    10    13    1
    28    13    14    1
    29    14    15    1
    30    15    16   ar
    31    16    17   ar
    32    17    18   ar
    33    18    19   ar
    34    19    21    1
    35    21    22    2
    36    21    23    1
    37    19    20   ar
    38    10    11    1
    39    11    12    1
    40     4     5   ar
    41     5     6   ar
    42    36    37   ar
    43    37    38   ar
    44    38    29   ar
    45    44    39   ar
    46    38    33   ar
    47     6     1   ar
    48    12     7    1
    49    20    15   ar
    50    27    28    1
    51    23    24    1
@<TRIPOS>MOLECULE
*****
 46 51 0 0 0
SMALL
GASTEIGER

@<TRIPOS>ATOM
      1 C          11.3257   80.6966   24.1558 C.ar    1  UNL1        0.0702
      2 C          12.1676   79.6010   24.3759 C.ar    1  UNL1        0.0191
      3 C          11.6301   78.3403   24.6394 C.ar    1  UNL1        0.0356
      4 C          10.2338   78.1763   24.7011 C.ar    1  UNL1        0.1318
      5 N           9.4381   79.2663   24.5090 N.ar    1  UNL1       -0.2279
      6 C           9.9391   80.5023   24.2472 C.ar    1  UNL1        0.1149
      7 N           9.6348   76.8840   24.9623 N.pl3   1  UNL1       -0.2932
      8 C           9.3736   76.4426   26.3419 C.3     1  UNL1        0.0923
      9 C           7.9033   76.0272   26.5168 C.3     1  UNL1        0.0252
     10 C           7.2990   75.3403   25.2611 C.3     1  UNL1        0.0472
     11 C           8.3956   74.8172   24.3163 C.3     1  UNL1        0.0252
     12 C           9.2891   75.9770   23.8525 C.3     1  UNL1        0.0923
     13 C           6.3354   74.2091   25.6486 C.3     1  UNL1        0.2054
     14 O           6.5959   73.7898   26.9869 O.3     1  UNL1       -0.4755
     15 C           5.6469   73.7954   28.0195 C.ar    1  UNL1        0.1388
     16 C           4.8690   72.6662   28.3352 C.ar    1  UNL1        0.0369
     17 C           3.9377   72.7239   29.3740 C.ar    1  UNL1        0.0033
     18 C           3.7716   73.9015   30.1063 C.ar    1  UNL1        0.0066
     19 C           4.5392   75.0393   29.8055 C.ar    1  UNL1        0.0785
     20 C           5.4757   74.9736   28.7573 C.ar    1  UNL1        0.0433
     21 C           4.3617   76.2860   30.5825 C.2     1  UNL1        0.3381
     22 O           4.9682   76.4493   31.6757 O.2     1  UNL1       -0.2451
     23 O           3.5214   77.2924   30.1127 O.3     1  UNL1       -0.4771
     24 H           3.3928   78.1497   30.6368 H       1  UNL1        0.2954
     25 C          12.6316   82.7485   24.8838 C.2     1  UNL1        0.2839
     26 O          12.5996   82.4166   26.0993 O.2     1  UNL1       -0.2665
     27 N          11.8949   81.9937   23.9080 N.am    1  UNL1       -0.2766
     28 H          11.6878   82.4490   22.9902 H       1  UNL1        0.1553
     29 C          13.8607   87.3890   24.2654 C.ar    1  UNL1        0.1730
     30 C          14.9344   88.0800   23.6552 C.ar    1  UNL1        0.0401
     31 C          15.9926   87.3724   23.0239 C.ar    1  UNL1        0.0032
     32 C          15.9696   85.9585   23.0045 C.ar    1  UNL1        0.0030
     33 C          14.8981   85.3063   23.6136 C.ar    1  UNL1        0.0367
     34 C          14.6016   83.9644   23.7591 C.ar    1  UNL1        0.0203
     35 C          15.3991   82.7936   23.2684 C.3     1  UNL1        0.0345
     36 C          13.3940   83.9400   24.4648 C.ar    1  UNL1        0.1948
     37 O          12.9964   85.1731   24.7219 O.2     1  UNL1       -0.4462
     38 C          13.8841   85.9977   24.2209 C.ar    1  UNL1        0.1788
     39 C          17.1143   88.1101   22.3893 C.ar    1  UNL1        0.0001
     40 C          18.3159   88.3268   23.0901 C.ar    1  UNL1        0.0000
     41 C          19.3706   89.0211   22.4894 C.ar    1  UNL1        0.0000
     42 C          19.2387   89.5063   21.1866 C.ar    1  UNL1        0.0000
     43 C          18.0517   89.2977   20.4808 C.ar    1  UNL1        0.0000
     44 C          16.9941   88.6033   21.0760 C.ar    1  UNL1        0.0000
     45 C          12.8453   89.3743   25.3882 C.3     1  UNL1        0.2526
     46 O          12.7924   88.0382   24.9003 O.3     1  UNL1       -0.4684
@<TRIPOS>BOND
     1    45    46    1
     2    46    29    1
     3    29    30   ar
     4    30    31   ar
     5    31    39    1
     6    39    40   ar
     7    40    41   ar
     8    41    42   ar
     9    42    43   ar
    10    43    44   ar
    11    31    32   ar
    12    32    33   ar
    13    33    34   ar
    14    34    35    1
    15    34    36   ar
    16    36    25    1
    17    25    26    2
    18    25    27   am
    19    27     1    1
    20     1     2   ar
    21     2     3   ar
    22     3     4   ar
    23     4     7    1
    24     7     8    1
    25     8     9    1
    26     9    10    1
    27    10    13    1
    28    13    14    1
    29    14    15    1
    30    15    16   ar
    31    16    17   ar
    32    17    18   ar
    33    18    19   ar
    34    19    21    1
    35    21    22    2
    36    21    23    1
    37    19    20   ar
    38    10    11    1
    39    11    12    1
    40     4     5   ar
    41     5     6   ar
    42    36    37   ar
    43    37    38   ar
    44    38    29   ar
    45    44    39   ar
    46    38    33   ar
    47     6     1   ar
    48    12     7    1
    49    20    15   ar
    50    27    28    1
    51    23    24    1
@<TRIPOS>MOLECULE
*****
 46 51 0 0 0
SMALL
GASTEIGER

@<TRIPOS>ATOM
      1 C          11.6764   80.6299   25.1547 C.ar    1  UNL1        0.0702
      2 C          13.0696   80.5677   25.0443 C.ar    1  UNL1        0.0191
      3 C          13.8104   81.7256   24.8030 C.ar    1  UNL1        0.0356
      4 C          13.1485   82.9584   24.6528 C.ar    1  UNL1        0.1318
      5 N          11.7884   82.9853   24.7387 N.ar    1  UNL1       -0.2279
      6 C          11.0470   81.8713   24.9769 C.ar    1  UNL1        0.1149
      7 N          13.8796   84.1849   24.4109 N.pl3   1  UNL1       -0.2932
      8 C          14.4870   84.4502   23.0967 C.3     1  UNL1        0.0923
      9 C          14.0261   85.8087   22.5428 C.3     1  UNL1        0.0252
     10 C          13.8317   86.8922   23.6391 C.3     1  UNL1        0.0472
     11 C          14.5683   86.5239   24.9392 C.3     1  UNL1        0.0252
     12 C          14.0444   85.1857   25.4809 C.3     1  UNL1        0.0923
     13 C          14.2709   88.2778   23.1436 C.3     1  UNL1        0.2054
     14 O          13.2310   88.8636   22.3625 O.3     1  UNL1       -0.4755
     15 C          13.2055   88.8819   20.9604 C.ar    1  UNL1        0.1388
     16 C          14.3747   88.7855   20.1834 C.ar    1  UNL1        0.0369
     17 C          14.2946   88.8081   18.7895 C.ar    1  UNL1        0.0033
     18 C          13.0549   88.9266   18.1571 C.ar    1  UNL1        0.0066
     19 C          11.8766   89.0243   18.9164 C.ar    1  UNL1        0.0785
     20 C          11.9652   89.0008   20.3206 C.ar    1  UNL1        0.0433
     21 C          10.5643   89.1498   18.2446 C.2     1  UNL1        0.3381
     22 O          10.4961   89.5057   17.0369 O.2     1  UNL1       -0.2451
     23 O           9.3899   88.8757   18.9413 O.3     1  UNL1       -0.4771
     24 H           8.4863   88.9586   18.4909 H       1  UNL1        0.2954
     25 C          10.5690   78.9312   26.6826 C.2     1  UNL1        0.2839
     26 O          11.1205   79.4032   27.7130 O.2     1  UNL1       -0.2665
     27 N          10.9253   79.4246   25.3809 N.am    1  UNL1       -0.2766
     28 H          10.6982   78.8296   24.5520 H       1  UNL1        0.1553
     29 C           7.8687   75.0761   25.5543 C.ar    1  UNL1        0.1730
     30 C           6.8862   74.2995   26.2133 C.ar    1  UNL1        0.0401
     31 C           6.4852   74.6047   27.5418 C.ar    1  UNL1        0.0032
     32 C           7.0758   75.7008   28.2122 C.ar    1  UNL1        0.0030
     33 C           8.0406   76.4472   27.5365 C.ar    1  UNL1        0.0367
     34 C           8.7839   77.5483   27.9173 C.ar    1  UNL1        0.0203
     35 C           8.7412   78.2701   29.2306 C.3     1  UNL1        0.0345
     36 C           9.5842   77.8400   26.8077 C.ar    1  UNL1        0.1948
     37 O           9.3388   76.9801   25.8355 O.2     1  UNL1       -0.4462
     38 C           8.4212   76.1437   26.2566 C.ar    1  UNL1        0.1788
     39 C           5.4545   73.7801   28.2221 C.ar    1  UNL1        0.0001
     40 C           4.7335   74.2951   29.3162 C.ar    1  UNL1        0.0000
     41 C           3.7630   73.5164   29.9543 C.ar    1  UNL1        0.0000
     42 C           3.5018   72.2186   29.5097 C.ar    1  UNL1        0.0000
     43 C           4.2102   71.6963   28.4253 C.ar    1  UNL1        0.0000
     44 C           5.1811   72.4707   27.7828 C.ar    1  UNL1        0.0000
     45 C           7.6746   73.8891   23.3664 C.3     1  UNL1        0.2526
     46 O           8.2992   74.8187   24.2450 O.3     1  UNL1       -0.4684
@<TRIPOS>BOND
     1    45    46    1
     2    46    29    1
     3    29    30   ar
     4    30    31   ar
     5    31    39    1
     6    39    40   ar
     7    40    41   ar
     8    41    42   ar
     9    42    43   ar
    10    43    44   ar
    11    31    32   ar
    12    32    33   ar
    13    33    34   ar
    14    34    35    1
    15    34    36   ar
    16    36    25    1
    17    25    26    2
    18    25    27   am
    19    27     1    1
    20     1     2   ar
    21     2     3   ar
    22     3     4   ar
    23     4     7    1
    24     7     8    1
    25     8     9    1
    26     9    10    1
    27    10    13    1
    28    13    14    1
    29    14    15    1
    30    15    16   ar
    31    16    17   ar
    32    17    18   ar
    33    18    19   ar
    34    19    21    1
    35    21    22    2
    36    21    23    1
    37    19    20   ar
    38    10    11    1
    39    11    12    1
    40     4     5   ar
    41     5     6   ar
    42    36    37   ar
    43    37    38   ar
    44    38    29   ar
    45    44    39   ar
    46    38    33   ar
    47     6     1   ar
    48    12     7    1
    49    20    15   ar
    50    27    28    1
    51    23    24    1
