@<TRIPOS>MOLECULE
*****
 40 44 0 0 0
SMALL
GASTEIGER

@<TRIPOS>ATOM
      1 C         -26.4814   48.5297   -7.3003 C.ar    1  UNL1        0.0888
      2 C         -25.2819   48.8719   -7.9813 C.ar    1  UNL1        0.0282
      3 C         -25.1571   50.1719   -8.4925 C.ar    1  UNL1        0.0997
      4 N         -24.1190   50.6981   -9.1665 N.ar    1  UNL1       -0.2137
      5 C         -24.5389   51.9705   -9.4116 C.ar    1  UNL1        0.1984
      6 N         -25.7684   52.2539   -8.9148 N.ar    1  UNL1       -0.3255
      7 C         -26.1434   51.1043   -8.3436 C.ar    1  UNL1        0.0755
      8 C         -27.3155   50.7955   -7.6680 C.ar    1  UNL1        0.0325
      9 C         -27.4711   49.5344   -7.1503 C.ar    1  UNL1        0.1401
     10 O         -28.6755   49.4275   -6.4868 O.3     1  UNL1       -0.4824
     11 C         -29.4161   50.6490   -6.5709 C.3     1  UNL1        0.1375
     12 C         -29.7038   51.1610   -5.1540 C.3     1  UNL1        0.0439
     13 C         -30.7283   50.3889   -7.3228 C.3     1  UNL1        0.0439
     14 C         -28.4972   51.6397   -7.3615 C.3     1  UNL1        0.0709
     15 H         -26.2948   53.1545   -8.9633 H       1  UNL1        0.1686
     16 N         -27.7892   46.3458   -7.1290 N.am    1  UNL1       -0.2806
     17 C         -26.6691   47.1652   -6.7577 C.2     1  UNL1        0.2525
     18 O         -25.8338   46.7142   -5.9288 O.2     1  UNL1       -0.2697
     19 H         -28.1152   45.6365   -6.4347 H       1  UNL1        0.1552
     20 C         -30.6707   46.7421   -7.3514 C.3     1  UNL1        0.0323
     21 C         -29.8005   46.5384   -8.5621 C.ar    1  UNL1       -0.0084
     22 C         -30.3827   46.5450   -9.8410 C.ar    1  UNL1        0.0008
     23 C         -29.5962   46.3769  -10.9921 C.ar    1  UNL1        0.0712
     24 C         -28.2083   46.2282  -10.8534 C.ar    1  UNL1        0.0051
     25 C         -27.6220   46.2045   -9.5877 C.ar    1  UNL1        0.0143
     26 C         -28.4046   46.3644   -8.4316 C.ar    1  UNL1        0.0465
     27 C         -30.2235   46.4612  -12.3610 C.3     1  UNL1        0.4186
     28 F         -31.4699   45.8594  -12.3634 F       1  UNL1       -0.1659
     29 F         -29.4347   45.8245  -13.3037 F       1  UNL1       -0.1659
     30 F         -30.3640   47.7901  -12.7149 F       1  UNL1       -0.1659
     31 N         -23.7389   52.9463  -10.0908 N.pl3   1  UNL1       -0.2816
     32 H         -24.2052   53.8249  -10.4103 H       1  UNL1        0.1551
     33 C         -22.3128   52.8337  -10.2188 C.ar    1  UNL1        0.0889
     34 C         -21.5338   52.3444   -9.1520 C.ar    1  UNL1        0.1543
     35 F         -22.1180   51.9453   -7.9942 F       1  UNL1       -0.2028
     36 C         -20.1480   52.2222   -9.2910 C.ar    1  UNL1        0.0310
     37 C         -19.5293   52.5736  -10.4920 C.ar    1  UNL1        0.0033
     38 C         -20.2949   53.0414  -11.5621 C.ar    1  UNL1        0.0128
     39 C         -21.6833   53.1670  -11.4345 C.ar    1  UNL1        0.0733
     40 CL        -22.6070   53.7793  -12.8003 Cl      1  UNL1       -0.0809
@<TRIPOS>BOND
     1    20    21    1
     2    21    22   ar
     3    22    23   ar
     4    23    27    1
     5    27    28    1
     6    27    29    1
     7    27    30    1
     8    23    24   ar
     9    24    25   ar
    10    25    26   ar
    11    26    16    1
    12    16    17   am
    13    17    18    2
    14    17     1    1
    15     1     2   ar
    16     2     3   ar
    17     3     4   ar
    18     4     5   ar
    19     5    31    1
    20    31    33    1
    21    33    34   ar
    22    34    35    1
    23    34    36   ar
    24    36    37   ar
    25    37    38   ar
    26    38    39   ar
    27    39    40    1
    28     5     6   ar
    29     6     7   ar
    30     7     8   ar
    31     8     9   ar
    32     9    10    1
    33    10    11    1
    34    11    12    1
    35    11    13    1
    36    11    14    1
    37    26    21   ar
    38     9     1   ar
    39     7     3   ar
    40    14     8    1
    41    39    33   ar
    42    16    19    1
    43    31    32    1
    44     6    15    1
@<TRIPOS>MOLECULE
*****
 40 44 0 0 0
SMALL
GASTEIGER

@<TRIPOS>ATOM
      1 C         -27.2584   49.0379   -9.0908 C.ar    1  UNL1        0.0888
      2 C         -26.2396   49.4302  -10.0007 C.ar    1  UNL1        0.0282
      3 C         -25.6131   50.6690   -9.8012 C.ar    1  UNL1        0.0997
      4 N         -24.6376   51.2293  -10.5383 N.ar    1  UNL1       -0.2137
      5 C         -24.4208   52.4102   -9.8949 C.ar    1  UNL1        0.1984
      6 N         -25.1995   52.5961   -8.8004 N.ar    1  UNL1       -0.3255
      7 C         -25.9483   51.4889   -8.7620 C.ar    1  UNL1        0.0755
      8 C         -26.9289   51.1175   -7.8532 C.ar    1  UNL1        0.0325
      9 C         -27.5607   49.9102   -8.0141 C.ar    1  UNL1        0.1401
     10 O         -28.4719   49.7004   -7.0002 O.3     1  UNL1       -0.4824
     11 C         -28.5123   50.8192   -6.1091 C.3     1  UNL1        0.1375
     12 C         -28.1758   50.3441   -4.6900 C.3     1  UNL1        0.0439
     13 C         -29.9151   51.4401   -6.1472 C.3     1  UNL1        0.0439
     14 C         -27.4353   51.8199   -6.6476 C.3     1  UNL1        0.0709
     15 H         -25.2096   53.4075   -8.1430 H       1  UNL1        0.1686
     16 N         -27.6560   46.5966   -8.4654 N.am    1  UNL1       -0.2806
     17 C         -27.9623   47.7478   -9.2685 C.2     1  UNL1        0.2525
     18 O         -28.8427   47.6475  -10.1647 O.2     1  UNL1       -0.2697
     19 H         -27.8239   45.6572   -8.8905 H       1  UNL1        0.1552
     20 C         -29.6408   46.2139   -6.3621 C.3     1  UNL1        0.0323
     21 C         -28.1961   46.4964   -6.0499 C.ar    1  UNL1       -0.0084
     22 C         -27.7805   46.5726   -4.7097 C.ar    1  UNL1        0.0008
     23 C         -26.4362   46.8157   -4.3845 C.ar    1  UNL1        0.0712
     24 C         -25.4994   46.9560   -5.4190 C.ar    1  UNL1        0.0051
     25 C         -25.9039   46.8976   -6.7528 C.ar    1  UNL1        0.0143
     26 C         -27.2489   46.6624   -7.0849 C.ar    1  UNL1        0.0465
     27 C         -25.9911   46.8202   -2.9435 C.3     1  UNL1        0.4186
     28 F         -24.6730   46.4108   -2.8396 F       1  UNL1       -0.1659
     29 F         -26.7703   45.9635   -2.1852 F       1  UNL1       -0.1659
     30 F         -26.1064   48.1012   -2.4369 F       1  UNL1       -0.1659
     31 N         -23.4254   53.3572  -10.3021 N.pl3   1  UNL1       -0.2816
     32 H         -23.7141   54.3556  -10.4080 H       1  UNL1        0.1551
     33 C         -22.0344   53.0222  -10.4262 C.ar    1  UNL1        0.0889
     34 C         -21.3493   52.4000   -9.3642 C.ar    1  UNL1        0.1543
     35 F         -21.9966   52.0814   -8.2150 F       1  UNL1       -0.2028
     36 C         -19.9995   52.0620   -9.4996 C.ar    1  UNL1        0.0310
     37 C         -19.3254   52.3287  -10.6926 C.ar    1  UNL1        0.0033
     38 C         -20.0005   52.9275  -11.7582 C.ar    1  UNL1        0.0128
     39 C         -21.3523   53.2695  -11.6341 C.ar    1  UNL1        0.0733
     40 CL        -22.1590   54.0404  -12.9938 Cl      1  UNL1       -0.0809
@<TRIPOS>BOND
     1    20    21    1
     2    21    22   ar
     3    22    23   ar
     4    23    27    1
     5    27    28    1
     6    27    29    1
     7    27    30    1
     8    23    24   ar
     9    24    25   ar
    10    25    26   ar
    11    26    16    1
    12    16    17   am
    13    17    18    2
    14    17     1    1
    15     1     2   ar
    16     2     3   ar
    17     3     4   ar
    18     4     5   ar
    19     5    31    1
    20    31    33    1
    21    33    34   ar
    22    34    35    1
    23    34    36   ar
    24    36    37   ar
    25    37    38   ar
    26    38    39   ar
    27    39    40    1
    28     5     6   ar
    29     6     7   ar
    30     7     8   ar
    31     8     9   ar
    32     9    10    1
    33    10    11    1
    34    11    12    1
    35    11    13    1
    36    11    14    1
    37    26    21   ar
    38     9     1   ar
    39     7     3   ar
    40    14     8    1
    41    39    33   ar
    42    16    19    1
    43    31    32    1
    44     6    15    1
@<TRIPOS>MOLECULE
*****
 40 44 0 0 0
SMALL
GASTEIGER

@<TRIPOS>ATOM
      1 C         -28.2694   50.9944   -6.9383 C.ar    1  UNL1        0.0888
      2 C         -27.3219   51.9761   -7.3362 C.ar    1  UNL1        0.0282
      3 C         -26.4553   51.6704   -8.3956 C.ar    1  UNL1        0.0997
      4 N         -25.4913   52.4454   -8.9239 N.ar    1  UNL1       -0.2137
      5 C         -24.9785   51.6528   -9.9060 C.ar    1  UNL1        0.1984
      6 N         -25.5831   50.4439  -10.0148 N.ar    1  UNL1       -0.3255
      7 C         -26.5080   50.4728   -9.0494 C.ar    1  UNL1        0.0755
      8 C         -27.4363   49.5071   -8.6872 C.ar    1  UNL1        0.0325
      9 C         -28.3036   49.7726   -7.6577 C.ar    1  UNL1        0.1401
     10 O         -29.1699   48.7162   -7.4683 O.3     1  UNL1       -0.4824
     11 C         -28.8793   47.6476   -8.3745 C.3     1  UNL1        0.1375
     12 C         -30.1251   47.3517   -9.2189 C.3     1  UNL1        0.0439
     13 C         -28.4701   46.4060   -7.5707 C.3     1  UNL1        0.0439
     14 C         -27.6965   48.1633   -9.2612 C.3     1  UNL1        0.0709
     15 H         -25.3781   49.6759  -10.6921 H       1  UNL1        0.1686
     16 N         -29.5196   50.2568   -4.8402 N.am    1  UNL1       -0.2806
     17 C         -29.1946   51.2618   -5.8140 C.2     1  UNL1        0.2525
     18 O         -29.7311   52.3981   -5.7177 O.2     1  UNL1       -0.2697
     19 H         -30.4516   50.3256   -4.3731 H       1  UNL1        0.1552
     20 C         -30.4702   47.5272   -4.4461 C.3     1  UNL1        0.0323
     21 C         -29.0421   47.9182   -4.1774 C.ar    1  UNL1       -0.0084
     22 C         -28.1314   46.9458   -3.7306 C.ar    1  UNL1        0.0008
     23 C         -26.7875   47.2736   -3.4891 C.ar    1  UNL1        0.0712
     24 C         -26.3529   48.5861   -3.7260 C.ar    1  UNL1        0.0051
     25 C         -27.2521   49.5628   -4.1546 C.ar    1  UNL1        0.0143
     26 C         -28.5999   49.2430   -4.3907 C.ar    1  UNL1        0.0465
     27 C         -25.8050   46.2042   -3.0823 C.3     1  UNL1        0.4186
     28 F         -26.2866   45.4860   -2.0015 F       1  UNL1       -0.1659
     29 F         -24.5905   46.7628   -2.7228 F       1  UNL1       -0.1659
     30 F         -25.6072   45.3417   -4.1443 F       1  UNL1       -0.1659
     31 N         -23.9259   52.0696  -10.7844 N.pl3   1  UNL1       -0.2816
     32 H         -24.1439   52.1573  -11.8023 H       1  UNL1        0.1551
     33 C         -22.6424   52.5074  -10.3113 C.ar    1  UNL1        0.0889
     34 C         -22.1578   52.0840   -9.0583 C.ar    1  UNL1        0.1543
     35 F         -22.8817   51.2341   -8.2871 F       1  UNL1       -0.2028
     36 C         -20.9000   52.5014   -8.6128 C.ar    1  UNL1        0.0310
     37 C         -20.1120   53.3312   -9.4123 C.ar    1  UNL1        0.0033
     38 C         -20.5751   53.7407  -10.6644 C.ar    1  UNL1        0.0128
     39 C         -21.8325   53.3282  -11.1210 C.ar    1  UNL1        0.0733
     40 CL        -22.3855   53.8837  -12.6956 Cl      1  UNL1       -0.0809
@<TRIPOS>BOND
     1    20    21    1
     2    21    22   ar
     3    22    23   ar
     4    23    27    1
     5    27    28    1
     6    27    29    1
     7    27    30    1
     8    23    24   ar
     9    24    25   ar
    10    25    26   ar
    11    26    16    1
    12    16    17   am
    13    17    18    2
    14    17     1    1
    15     1     2   ar
    16     2     3   ar
    17     3     4   ar
    18     4     5   ar
    19     5    31    1
    20    31    33    1
    21    33    34   ar
    22    34    35    1
    23    34    36   ar
    24    36    37   ar
    25    37    38   ar
    26    38    39   ar
    27    39    40    1
    28     5     6   ar
    29     6     7   ar
    30     7     8   ar
    31     8     9   ar
    32     9    10    1
    33    10    11    1
    34    11    12    1
    35    11    13    1
    36    11    14    1
    37    26    21   ar
    38     9     1   ar
    39     7     3   ar
    40    14     8    1
    41    39    33   ar
    42    16    19    1
    43    31    32    1
    44     6    15    1
@<TRIPOS>MOLECULE
*****
 40 44 0 0 0
SMALL
GASTEIGER

@<TRIPOS>ATOM
      1 C         -27.3612   51.2009  -10.3459 C.ar    1  UNL1        0.0888
      2 C         -26.1520   51.3743  -11.0723 C.ar    1  UNL1        0.0282
      3 C         -24.9481   51.4217  -10.3546 C.ar    1  UNL1        0.0997
      4 N         -23.7036   51.5810  -10.8390 N.ar    1  UNL1       -0.2137
      5 C         -22.9403   51.5514   -9.7112 C.ar    1  UNL1        0.1984
      6 N         -23.6471   51.3705   -8.5681 N.ar    1  UNL1       -0.3255
      7 C         -24.9121   51.2966   -8.9953 C.ar    1  UNL1        0.0755
      8 C         -26.0796   51.1104   -8.2689 C.ar    1  UNL1        0.0325
      9 C         -27.2763   51.0546   -8.9378 C.ar    1  UNL1        0.1401
     10 O         -28.3141   50.8295   -8.0577 O.3     1  UNL1       -0.4824
     11 C         -27.8367   50.7607   -6.7105 C.3     1  UNL1        0.1375
     12 C         -28.2197   49.4022   -6.1101 C.3     1  UNL1        0.0439
     13 C         -28.4637   51.9013   -5.8976 C.3     1  UNL1        0.0439
     14 C         -26.2828   50.9242   -6.8104 C.3     1  UNL1        0.0709
     15 H         -23.2893   51.3018   -7.5894 H       1  UNL1        0.1686
     16 N         -29.4061   49.9446  -11.2114 N.am    1  UNL1       -0.2806
     17 C         -28.6599   51.1622  -11.0556 C.2     1  UNL1        0.2525
     18 O         -29.1169   52.2241  -11.5573 O.2     1  UNL1       -0.2697
     19 H         -30.0305   49.8684  -12.0456 H       1  UNL1        0.1552
     20 C         -31.5827   49.8331   -9.2724 C.3     1  UNL1        0.0323
     21 C         -30.4688   48.8213   -9.2761 C.ar    1  UNL1       -0.0084
     22 C         -30.4726   47.7853   -8.3267 C.ar    1  UNL1        0.0008
     23 C         -29.4583   46.8142   -8.3152 C.ar    1  UNL1        0.0712
     24 C         -28.4474   46.8732   -9.2858 C.ar    1  UNL1        0.0051
     25 C         -28.4255   47.9062  -10.2231 C.ar    1  UNL1        0.0143
     26 C         -29.4332   48.8854  -10.2350 C.ar    1  UNL1        0.0465
     27 C         -29.5156   45.6661   -7.3390 C.3     1  UNL1        0.4186
     28 F         -29.4573   44.4553   -8.0072 F       1  UNL1       -0.1659
     29 F         -30.6908   45.6998   -6.6083 F       1  UNL1       -0.1659
     30 F         -28.4432   45.7540   -6.4713 F       1  UNL1       -0.1659
     31 N         -21.5109   51.6521   -9.7253 N.pl3   1  UNL1       -0.2816
     32 H         -20.9699   50.8754  -10.1673 H       1  UNL1        0.1551
     33 C         -20.8075   52.8281   -9.2952 C.ar    1  UNL1        0.0889
     34 C         -20.0871   52.8299   -8.0847 C.ar    1  UNL1        0.1543
     35 F         -20.0218   51.7135   -7.3162 F       1  UNL1       -0.2028
     36 C         -19.3912   53.9736   -7.6817 C.ar    1  UNL1        0.0310
     37 C         -19.3968   55.1171   -8.4824 C.ar    1  UNL1        0.0033
     38 C         -20.0919   55.1192   -9.6935 C.ar    1  UNL1        0.0128
     39 C         -20.7915   53.9794  -10.1074 C.ar    1  UNL1        0.0733
     40 CL        -21.6702   54.0317  -11.6301 Cl      1  UNL1       -0.0809
@<TRIPOS>BOND
     1    20    21    1
     2    21    22   ar
     3    22    23   ar
     4    23    27    1
     5    27    28    1
     6    27    29    1
     7    27    30    1
     8    23    24   ar
     9    24    25   ar
    10    25    26   ar
    11    26    16    1
    12    16    17   am
    13    17    18    2
    14    17     1    1
    15     1     2   ar
    16     2     3   ar
    17     3     4   ar
    18     4     5   ar
    19     5    31    1
    20    31    33    1
    21    33    34   ar
    22    34    35    1
    23    34    36   ar
    24    36    37   ar
    25    37    38   ar
    26    38    39   ar
    27    39    40    1
    28     5     6   ar
    29     6     7   ar
    30     7     8   ar
    31     8     9   ar
    32     9    10    1
    33    10    11    1
    34    11    12    1
    35    11    13    1
    36    11    14    1
    37    26    21   ar
    38     9     1   ar
    39     7     3   ar
    40    14     8    1
    41    39    33   ar
    42    16    19    1
    43    31    32    1
    44     6    15    1
@<TRIPOS>MOLECULE
*****
 40 44 0 0 0
SMALL
GASTEIGER

@<TRIPOS>ATOM
      1 C         -27.1584   51.1809   -8.2130 C.ar    1  UNL1        0.0888
      2 C         -25.7455   51.2795   -8.0963 C.ar    1  UNL1        0.0282
      3 C         -24.9882   51.3804   -9.2723 C.ar    1  UNL1        0.0997
      4 N         -23.6518   51.4787   -9.3882 N.ar    1  UNL1       -0.2137
      5 C         -23.4751   51.5451  -10.7372 C.ar    1  UNL1        0.1984
      6 N         -24.6281   51.5057  -11.4498 N.ar    1  UNL1       -0.3255
      7 C         -25.5705   51.3961  -10.5073 C.ar    1  UNL1        0.0755
      8 C         -26.9492   51.3172  -10.6425 C.ar    1  UNL1        0.0325
      9 C         -27.7230   51.2217   -9.5134 C.ar    1  UNL1        0.1401
     10 O         -29.0617   51.1906   -9.8438 O.3     1  UNL1       -0.4824
     11 C         -29.2394   51.2280  -11.2632 C.3     1  UNL1        0.1375
     12 C         -30.0971   52.4453  -11.6306 C.3     1  UNL1        0.0439
     13 C         -29.9260   49.9327  -11.7167 C.3     1  UNL1        0.0439
     14 C         -27.7969   51.3434  -11.8607 C.3     1  UNL1        0.0709
     15 H         -24.7512   51.5531  -12.4857 H       1  UNL1        0.1686
     16 N         -29.1229   50.1590   -6.9459 N.am    1  UNL1       -0.2806
     17 C         -28.0010   51.0545   -7.0024 C.2     1  UNL1        0.2525
     18 O         -27.7411   51.7682   -5.9967 O.2     1  UNL1       -0.2697
     19 H         -29.9071   50.4130   -6.3040 H       1  UNL1        0.1552
     20 C         -31.5839   49.3452   -8.2844 C.3     1  UNL1        0.0323
     21 C         -30.3617   48.4674   -8.2651 C.ar    1  UNL1       -0.0084
     22 C         -30.3951   47.2214   -8.9139 C.ar    1  UNL1        0.0008
     23 C         -29.2659   46.3869   -8.9309 C.ar    1  UNL1        0.0712
     24 C         -28.0857   46.8245   -8.3119 C.ar    1  UNL1        0.0051
     25 C         -28.0464   48.0528   -7.6516 C.ar    1  UNL1        0.0143
     26 C         -29.1753   48.8890   -7.6243 C.ar    1  UNL1        0.0465
     27 C         -29.2924   45.0866   -9.6945 C.3     1  UNL1        0.4186
     28 F         -29.9882   44.1209   -8.9879 F       1  UNL1       -0.1659
     29 F         -28.0083   44.6191   -9.9148 F       1  UNL1       -0.1659
     30 F         -29.9133   45.2884  -10.9130 F       1  UNL1       -0.1659
     31 N         -22.1914   51.6935  -11.3565 N.pl3   1  UNL1       -0.2816
     32 H         -22.0953   51.4100  -12.3574 H       1  UNL1        0.1551
     33 C         -21.0848   52.3436  -10.7119 C.ar    1  UNL1        0.0889
     34 C         -19.8827   51.6479  -10.4771 C.ar    1  UNL1        0.1543
     35 F         -19.7381   50.3601  -10.8791 F       1  UNL1       -0.2028
     36 C         -18.8044   52.2933   -9.8642 C.ar    1  UNL1        0.0310
     37 C         -18.9089   53.6346   -9.4916 C.ar    1  UNL1        0.0033
     38 C         -20.0895   54.3385   -9.7376 C.ar    1  UNL1        0.0128
     39 C         -21.1752   53.7027  -10.3514 C.ar    1  UNL1        0.0733
     40 CL        -22.6504   54.6209  -10.6243 Cl      1  UNL1       -0.0809
@<TRIPOS>BOND
     1    20    21    1
     2    21    22   ar
     3    22    23   ar
     4    23    27    1
     5    27    28    1
     6    27    29    1
     7    27    30    1
     8    23    24   ar
     9    24    25   ar
    10    25    26   ar
    11    26    16    1
    12    16    17   am
    13    17    18    2
    14    17     1    1
    15     1     2   ar
    16     2     3   ar
    17     3     4   ar
    18     4     5   ar
    19     5    31    1
    20    31    33    1
    21    33    34   ar
    22    34    35    1
    23    34    36   ar
    24    36    37   ar
    25    37    38   ar
    26    38    39   ar
    27    39    40    1
    28     5     6   ar
    29     6     7   ar
    30     7     8   ar
    31     8     9   ar
    32     9    10    1
    33    10    11    1
    34    11    12    1
    35    11    13    1
    36    11    14    1
    37    26    21   ar
    38     9     1   ar
    39     7     3   ar
    40    14     8    1
    41    39    33   ar
    42    16    19    1
    43    31    32    1
    44     6    15    1
@<TRIPOS>MOLECULE
*****
 40 44 0 0 0
SMALL
GASTEIGER

@<TRIPOS>ATOM
      1 C         -27.5969   51.0796   -9.7174 C.ar    1  UNL1        0.0888
      2 C         -26.5804   52.0704   -9.7862 C.ar    1  UNL1        0.0282
      3 C         -25.3111   51.7548   -9.2800 C.ar    1  UNL1        0.0997
      4 N         -24.2187   52.5385   -9.2425 N.ar    1  UNL1       -0.2137
      5 C         -23.2937   51.7300   -8.6542 C.ar    1  UNL1        0.1984
      6 N         -23.7562   50.4940   -8.3424 N.ar    1  UNL1       -0.3255
      7 C         -25.0324   50.5320   -8.7402 C.ar    1  UNL1        0.0755
      8 C         -26.0060   49.5452   -8.6782 C.ar    1  UNL1        0.0325
      9 C         -27.2587   49.8166   -9.1679 C.ar    1  UNL1        0.1401
     10 O         -28.0745   48.7103   -9.0537 O.3     1  UNL1       -0.4824
     11 C         -27.3825   47.6271   -8.4250 C.3     1  UNL1        0.1375
     12 C         -27.3824   46.4164   -9.3667 C.3     1  UNL1        0.0439
     13 C         -28.0871   47.2799   -7.1067 C.3     1  UNL1        0.0439
     14 C         -25.9301   48.1530   -8.1695 C.3     1  UNL1        0.0709
     15 H         -23.2392   49.7013   -7.9008 H       1  UNL1        0.1686
     16 N         -30.1309   50.8005   -9.6184 N.am    1  UNL1       -0.2806
     17 C         -28.9581   51.3696  -10.2220 C.2     1  UNL1        0.2525
     18 O         -29.0936   52.1214  -11.2244 O.2     1  UNL1       -0.2697
     19 H         -30.9661   50.6624  -10.2306 H       1  UNL1        0.1552
     20 C         -31.5830   48.4251   -8.7472 C.3     1  UNL1        0.0323
     21 C         -30.9718   49.3879   -7.7653 C.ar    1  UNL1       -0.0084
     22 C         -31.0926   49.1400   -6.3874 C.ar    1  UNL1        0.0008
     23 C         -30.5175   50.0084   -5.4455 C.ar    1  UNL1        0.0712
     24 C         -29.7920   51.1205   -5.8977 C.ar    1  UNL1        0.0051
     25 C         -29.6792   51.3844   -7.2629 C.ar    1  UNL1        0.0143
     26 C         -30.2589   50.5236   -8.2103 C.ar    1  UNL1        0.0465
     27 C         -30.5908   49.6899   -3.9732 C.3     1  UNL1        0.4186
     28 F         -29.3520   49.2959   -3.4979 F       1  UNL1       -0.1659
     29 F         -31.4903   48.6649   -3.7358 F       1  UNL1       -0.1659
     30 F         -31.0001   50.8166   -3.2849 F       1  UNL1       -0.1659
     31 N         -21.9352   52.1245   -8.4256 N.pl3   1  UNL1       -0.2816
     32 H         -21.6418   52.3220   -7.4426 H       1  UNL1        0.1551
     33 C         -20.9365   52.1171   -9.4577 C.ar    1  UNL1        0.0889
     34 C         -21.2329   51.6109  -10.7384 C.ar    1  UNL1        0.1543
     35 F         -22.4741   51.1460  -11.0289 F       1  UNL1       -0.2028
     36 C         -20.2599   51.6231  -11.7423 C.ar    1  UNL1        0.0310
     37 C         -18.9921   52.1475  -11.4846 C.ar    1  UNL1        0.0033
     38 C         -18.6944   52.6694  -10.2241 C.ar    1  UNL1        0.0128
     39 C         -19.6611   52.6632   -9.2117 C.ar    1  UNL1        0.0733
     40 CL        -19.2377   53.3121   -7.6327 Cl      1  UNL1       -0.0809
@<TRIPOS>BOND
     1    20    21    1
     2    21    22   ar
     3    22    23   ar
     4    23    27    1
     5    27    28    1
     6    27    29    1
     7    27    30    1
     8    23    24   ar
     9    24    25   ar
    10    25    26   ar
    11    26    16    1
    12    16    17   am
    13    17    18    2
    14    17     1    1
    15     1     2   ar
    16     2     3   ar
    17     3     4   ar
    18     4     5   ar
    19     5    31    1
    20    31    33    1
    21    33    34   ar
    22    34    35    1
    23    34    36   ar
    24    36    37   ar
    25    37    38   ar
    26    38    39   ar
    27    39    40    1
    28     5     6   ar
    29     6     7   ar
    30     7     8   ar
    31     8     9   ar
    32     9    10    1
    33    10    11    1
    34    11    12    1
    35    11    13    1
    36    11    14    1
    37    26    21   ar
    38     9     1   ar
    39     7     3   ar
    40    14     8    1
    41    39    33   ar
    42    16    19    1
    43    31    32    1
    44     6    15    1
@<TRIPOS>MOLECULE
*****
 40 44 0 0 0
SMALL
GASTEIGER

@<TRIPOS>ATOM
      1 C         -27.8633   51.1423   -7.8928 C.ar    1  UNL1        0.0888
      2 C         -27.2608   52.2277   -8.5846 C.ar    1  UNL1        0.0282
      3 C         -26.0499   51.9975   -9.2537 C.ar    1  UNL1        0.0997
      4 N         -25.3162   52.8766   -9.9592 N.ar    1  UNL1       -0.2137
      5 C         -24.2639   52.1183  -10.3751 C.ar    1  UNL1        0.1984
      6 N         -24.3205   50.8242   -9.9739 N.ar    1  UNL1       -0.3255
      7 C         -25.4519   50.7701   -9.2632 C.ar    1  UNL1        0.0755
      8 C         -26.0318   49.6933   -8.6076 C.ar    1  UNL1        0.0325
      9 C         -27.2191   49.8799   -7.9456 C.ar    1  UNL1        0.1401
     10 O         -27.6562   48.6956   -7.3899 O.3     1  UNL1       -0.4824
     11 C         -26.7229   47.6394   -7.6370 C.3     1  UNL1        0.1375
     12 C         -27.4325   46.5075   -8.3905 C.3     1  UNL1        0.0439
     13 C         -26.1761   47.1299   -6.2967 C.3     1  UNL1        0.0439
     14 C         -25.5882   48.2806   -8.5045 C.3     1  UNL1        0.0709
     15 H         -23.6447   50.0537  -10.1748 H       1  UNL1        0.1686
     16 N         -30.3855   50.8415   -7.6535 N.am    1  UNL1       -0.2806
     17 C         -29.1325   51.3382   -7.1564 C.2     1  UNL1        0.2525
     18 O         -29.1195   51.9778   -6.0705 O.2     1  UNL1       -0.2697
     19 H         -31.2505   51.3554   -7.3721 H       1  UNL1        0.1552
     20 C         -30.1741   50.9231  -10.5619 C.3     1  UNL1        0.0323
     21 C         -30.4441   49.6419   -9.8201 C.ar    1  UNL1       -0.0084
     22 C         -30.5929   48.4443  -10.5400 C.ar    1  UNL1        0.0008
     23 C         -30.8264   47.2287   -9.8769 C.ar    1  UNL1        0.0712
     24 C         -30.8834   47.2169   -8.4754 C.ar    1  UNL1        0.0051
     25 C         -30.7526   48.4025   -7.7518 C.ar    1  UNL1        0.0143
     26 C         -30.5265   49.6233   -8.4098 C.ar    1  UNL1        0.0465
     27 C         -30.9092   45.9405  -10.6568 C.3     1  UNL1        0.4186
     28 F         -31.5833   46.1358  -11.8498 F       1  UNL1       -0.1659
     29 F         -31.5823   44.9704   -9.9343 F       1  UNL1       -0.1659
     30 F         -29.6304   45.4923  -10.9299 F       1  UNL1       -0.1659
     31 N         -23.2099   52.6221  -11.2050 N.pl3   1  UNL1       -0.2816
     32 H         -23.4380   52.8569  -12.1971 H       1  UNL1        0.1551
     33 C         -21.9075   52.9521  -10.6975 C.ar    1  UNL1        0.0889
     34 C         -20.9034   51.9684  -10.6062 C.ar    1  UNL1        0.1543
     35 F         -21.1390   50.6980  -11.0206 F       1  UNL1       -0.2028
     36 C         -19.6331   52.3019  -10.1269 C.ar    1  UNL1        0.0310
     37 C         -19.3488   53.6147   -9.7466 C.ar    1  UNL1        0.0033
     38 C         -20.3313   54.6013   -9.8516 C.ar    1  UNL1        0.0128
     39 C         -21.6065   54.2789  -10.3310 C.ar    1  UNL1        0.0733
     40 CL        -22.8204   55.5480  -10.4280 Cl      1  UNL1       -0.0809
@<TRIPOS>BOND
     1    20    21    1
     2    21    22   ar
     3    22    23   ar
     4    23    27    1
     5    27    28    1
     6    27    29    1
     7    27    30    1
     8    23    24   ar
     9    24    25   ar
    10    25    26   ar
    11    26    16    1
    12    16    17   am
    13    17    18    2
    14    17     1    1
    15     1     2   ar
    16     2     3   ar
    17     3     4   ar
    18     4     5   ar
    19     5    31    1
    20    31    33    1
    21    33    34   ar
    22    34    35    1
    23    34    36   ar
    24    36    37   ar
    25    37    38   ar
    26    38    39   ar
    27    39    40    1
    28     5     6   ar
    29     6     7   ar
    30     7     8   ar
    31     8     9   ar
    32     9    10    1
    33    10    11    1
    34    11    12    1
    35    11    13    1
    36    11    14    1
    37    26    21   ar
    38     9     1   ar
    39     7     3   ar
    40    14     8    1
    41    39    33   ar
    42    16    19    1
    43    31    32    1
    44     6    15    1
@<TRIPOS>MOLECULE
*****
 40 44 0 0 0
SMALL
GASTEIGER

@<TRIPOS>ATOM
      1 C         -28.1404   50.7882   -6.4181 C.ar    1  UNL1        0.0888
      2 C         -26.7574   51.0306   -6.1983 C.ar    1  UNL1        0.0282
      3 C         -25.8799   50.8977   -7.2842 C.ar    1  UNL1        0.0997
      4 N         -24.5468   51.0754   -7.2953 N.ar    1  UNL1       -0.2137
      5 C         -24.2239   50.8174   -8.5932 C.ar    1  UNL1        0.1984
      6 N         -25.2856   50.5050   -9.3769 N.ar    1  UNL1       -0.3255
      7 C         -26.3199   50.5558   -8.5308 C.ar    1  UNL1        0.0755
      8 C         -27.6680   50.3306   -8.7702 C.ar    1  UNL1        0.0325
      9 C         -28.5569   50.4556   -7.7324 C.ar    1  UNL1        0.1401
     10 O         -29.8461   50.2312   -8.1680 O.3     1  UNL1       -0.4824
     11 C         -29.8653   49.8981   -9.5595 C.3     1  UNL1        0.1375
     12 C         -30.7444   50.9090  -10.3065 C.3     1  UNL1        0.0439
     13 C         -30.4218   48.4778   -9.7273 C.3     1  UNL1        0.0439
     14 C         -28.3738   49.9808  -10.0283 C.3     1  UNL1        0.0709
     15 H         -25.2942   50.2818  -10.3970 H       1  UNL1        0.1686
     16 N         -29.4113   49.7837   -4.4471 N.am    1  UNL1       -0.2806
     17 C         -29.1049   50.8981   -5.3004 C.2     1  UNL1        0.2525
     18 O         -29.6920   51.9955   -5.1023 O.2     1  UNL1       -0.2697
     19 H         -30.3571   49.7654   -4.0037 H       1  UNL1        0.1552
     20 C         -29.4676   47.2043   -5.8084 C.3     1  UNL1        0.0323
     21 C         -28.4803   47.5036   -4.7129 C.ar    1  UNL1       -0.0084
     22 C         -27.5502   46.5212   -4.3330 C.ar    1  UNL1        0.0008
     23 C         -26.6032   46.7752   -3.3278 C.ar    1  UNL1        0.0712
     24 C         -26.5768   48.0392   -2.7201 C.ar    1  UNL1        0.0051
     25 C         -27.5055   49.0164   -3.0787 C.ar    1  UNL1        0.0143
     26 C         -28.4607   48.7658   -4.0784 C.ar    1  UNL1        0.0465
     27 C         -25.5635   45.7386   -2.9828 C.3     1  UNL1        0.4186
     28 F         -24.3386   46.3378   -2.7448 F       1  UNL1       -0.1659
     29 F         -25.4076   44.8343   -4.0192 F       1  UNL1       -0.1659
     30 F         -25.9605   45.0580   -1.8471 F       1  UNL1       -0.1659
     31 N         -22.8894   50.9133   -9.1064 N.pl3   1  UNL1       -0.2816
     32 H         -22.2672   50.0797   -9.0105 H       1  UNL1        0.1551
     33 C         -22.4253   52.0395   -9.8674 C.ar    1  UNL1        0.0889
     34 C         -23.0479   52.3899  -11.0814 C.ar    1  UNL1        0.1543
     35 F         -24.1139   51.6873  -11.5408 F       1  UNL1       -0.2028
     36 C         -22.6006   53.4978  -11.8074 C.ar    1  UNL1        0.0310
     37 C         -21.5413   54.2702  -11.3276 C.ar    1  UNL1        0.0033
     38 C         -20.9300   53.9427  -10.1156 C.ar    1  UNL1        0.0128
     39 C         -21.3702   52.8360   -9.3799 C.ar    1  UNL1        0.0733
     40 CL        -20.5590   52.4472   -7.8685 Cl      1  UNL1       -0.0809
@<TRIPOS>BOND
     1    20    21    1
     2    21    22   ar
     3    22    23   ar
     4    23    27    1
     5    27    28    1
     6    27    29    1
     7    27    30    1
     8    23    24   ar
     9    24    25   ar
    10    25    26   ar
    11    26    16    1
    12    16    17   am
    13    17    18    2
    14    17     1    1
    15     1     2   ar
    16     2     3   ar
    17     3     4   ar
    18     4     5   ar
    19     5    31    1
    20    31    33    1
    21    33    34   ar
    22    34    35    1
    23    34    36   ar
    24    36    37   ar
    25    37    38   ar
    26    38    39   ar
    27    39    40    1
    28     5     6   ar
    29     6     7   ar
    30     7     8   ar
    31     8     9   ar
    32     9    10    1
    33    10    11    1
    34    11    12    1
    35    11    13    1
    36    11    14    1
    37    26    21   ar
    38     9     1   ar
    39     7     3   ar
    40    14     8    1
    41    39    33   ar
    42    16    19    1
    43    31    32    1
    44     6    15    1
@<TRIPOS>MOLECULE
*****
 40 44 0 0 0
SMALL
GASTEIGER

@<TRIPOS>ATOM
      1 C         -26.2168   51.1554  -10.4257 C.ar    1  UNL1        0.0888
      2 C         -25.2033   52.1077  -10.7180 C.ar    1  UNL1        0.0282
      3 C         -24.0491   52.1138   -9.9212 C.ar    1  UNL1        0.0997
      4 N         -22.9808   52.9247  -10.0212 N.ar    1  UNL1       -0.2137
      5 C         -22.1810   52.4878   -9.0088 C.ar    1  UNL1        0.1984
      6 N         -22.6951   51.4487   -8.3053 N.ar    1  UNL1       -0.3255
      7 C         -23.8764   51.2317   -8.8933 C.ar    1  UNL1        0.0755
      8 C         -24.8466   50.2835   -8.6016 C.ar    1  UNL1        0.0325
      9 C         -25.9876   50.2448   -9.3628 C.ar    1  UNL1        0.1401
     10 O         -26.8124   49.2197   -8.9491 O.3     1  UNL1       -0.4824
     11 C         -26.2496   48.5308   -7.8283 C.3     1  UNL1        0.1375
     12 C         -26.0787   47.0485   -8.1832 C.3     1  UNL1        0.0439
     13 C         -27.1849   48.6881   -6.6219 C.3     1  UNL1        0.0439
     14 C         -24.8679   49.2194   -7.5671 C.3     1  UNL1        0.0709
     15 H         -22.2694   50.9380   -7.5000 H       1  UNL1        0.1686
     16 N         -28.7085   50.6670  -10.6748 N.am    1  UNL1       -0.2806
     17 C         -27.4617   51.1199  -11.2262 C.2     1  UNL1        0.2525
     18 O         -27.4249   51.4775  -12.4341 O.2     1  UNL1       -0.2697
     19 H         -29.4009   50.2482  -11.3356 H       1  UNL1        0.1552
     20 C         -31.0442   49.2626   -9.6343 C.3     1  UNL1        0.0323
     21 C         -30.2384   50.2055   -8.7820 C.ar    1  UNL1       -0.0084
     22 C         -30.6099   50.4162   -7.4432 C.ar    1  UNL1        0.0008
     23 C         -29.8681   51.2747   -6.6157 C.ar    1  UNL1        0.0712
     24 C         -28.7273   51.9043   -7.1351 C.ar    1  UNL1        0.0051
     25 C         -28.3587   51.7143   -8.4671 C.ar    1  UNL1        0.0143
     26 C         -29.1012   50.8626   -9.3024 C.ar    1  UNL1        0.0465
     27 C         -30.2340   51.4331   -5.1613 C.3     1  UNL1        0.4186
     28 F         -29.1267   51.2311   -4.3557 F       1  UNL1       -0.1659
     29 F         -31.2064   50.5180   -4.7961 F       1  UNL1       -0.1659
     30 F         -30.7169   52.7112   -4.9513 F       1  UNL1       -0.1659
     31 N         -20.8869   53.0386   -8.7344 N.pl3   1  UNL1       -0.2816
     32 H         -20.8123   53.7631   -7.9854 H       1  UNL1        0.1551
     33 C         -19.6825   52.5378   -9.3353 C.ar    1  UNL1        0.0889
     34 C         -18.7409   51.8252   -8.5673 C.ar    1  UNL1        0.1543
     35 F         -18.9663   51.5754   -7.2528 F       1  UNL1       -0.2028
     36 C         -17.5790   51.3265   -9.1640 C.ar    1  UNL1        0.0310
     37 C         -17.3506   51.5220  -10.5273 C.ar    1  UNL1        0.0033
     38 C         -18.2871   52.2102  -11.3014 C.ar    1  UNL1        0.0128
     39 C         -19.4544   52.7132  -10.7147 C.ar    1  UNL1        0.0733
     40 CL        -20.5977   53.5915  -11.7221 Cl      1  UNL1       -0.0809
@<TRIPOS>BOND
     1    20    21    1
     2    21    22   ar
     3    22    23   ar
     4    23    27    1
     5    27    28    1
     6    27    29    1
     7    27    30    1
     8    23    24   ar
     9    24    25   ar
    10    25    26   ar
    11    26    16    1
    12    16    17   am
    13    17    18    2
    14    17     1    1
    15     1     2   ar
    16     2     3   ar
    17     3     4   ar
    18     4     5   ar
    19     5    31    1
    20    31    33    1
    21    33    34   ar
    22    34    35    1
    23    34    36   ar
    24    36    37   ar
    25    37    38   ar
    26    38    39   ar
    27    39    40    1
    28     5     6   ar
    29     6     7   ar
    30     7     8   ar
    31     8     9   ar
    32     9    10    1
    33    10    11    1
    34    11    12    1
    35    11    13    1
    36    11    14    1
    37    26    21   ar
    38     9     1   ar
    39     7     3   ar
    40    14     8    1
    41    39    33   ar
    42    16    19    1
    43    31    32    1
    44     6    15    1
