@<TRIPOS>MOLECULE
*****
 39 43 0 0 0
SMALL
GASTEIGER

@<TRIPOS>ATOM
      1 C         -20.8747   -8.6571  -12.6326 C.2     1  UNL1        0.2506
      2 O         -20.3526   -7.8368  -13.4359 O.2     1  UNL1       -0.2699
      3 N         -21.7548   -9.6838  -13.1326 N.am    1  UNL1       -0.2680
      4 C         -21.7027  -11.0440  -12.5799 C.3     1  UNL1        0.1412
      5 C         -23.0767  -11.7201  -12.5977 C.3     1  UNL1        0.2268
      6 O         -24.0788  -10.8801  -12.0292 O.3     1  UNL1       -0.4739
      7 C         -24.6408   -9.7410  -12.6339 C.ar    1  UNL1        0.1362
      8 C         -25.8674   -9.2966  -12.1267 C.ar    1  UNL1        0.0366
      9 C         -26.5114   -8.1879  -12.6753 C.ar    1  UNL1        0.0031
     10 C         -25.9392   -7.5004  -13.7514 C.ar    1  UNL1        0.0004
     11 C         -24.6950   -7.9132  -14.2478 C.ar    1  UNL1        0.0004
     12 C         -24.0272   -9.0208  -13.6955 C.ar    1  UNL1        0.0317
     13 C         -22.6691   -9.3855  -14.2394 C.3     1  UNL1        0.1236
     14 C         -26.6222   -6.3205  -14.3246 C.ar    1  UNL1        0.0069
     15 C         -25.8351   -5.2440  -14.8132 C.ar    1  UNL1        0.0021
     16 C         -26.4385   -4.1049  -15.3738 C.ar    1  UNL1        0.0207
     17 C         -27.8267   -4.0671  -15.4273 C.ar    1  UNL1        0.0990
     18 N         -28.6011   -3.0795  -15.9111 N.ar    1  UNL1       -0.2241
     19 C         -29.8578   -3.5527  -15.7064 C.ar    1  UNL1        0.1750
     20 N         -29.8864   -4.7742  -15.1227 N.ar    1  UNL1       -0.3346
     21 C         -28.5944   -5.0877  -14.9535 C.ar    1  UNL1        0.0811
     22 C         -28.0406   -6.2394  -14.3881 C.ar    1  UNL1        0.0386
     23 S         -29.1109   -7.5194  -13.7166 S.3     1  UNL1       -0.1400
     24 H         -30.7288   -5.3358  -14.8676 H       1  UNL1        0.1675
     25 H         -29.1959   -8.1780  -14.9572 H       1  UNL1        0.1072
     26 C         -21.5642   -7.9259  -10.3077 C.ar    1  UNL1        0.0503
     27 C         -21.2797   -7.8747   -8.9284 C.ar    1  UNL1        0.0328
     28 C         -20.0779   -8.3843   -8.4235 C.ar    1  UNL1        0.1069
     29 C         -19.1504   -8.9619   -9.2940 C.ar    1  UNL1        0.0186
     30 C         -19.4160   -9.0234  -10.6611 C.ar    1  UNL1        0.0071
     31 C         -20.6146   -8.5097  -11.1826 C.ar    1  UNL1        0.0667
     32 S         -19.7508   -8.3177   -6.6947 S.O2    1  UNL1        0.0105
     33 C         -18.4259   -9.4367   -6.3025 C.3     1  UNL1        0.1816
     34 O         -19.3602   -6.9211   -6.2990 O.2     1  UNL1       -0.1686
     35 O         -20.9845   -8.7082   -5.9299 O.2     1  UNL1       -0.1686
     36 N         -22.7727   -7.3351  -10.8300 N.pl3   1  UNL1       -0.3325
     37 H         -23.6523   -7.8988  -10.8352 H       1  UNL1        0.1468
     38 C         -21.6704   -5.1496  -10.9688 C.3     1  UNL1        0.0229
     39 C         -22.8414   -6.0058  -11.4359 C.3     1  UNL1        0.0871
@<TRIPOS>BOND
     1    38    39    1
     2    39    36    1
     3    36    26    1
     4    26    27   ar
     5    27    28   ar
     6    28    32    1
     7    32    33    1
     8    32    34    2
     9    32    35    2
    10    28    29   ar
    11    29    30   ar
    12    30    31   ar
    13    31     1    1
    14     1     2    2
    15     1     3   am
    16     3     4    1
    17     4     5    1
    18     5     6    1
    19     6     7    1
    20     7     8   ar
    21     8     9   ar
    22     9    10   ar
    23    10    14    1
    24    14    15   ar
    25    15    16   ar
    26    16    17   ar
    27    17    18   ar
    28    18    19   ar
    29    19    20   ar
    30    20    21   ar
    31    21    22   ar
    32    22    23    1
    33    10    11   ar
    34    11    12   ar
    35    12    13    1
    36    31    26   ar
    37    13     3    1
    38    12     7   ar
    39    22    14   ar
    40    21    17   ar
    41    36    37    1
    42    20    24    1
    43    23    25    1
@<TRIPOS>MOLECULE
*****
 39 43 0 0 0
SMALL
GASTEIGER

@<TRIPOS>ATOM
      1 C         -25.0387   -9.8644  -12.8642 C.2     1  UNL1        0.2506
      2 O         -25.1970  -10.5068  -13.9380 O.2     1  UNL1       -0.2699
      3 N         -26.1759   -9.2482  -12.2270 N.am    1  UNL1       -0.2680
      4 C         -26.3145   -9.2727  -10.7646 C.3     1  UNL1        0.1412
      5 C         -27.0228   -8.0214  -10.2376 C.3     1  UNL1        0.2268
      6 O         -26.4403   -6.8314  -10.7646 O.3     1  UNL1       -0.4739
      7 C         -26.5893   -6.3520  -12.0788 C.ar    1  UNL1        0.1362
      8 C         -26.3020   -4.9991  -12.2941 C.ar    1  UNL1        0.0366
      9 C         -26.4403   -4.4287  -13.5592 C.ar    1  UNL1        0.0031
     10 C         -26.8756   -5.2046  -14.6393 C.ar    1  UNL1        0.0004
     11 C         -27.1345   -6.5686  -14.4461 C.ar    1  UNL1        0.0004
     12 C         -26.9858   -7.1607  -13.1792 C.ar    1  UNL1        0.0317
     13 C         -27.2309   -8.6423  -13.0452 C.3     1  UNL1        0.1236
     14 C         -27.0132   -4.5970  -15.9806 C.ar    1  UNL1        0.0069
     15 C         -25.9464   -4.7356  -16.9078 C.ar    1  UNL1        0.0021
     16 C         -26.0340   -4.1823  -18.1970 C.ar    1  UNL1        0.0207
     17 C         -27.1942   -3.4927  -18.5286 C.ar    1  UNL1        0.0990
     18 N         -27.4806   -2.8839  -19.6933 N.ar    1  UNL1       -0.2241
     19 C         -28.7167   -2.3675  -19.4687 C.ar    1  UNL1        0.1750
     20 N         -29.1943   -2.6296  -18.2290 N.ar    1  UNL1       -0.3346
     21 C         -28.2211   -3.3434  -17.6462 C.ar    1  UNL1        0.0811
     22 C         -28.1801   -3.8752  -16.3546 C.ar    1  UNL1        0.0386
     23 S         -29.5396   -3.5818  -15.2143 S.3     1  UNL1       -0.1400
     24 H         -30.1134   -2.3379  -17.8285 H       1  UNL1        0.1675
     25 H         -30.2307   -4.7254  -15.6554 H       1  UNL1        0.1072
     26 C         -22.9219   -8.5233  -12.4961 C.ar    1  UNL1        0.0503
     27 C         -21.6543   -8.4178  -11.8893 C.ar    1  UNL1        0.0328
     28 C         -21.1363   -9.4668  -11.1209 C.ar    1  UNL1        0.1069
     29 C         -21.8876  -10.6308  -10.9418 C.ar    1  UNL1        0.0186
     30 C         -23.1445  -10.7517  -11.5326 C.ar    1  UNL1        0.0071
     31 C         -23.6737   -9.7101  -12.3120 C.ar    1  UNL1        0.0667
     32 S         -19.5544   -9.3062  -10.3646 S.O2    1  UNL1        0.0105
     33 C         -19.7427   -8.5733   -8.7555 C.3     1  UNL1        0.1816
     34 O         -18.9110  -10.6577  -10.2270 O.2     1  UNL1       -0.1686
     35 O         -18.6717   -8.4364  -11.2153 O.2     1  UNL1       -0.1686
     36 N         -23.4191   -7.4675  -13.3449 N.pl3   1  UNL1       -0.3325
     37 H         -23.8258   -6.6116  -12.9052 H       1  UNL1        0.1468
     38 C         -22.1977   -8.1897  -15.3443 C.3     1  UNL1        0.0229
     39 C         -23.4672   -7.5416  -14.8048 C.3     1  UNL1        0.0871
@<TRIPOS>BOND
     1    38    39    1
     2    39    36    1
     3    36    26    1
     4    26    27   ar
     5    27    28   ar
     6    28    32    1
     7    32    33    1
     8    32    34    2
     9    32    35    2
    10    28    29   ar
    11    29    30   ar
    12    30    31   ar
    13    31     1    1
    14     1     2    2
    15     1     3   am
    16     3     4    1
    17     4     5    1
    18     5     6    1
    19     6     7    1
    20     7     8   ar
    21     8     9   ar
    22     9    10   ar
    23    10    14    1
    24    14    15   ar
    25    15    16   ar
    26    16    17   ar
    27    17    18   ar
    28    18    19   ar
    29    19    20   ar
    30    20    21   ar
    31    21    22   ar
    32    22    23    1
    33    10    11   ar
    34    11    12   ar
    35    12    13    1
    36    31    26   ar
    37    13     3    1
    38    12     7   ar
    39    22    14   ar
    40    21    17   ar
    41    36    37    1
    42    20    24    1
    43    23    25    1
@<TRIPOS>MOLECULE
*****
 39 43 0 0 0
SMALL
GASTEIGER

@<TRIPOS>ATOM
      1 C         -26.2571   -8.5576  -12.3965 C.2     1  UNL1        0.2506
      2 O         -26.7796   -8.5592  -11.2486 O.2     1  UNL1       -0.2699
      3 N         -25.4701   -9.6875  -12.8240 N.am    1  UNL1       -0.2680
      4 C         -25.5663  -10.1834  -14.2036 C.3     1  UNL1        0.1412
      5 C         -24.2373  -10.7641  -14.6951 C.3     1  UNL1        0.2268
      6 O         -23.1554   -9.8671  -14.4547 O.3     1  UNL1       -0.4739
      7 C         -22.5669   -9.6004  -13.2050 C.ar    1  UNL1        0.1362
      8 C         -21.2879   -9.0320  -13.2173 C.ar    1  UNL1        0.0366
      9 C         -20.6161   -8.7510  -12.0279 C.ar    1  UNL1        0.0031
     10 C         -21.2129   -9.0388  -10.7955 C.ar    1  UNL1        0.0004
     11 C         -22.5070   -9.5766  -10.7669 C.ar    1  UNL1        0.0004
     12 C         -23.2023   -9.8522  -11.9580 C.ar    1  UNL1        0.0317
     13 C         -24.6100  -10.3833  -11.8618 C.3     1  UNL1        0.1236
     14 C         -20.4997   -8.7317   -9.5368 C.ar    1  UNL1        0.0069
     15 C         -20.7927   -7.5165   -8.8627 C.ar    1  UNL1        0.0021
     16 C         -20.1464   -7.1845   -7.6594 C.ar    1  UNL1        0.0207
     17 C         -19.2102   -8.0809   -7.1580 C.ar    1  UNL1        0.0990
     18 N         -18.4771   -7.9581   -6.0371 N.ar    1  UNL1       -0.2241
     19 C         -17.7322   -9.0940   -6.0370 C.ar    1  UNL1        0.1750
     20 N         -17.9737   -9.8982   -7.0993 N.ar    1  UNL1       -0.3346
     21 C         -18.9119   -9.2453   -7.7989 C.ar    1  UNL1        0.0811
     22 C         -19.5278   -9.6182   -8.9966 C.ar    1  UNL1        0.0386
     23 S         -19.0375  -11.1352   -9.8292 S.3     1  UNL1       -0.1400
     24 H         -17.5259  -10.8165   -7.3144 H       1  UNL1        0.1675
     25 H         -19.9801  -11.8982   -9.1153 H       1  UNL1        0.1072
     26 C         -25.3393   -6.4889  -13.5338 C.ar    1  UNL1        0.0503
     27 C         -25.5453   -5.4085  -14.4149 C.ar    1  UNL1        0.0328
     28 C         -26.7946   -5.1938  -15.0085 C.ar    1  UNL1        0.1069
     29 C         -27.8506   -6.0665  -14.7348 C.ar    1  UNL1        0.0186
     30 C         -27.6645   -7.1418  -13.8675 C.ar    1  UNL1        0.0071
     31 C         -26.4184   -7.3653  -13.2593 C.ar    1  UNL1        0.0667
     32 S         -27.0233   -3.8427  -16.1141 S.O2    1  UNL1        0.0105
     33 C         -28.7601   -3.4934  -16.2656 C.3     1  UNL1        0.1816
     34 O         -26.3115   -2.6258  -15.5926 O.2     1  UNL1       -0.1686
     35 O         -26.4587   -4.1904  -17.4631 O.2     1  UNL1       -0.1686
     36 N         -24.0697   -6.6628  -12.8704 N.pl3   1  UNL1       -0.3325
     37 H         -23.3668   -7.3166  -13.2826 H       1  UNL1        0.1468
     38 C         -22.3023   -5.4731  -11.6573 C.3     1  UNL1        0.0229
     39 C         -23.7165   -6.0377  -11.5962 C.3     1  UNL1        0.0871
@<TRIPOS>BOND
     1    38    39    1
     2    39    36    1
     3    36    26    1
     4    26    27   ar
     5    27    28   ar
     6    28    32    1
     7    32    33    1
     8    32    34    2
     9    32    35    2
    10    28    29   ar
    11    29    30   ar
    12    30    31   ar
    13    31     1    1
    14     1     2    2
    15     1     3   am
    16     3     4    1
    17     4     5    1
    18     5     6    1
    19     6     7    1
    20     7     8   ar
    21     8     9   ar
    22     9    10   ar
    23    10    14    1
    24    14    15   ar
    25    15    16   ar
    26    16    17   ar
    27    17    18   ar
    28    18    19   ar
    29    19    20   ar
    30    20    21   ar
    31    21    22   ar
    32    22    23    1
    33    10    11   ar
    34    11    12   ar
    35    12    13    1
    36    31    26   ar
    37    13     3    1
    38    12     7   ar
    39    22    14   ar
    40    21    17   ar
    41    36    37    1
    42    20    24    1
    43    23    25    1
@<TRIPOS>MOLECULE
*****
 39 43 0 0 0
SMALL
GASTEIGER

@<TRIPOS>ATOM
      1 C         -24.5024  -10.3954  -12.2027 C.2     1  UNL1        0.2506
      2 O         -24.9651  -11.0731  -11.2449 O.2     1  UNL1       -0.2699
      3 N         -23.2812  -10.8111  -12.8466 N.am    1  UNL1       -0.2680
      4 C         -23.1360  -10.7100  -14.3050 C.3     1  UNL1        0.1412
      5 C         -21.6889  -10.4227  -14.7157 C.3     1  UNL1        0.2268
      6 O         -21.1461   -9.3273  -13.9820 O.3     1  UNL1       -0.4739
      7 C         -20.7489   -9.3541  -12.6326 C.ar    1  UNL1        0.1362
      8 C         -19.8789   -8.3424  -12.2099 C.ar    1  UNL1        0.0366
      9 C         -19.4144   -8.2982  -10.8956 C.ar    1  UNL1        0.0031
     10 C         -19.8104   -9.2740   -9.9741 C.ar    1  UNL1        0.0004
     11 C         -20.7079  -10.2737  -10.3741 C.ar    1  UNL1        0.0004
     12 C         -21.1957  -10.3227  -11.6922 C.ar    1  UNL1        0.0317
     13 C         -22.1970  -11.3921  -12.0486 C.3     1  UNL1        0.1236
     14 C         -19.3214   -9.2184   -8.5795 C.ar    1  UNL1        0.0069
     15 C         -19.7919   -8.1824   -7.7297 C.ar    1  UNL1        0.0021
     16 C         -19.3618   -8.0927   -6.3945 C.ar    1  UNL1        0.0207
     17 C         -18.4592   -9.0464   -5.9391 C.ar    1  UNL1        0.0990
     18 N         -17.9174   -9.1412   -4.7117 N.ar    1  UNL1       -0.2241
     19 C         -17.1107  -10.2285   -4.8203 C.ar    1  UNL1        0.1750
     20 N         -17.1334  -10.7971   -6.0491 N.ar    1  UNL1       -0.3346
     21 C         -17.9919  -10.0396   -6.7457 C.ar    1  UNL1        0.0811
     22 C         -18.3901  -10.1695   -8.0788 C.ar    1  UNL1        0.0386
     23 S         -17.6815  -11.4609   -9.1107 S.3     1  UNL1       -0.1400
     24 H         -16.6001  -11.6354   -6.3701 H       1  UNL1        0.1675
     25 H         -18.6725  -12.3854   -8.7320 H       1  UNL1        0.1072
     26 C         -24.5960   -7.8776  -12.4619 C.ar    1  UNL1        0.0503
     27 C         -25.2870   -6.7405  -12.9263 C.ar    1  UNL1        0.0328
     28 C         -26.5504   -6.8592  -13.5169 C.ar    1  UNL1        0.1069
     29 C         -27.1326   -8.1211  -13.6594 C.ar    1  UNL1        0.0186
     30 C         -26.4627   -9.2571  -13.2080 C.ar    1  UNL1        0.0071
     31 C         -25.1976   -9.1523  -12.6070 C.ar    1  UNL1        0.0667
     32 S         -27.3884   -5.4241  -14.0986 S.O2    1  UNL1        0.0105
     33 C         -26.5139   -4.7572  -15.4957 C.3     1  UNL1        0.1816
     34 O         -28.7906   -5.7785  -14.5083 O.2     1  UNL1       -0.1686
     35 O         -27.4514   -4.3953  -13.0045 O.2     1  UNL1       -0.1686
     36 N         -23.3262   -7.7410  -11.7902 N.pl3   1  UNL1       -0.3325
     37 H         -22.5473   -8.3910  -12.0398 H       1  UNL1        0.1468
     38 C         -22.2004   -5.6417  -11.2101 C.3     1  UNL1        0.0229
     39 C         -23.0672   -6.7908  -10.7090 C.3     1  UNL1        0.0871
@<TRIPOS>BOND
     1    38    39    1
     2    39    36    1
     3    36    26    1
     4    26    27   ar
     5    27    28   ar
     6    28    32    1
     7    32    33    1
     8    32    34    2
     9    32    35    2
    10    28    29   ar
    11    29    30   ar
    12    30    31   ar
    13    31     1    1
    14     1     2    2
    15     1     3   am
    16     3     4    1
    17     4     5    1
    18     5     6    1
    19     6     7    1
    20     7     8   ar
    21     8     9   ar
    22     9    10   ar
    23    10    14    1
    24    14    15   ar
    25    15    16   ar
    26    16    17   ar
    27    17    18   ar
    28    18    19   ar
    29    19    20   ar
    30    20    21   ar
    31    21    22   ar
    32    22    23    1
    33    10    11   ar
    34    11    12   ar
    35    12    13    1
    36    31    26   ar
    37    13     3    1
    38    12     7   ar
    39    22    14   ar
    40    21    17   ar
    41    36    37    1
    42    20    24    1
    43    23    25    1
@<TRIPOS>MOLECULE
*****
 39 43 0 0 0
SMALL
GASTEIGER

@<TRIPOS>ATOM
      1 C         -22.0618   -7.6214  -13.3120 C.2     1  UNL1        0.2506
      2 O         -20.9900   -6.9573  -13.2824 O.2     1  UNL1       -0.2699
      3 N         -23.1997   -7.1742  -12.5478 N.am    1  UNL1       -0.2680
      4 C         -24.5556   -7.2687  -13.1055 C.3     1  UNL1        0.1412
      5 C         -25.6038   -7.5191  -12.0174 C.3     1  UNL1        0.2268
      6 O         -25.2275   -8.6022  -11.1699 O.3     1  UNL1       -0.4739
      7 C         -24.2246   -8.5682  -10.1840 C.ar    1  UNL1        0.1362
      8 C         -24.2756   -9.5589   -9.1964 C.ar    1  UNL1        0.0366
      9 C         -23.3362   -9.5941   -8.1662 C.ar    1  UNL1        0.0031
     10 C         -22.3238   -8.6304   -8.1012 C.ar    1  UNL1        0.0004
     11 C         -22.2398   -7.6525   -9.1020 C.ar    1  UNL1        0.0004
     12 C         -23.1716   -7.6130  -10.1547 C.ar    1  UNL1        0.0317
     13 C         -22.9993   -6.5681  -11.2278 C.3     1  UNL1        0.1236
     14 C         -21.3253   -8.6766   -7.0112 C.ar    1  UNL1        0.0069
     15 C         -21.7599   -8.9972   -5.6977 C.ar    1  UNL1        0.0021
     16 C         -20.8470   -9.0609   -4.6307 C.ar    1  UNL1        0.0207
     17 C         -19.5108   -8.7945   -4.9045 C.ar    1  UNL1        0.0990
     18 N         -18.4818   -8.7923   -4.0383 N.ar    1  UNL1       -0.2241
     19 C         -17.4252   -8.4604   -4.8246 C.ar    1  UNL1        0.1750
     20 N         -17.7592   -8.2597   -6.1214 N.ar    1  UNL1       -0.3346
     21 C         -19.0813   -8.4760   -6.1573 C.ar    1  UNL1        0.0811
     22 C         -19.9506   -8.4005   -7.2488 C.ar    1  UNL1        0.0386
     23 S         -19.3314   -7.9054   -8.8632 S.3     1  UNL1       -0.1400
     24 H         -17.1233   -7.9973   -6.9069 H       1  UNL1        0.1675
     25 H         -19.0191   -9.2322   -9.2128 H       1  UNL1        0.1072
     26 C         -22.1916  -10.1466  -13.4588 C.ar    1  UNL1        0.0503
     27 C         -22.2965  -11.3017  -14.2593 C.ar    1  UNL1        0.0328
     28 C         -22.3114  -11.2089  -15.6558 C.ar    1  UNL1        0.1069
     29 C         -22.2325   -9.9555  -16.2675 C.ar    1  UNL1        0.0186
     30 C         -22.1308   -8.8019  -15.4915 C.ar    1  UNL1        0.0071
     31 C         -22.1075   -8.8805  -14.0895 C.ar    1  UNL1        0.0667
     32 S         -22.4537  -12.6664  -16.6334 S.O2    1  UNL1        0.0105
     33 C         -21.8572  -14.0597  -15.7036 C.3     1  UNL1        0.1816
     34 O         -23.8910  -12.8942  -17.0100 O.2     1  UNL1       -0.1686
     35 O         -21.6441  -12.5146  -17.8907 O.2     1  UNL1       -0.1686
     36 N         -22.1051  -10.2547  -12.0224 N.pl3   1  UNL1       -0.3325
     37 H         -22.5718   -9.5319  -11.4299 H       1  UNL1        0.1468
     38 C         -20.0716  -10.6707  -10.7175 C.3     1  UNL1        0.0229
     39 C         -21.3319  -11.2791  -11.3211 C.3     1  UNL1        0.0871
@<TRIPOS>BOND
     1    38    39    1
     2    39    36    1
     3    36    26    1
     4    26    27   ar
     5    27    28   ar
     6    28    32    1
     7    32    33    1
     8    32    34    2
     9    32    35    2
    10    28    29   ar
    11    29    30   ar
    12    30    31   ar
    13    31     1    1
    14     1     2    2
    15     1     3   am
    16     3     4    1
    17     4     5    1
    18     5     6    1
    19     6     7    1
    20     7     8   ar
    21     8     9   ar
    22     9    10   ar
    23    10    14    1
    24    14    15   ar
    25    15    16   ar
    26    16    17   ar
    27    17    18   ar
    28    18    19   ar
    29    19    20   ar
    30    20    21   ar
    31    21    22   ar
    32    22    23    1
    33    10    11   ar
    34    11    12   ar
    35    12    13    1
    36    31    26   ar
    37    13     3    1
    38    12     7   ar
    39    22    14   ar
    40    21    17   ar
    41    36    37    1
    42    20    24    1
    43    23    25    1
@<TRIPOS>MOLECULE
*****
 39 43 0 0 0
SMALL
GASTEIGER

@<TRIPOS>ATOM
      1 C         -21.6015   -8.6165  -13.5433 C.2     1  UNL1        0.2506
      2 O         -20.3827   -8.5283  -13.8555 O.2     1  UNL1       -0.2699
      3 N         -22.2133   -7.5761  -12.7546 N.am    1  UNL1       -0.2680
      4 C         -23.5791   -7.1227  -13.0499 C.3     1  UNL1        0.1412
      5 C         -24.3190   -6.6789  -11.7847 C.3     1  UNL1        0.2268
      6 O         -24.2226   -7.6587  -10.7533 O.3     1  UNL1       -0.4739
      7 C         -23.0802   -7.9319   -9.9792 C.ar    1  UNL1        0.1362
      8 C         -23.2826   -8.6108   -8.7720 C.ar    1  UNL1        0.0366
      9 C         -22.2130   -8.9078   -7.9277 C.ar    1  UNL1        0.0031
     10 C         -20.9126   -8.5252   -8.2749 C.ar    1  UNL1        0.0004
     11 C         -20.6901   -7.8748   -9.4966 C.ar    1  UNL1        0.0004
     12 C         -21.7570   -7.5813  -10.3646 C.ar    1  UNL1        0.0317
     13 C         -21.4483   -6.9252  -11.6865 C.3     1  UNL1        0.1236
     14 C         -19.7807   -8.8493   -7.3800 C.ar    1  UNL1        0.0069
     15 C         -19.6360   -8.1228   -6.1683 C.ar    1  UNL1        0.0021
     16 C         -18.5808   -8.4001   -5.2820 C.ar    1  UNL1        0.0207
     17 C         -17.6847   -9.4021   -5.6348 C.ar    1  UNL1        0.0990
     18 N         -16.6093   -9.8198   -4.9433 N.ar    1  UNL1       -0.2241
     19 C         -16.0962  -10.7925   -5.7406 C.ar    1  UNL1        0.1750
     20 N         -16.8027  -10.9856   -6.8796 N.ar    1  UNL1       -0.3346
     21 C         -17.8054  -10.1001   -6.7982 C.ar    1  UNL1        0.0811
     22 C         -18.8368   -9.8606   -7.7101 C.ar    1  UNL1        0.0386
     23 S         -18.8989  -10.7686   -9.2614 S.3     1  UNL1       -0.1400
     24 H         -16.6033  -11.6716   -7.6410 H       1  UNL1        0.1675
     25 H         -19.6564  -11.8069   -8.6884 H       1  UNL1        0.1072
     26 C         -22.5001  -10.1960  -15.3077 C.ar    1  UNL1        0.0503
     27 C         -23.1838  -11.3881  -15.6198 C.ar    1  UNL1        0.0328
     28 C         -23.7276  -12.1899  -14.6096 C.ar    1  UNL1        0.1069
     29 C         -23.5831  -11.8122  -13.2724 C.ar    1  UNL1        0.0186
     30 C         -22.9078  -10.6375  -12.9449 C.ar    1  UNL1        0.0071
     31 C         -22.3633   -9.8197  -13.9484 C.ar    1  UNL1        0.0667
     32 S         -24.5683  -13.6801  -15.0252 S.O2    1  UNL1        0.0105
     33 C         -26.0918  -13.7708  -14.1130 C.3     1  UNL1        0.1816
     34 O         -24.8644  -13.7092  -16.4987 O.2     1  UNL1       -0.1686
     35 O         -23.7043  -14.8617  -14.6837 O.2     1  UNL1       -0.1686
     36 N         -22.0043   -9.3383  -16.3569 N.pl3   1  UNL1       -0.3325
     37 H         -20.9766   -9.1635  -16.4265 H       1  UNL1        0.1468
     38 C         -23.0083   -7.1632  -16.8781 C.3     1  UNL1        0.0229
     39 C         -22.8580   -8.6194  -17.3020 C.3     1  UNL1        0.0871
@<TRIPOS>BOND
     1    38    39    1
     2    39    36    1
     3    36    26    1
     4    26    27   ar
     5    27    28   ar
     6    28    32    1
     7    32    33    1
     8    32    34    2
     9    32    35    2
    10    28    29   ar
    11    29    30   ar
    12    30    31   ar
    13    31     1    1
    14     1     2    2
    15     1     3   am
    16     3     4    1
    17     4     5    1
    18     5     6    1
    19     6     7    1
    20     7     8   ar
    21     8     9   ar
    22     9    10   ar
    23    10    14    1
    24    14    15   ar
    25    15    16   ar
    26    16    17   ar
    27    17    18   ar
    28    18    19   ar
    29    19    20   ar
    30    20    21   ar
    31    21    22   ar
    32    22    23    1
    33    10    11   ar
    34    11    12   ar
    35    12    13    1
    36    31    26   ar
    37    13     3    1
    38    12     7   ar
    39    22    14   ar
    40    21    17   ar
    41    36    37    1
    42    20    24    1
    43    23    25    1
@<TRIPOS>MOLECULE
*****
 39 43 0 0 0
SMALL
GASTEIGER

@<TRIPOS>ATOM
      1 C         -22.3103   -8.8463  -13.5004 C.2     1  UNL1        0.2506
      2 O         -21.1941   -8.2698  -13.6122 O.2     1  UNL1       -0.2699
      3 N         -23.3892   -8.1847  -12.8096 N.am    1  UNL1       -0.2680
      4 C         -24.7654   -8.2766  -13.3156 C.3     1  UNL1        0.1412
      5 C         -25.7935   -8.2474  -12.1810 C.3     1  UNL1        0.2268
      6 O         -25.4674   -9.1848  -11.1573 O.3     1  UNL1       -0.4739
      7 C         -24.4337   -9.0486  -10.2128 C.ar    1  UNL1        0.1362
      8 C         -24.5227   -9.8381   -9.0604 C.ar    1  UNL1        0.0366
      9 C         -23.5559   -9.7570   -8.0586 C.ar    1  UNL1        0.0031
     10 C         -22.4768   -8.8758   -8.1891 C.ar    1  UNL1        0.0004
     11 C         -22.3562   -8.1036   -9.3527 C.ar    1  UNL1        0.0004
     12 C         -23.3159   -8.1852  -10.3776 C.ar    1  UNL1        0.0317
     13 C         -23.1049   -7.3670  -11.6263 C.3     1  UNL1        0.1236
     14 C         -21.4499   -8.7991   -7.1275 C.ar    1  UNL1        0.0069
     15 C         -21.8512   -8.9546   -5.7741 C.ar    1  UNL1        0.0021
     16 C         -20.9106   -8.8972   -4.7312 C.ar    1  UNL1        0.0207
     17 C         -19.5806   -8.6781   -5.0695 C.ar    1  UNL1        0.0990
     18 N         -18.5289   -8.5806   -4.2367 N.ar    1  UNL1       -0.2241
     19 C         -17.4916   -8.3559   -5.0843 C.ar    1  UNL1        0.1750
     20 N         -17.8589   -8.3104   -6.3869 N.ar    1  UNL1       -0.3346
     21 C         -19.1828   -8.5173   -6.3623 C.ar    1  UNL1        0.0811
     22 C         -20.0804   -8.5663   -7.4321 C.ar    1  UNL1        0.0386
     23 S         -19.5014   -8.2757   -9.1100 S.3     1  UNL1       -0.1400
     24 H         -17.2426   -8.1507   -7.2145 H       1  UNL1        0.1675
     25 H         -19.2066   -9.6378   -9.3044 H       1  UNL1        0.1072
     26 C         -22.2065  -10.5273  -15.3920 C.ar    1  UNL1        0.0503
     27 C         -22.3151  -11.8657  -15.8199 C.ar    1  UNL1        0.0328
     28 C         -22.6821  -12.8781  -14.9258 C.ar    1  UNL1        0.1069
     29 C         -22.9341  -12.5632  -13.5883 C.ar    1  UNL1        0.0186
     30 C         -22.8292  -11.2452  -13.1468 C.ar    1  UNL1        0.0071
     31 C         -22.4689  -10.2180  -14.0343 C.ar    1  UNL1        0.0667
     32 S         -22.8006  -14.5442  -15.4830 S.O2    1  UNL1        0.0105
     33 C         -24.4706  -14.8765  -15.9951 C.3     1  UNL1        0.1816
     34 O         -21.8683  -14.7663  -16.6410 O.2     1  UNL1       -0.1686
     35 O         -22.4182  -15.4794  -14.3701 O.2     1  UNL1       -0.1686
     36 N         -21.8974   -9.4787  -16.3339 N.pl3   1  UNL1       -0.3325
     37 H         -20.9146   -9.1309  -16.4020 H       1  UNL1        0.1468
     38 C         -22.8754   -7.3002  -16.8894 C.3     1  UNL1        0.0229
     39 C         -22.8930   -8.7995  -17.1624 C.3     1  UNL1        0.0871
@<TRIPOS>BOND
     1    38    39    1
     2    39    36    1
     3    36    26    1
     4    26    27   ar
     5    27    28   ar
     6    28    32    1
     7    32    33    1
     8    32    34    2
     9    32    35    2
    10    28    29   ar
    11    29    30   ar
    12    30    31   ar
    13    31     1    1
    14     1     2    2
    15     1     3   am
    16     3     4    1
    17     4     5    1
    18     5     6    1
    19     6     7    1
    20     7     8   ar
    21     8     9   ar
    22     9    10   ar
    23    10    14    1
    24    14    15   ar
    25    15    16   ar
    26    16    17   ar
    27    17    18   ar
    28    18    19   ar
    29    19    20   ar
    30    20    21   ar
    31    21    22   ar
    32    22    23    1
    33    10    11   ar
    34    11    12   ar
    35    12    13    1
    36    31    26   ar
    37    13     3    1
    38    12     7   ar
    39    22    14   ar
    40    21    17   ar
    41    36    37    1
    42    20    24    1
    43    23    25    1
@<TRIPOS>MOLECULE
*****
 39 43 0 0 0
SMALL
GASTEIGER

@<TRIPOS>ATOM
      1 C         -24.5971   -9.4663  -12.5822 C.2     1  UNL1        0.2506
      2 O         -25.4674   -9.3833  -11.6731 O.2     1  UNL1       -0.2699
      3 N         -23.7278   -8.3458  -12.8422 N.am    1  UNL1       -0.2680
      4 C         -22.3070   -8.5604  -13.1483 C.3     1  UNL1        0.1412
      5 C         -21.7635   -7.4981  -14.1083 C.3     1  UNL1        0.2268
      6 O         -22.6059   -7.3456  -15.2486 O.3     1  UNL1       -0.4739
      7 C         -23.8604   -6.7093  -15.2682 C.ar    1  UNL1        0.1362
      8 C         -24.3402   -6.2969  -16.5168 C.ar    1  UNL1        0.0366
      9 C         -25.5646   -5.6394  -16.6336 C.ar    1  UNL1        0.0031
     10 C         -26.3355   -5.3764  -15.4959 C.ar    1  UNL1        0.0004
     11 C         -25.8840   -5.8135  -14.2429 C.ar    1  UNL1        0.0004
     12 C         -24.6581   -6.4901  -14.1115 C.ar    1  UNL1        0.0317
     13 C         -24.2502   -6.9793  -12.7450 C.3     1  UNL1        0.1236
     14 C         -27.6369   -4.6858  -15.6258 C.ar    1  UNL1        0.0069
     15 C         -27.6978   -3.4724  -16.3612 C.ar    1  UNL1        0.0021
     16 C         -28.9131   -2.7840  -16.5187 C.ar    1  UNL1        0.0207
     17 C         -30.0471   -3.3275  -15.9268 C.ar    1  UNL1        0.0990
     18 N         -31.2978   -2.8333  -15.9460 N.ar    1  UNL1       -0.2241
     19 C         -31.9932   -3.7416  -15.2137 C.ar    1  UNL1        0.1750
     20 N         -31.2300   -4.7596  -14.7502 N.ar    1  UNL1       -0.3346
     21 C         -30.0016   -4.4851  -15.2104 C.ar    1  UNL1        0.0811
     22 C         -28.8178   -5.2044  -15.0266 C.ar    1  UNL1        0.0386
     23 S         -28.8119   -6.6882  -14.0101 S.3     1  UNL1       -0.1400
     24 H         -31.5386   -5.5697  -14.1681 H       1  UNL1        0.1675
     25 H         -29.1318   -7.5092  -15.1074 H       1  UNL1        0.1072
     26 C         -23.6619  -11.7692  -13.0692 C.ar    1  UNL1        0.0503
     27 C         -23.6915  -12.9385  -13.8552 C.ar    1  UNL1        0.0328
     28 C         -24.5541  -13.0449  -14.9523 C.ar    1  UNL1        0.1069
     29 C         -25.4063  -11.9841  -15.2689 C.ar    1  UNL1        0.0186
     30 C         -25.3924  -10.8207  -14.5011 C.ar    1  UNL1        0.0071
     31 C         -24.5271  -10.6973  -13.4017 C.ar    1  UNL1        0.0667
     32 S         -24.5794  -14.5207  -15.9123 S.O2    1  UNL1        0.0105
     33 C         -23.1794  -15.5281  -15.4806 C.3     1  UNL1        0.1816
     34 O         -25.8466  -15.2845  -15.6472 O.2     1  UNL1       -0.1686
     35 O         -24.5214  -14.1757  -17.3742 O.2     1  UNL1       -0.1686
     36 N         -22.7205  -11.6385  -11.9835 N.pl3   1  UNL1       -0.3325
     37 H         -23.0493  -11.2528  -11.0699 H       1  UNL1        0.1468
     38 C         -20.5108  -11.1962  -11.0177 C.3     1  UNL1        0.0229
     39 C         -21.2936  -11.9402  -12.0931 C.3     1  UNL1        0.0871
@<TRIPOS>BOND
     1    38    39    1
     2    39    36    1
     3    36    26    1
     4    26    27   ar
     5    27    28   ar
     6    28    32    1
     7    32    33    1
     8    32    34    2
     9    32    35    2
    10    28    29   ar
    11    29    30   ar
    12    30    31   ar
    13    31     1    1
    14     1     2    2
    15     1     3   am
    16     3     4    1
    17     4     5    1
    18     5     6    1
    19     6     7    1
    20     7     8   ar
    21     8     9   ar
    22     9    10   ar
    23    10    14    1
    24    14    15   ar
    25    15    16   ar
    26    16    17   ar
    27    17    18   ar
    28    18    19   ar
    29    19    20   ar
    30    20    21   ar
    31    21    22   ar
    32    22    23    1
    33    10    11   ar
    34    11    12   ar
    35    12    13    1
    36    31    26   ar
    37    13     3    1
    38    12     7   ar
    39    22    14   ar
    40    21    17   ar
    41    36    37    1
    42    20    24    1
    43    23    25    1
@<TRIPOS>MOLECULE
*****
 39 43 0 0 0
SMALL
GASTEIGER

@<TRIPOS>ATOM
      1 C         -24.9722   -9.3492  -12.4647 C.2     1  UNL1        0.2506
      2 O         -25.8935   -9.3079  -11.6043 O.2     1  UNL1       -0.2699
      3 N         -24.1311   -8.1956  -12.6656 N.am    1  UNL1       -0.2680
      4 C         -22.6888   -8.3558  -12.8947 C.3     1  UNL1        0.1412
      5 C         -22.1323   -7.2639  -13.8131 C.3     1  UNL1        0.2268
      6 O         -22.9158   -7.1284  -14.9966 O.3     1  UNL1       -0.4739
      7 C         -24.1895   -6.5370  -15.0795 C.ar    1  UNL1        0.1362
      8 C         -24.6147   -6.1276  -16.3486 C.ar    1  UNL1        0.0366
      9 C         -25.8538   -5.5129  -16.5267 C.ar    1  UNL1        0.0031
     10 C         -26.6951   -5.2906  -15.4308 C.ar    1  UNL1        0.0004
     11 C         -26.2974   -5.7257  -14.1590 C.ar    1  UNL1        0.0004
     12 C         -25.0569   -6.3597  -13.9666 C.ar    1  UNL1        0.0317
     13 C         -24.7072   -6.8498  -12.5843 C.3     1  UNL1        0.1236
     14 C         -28.0115   -4.6454  -15.6259 C.ar    1  UNL1        0.0069
     15 C         -29.0342   -4.8728  -14.6671 C.ar    1  UNL1        0.0021
     16 C         -30.2991   -4.2754  -14.8053 C.ar    1  UNL1        0.0207
     17 C         -30.5142   -3.4625  -15.9119 C.ar    1  UNL1        0.0990
     18 N         -31.6416   -2.8059  -16.2391 N.ar    1  UNL1       -0.2241
     19 C         -31.3056   -2.1888  -17.4015 C.ar    1  UNL1        0.1750
     20 N         -30.0347   -2.4377  -17.7973 N.ar    1  UNL1       -0.3346
     21 C         -29.5459   -3.2435  -16.8445 C.ar    1  UNL1        0.0811
     22 C         -28.2742   -3.8150  -16.7501 C.ar    1  UNL1        0.0386
     23 S         -27.0636   -3.5430  -18.0521 S.3     1  UNL1       -0.1400
     24 H         -29.5545   -2.0779  -18.6517 H       1  UNL1        0.1675
     25 H         -26.5773   -2.3762  -17.4337 H       1  UNL1        0.1072
     26 C         -23.8757  -11.5778  -12.9607 C.ar    1  UNL1        0.0503
     27 C         -23.8201  -12.7418  -13.7533 C.ar    1  UNL1        0.0328
     28 C         -24.6689  -12.9020  -14.8546 C.ar    1  UNL1        0.1069
     29 C         -25.5923  -11.9019  -15.1687 C.ar    1  UNL1        0.0186
     30 C         -25.6631  -10.7450  -14.3944 C.ar    1  UNL1        0.0071
     31 C         -24.8127  -10.5675  -13.2908 C.ar    1  UNL1        0.0667
     32 S         -24.5868  -14.3703  -15.8230 S.O2    1  UNL1        0.0105
     33 C         -23.2100  -15.3565  -15.2816 C.3     1  UNL1        0.1816
     34 O         -25.8578  -15.1582  -15.6703 O.2     1  UNL1       -0.1686
     35 O         -24.4126  -14.0126  -17.2725 O.2     1  UNL1       -0.1686
     36 N         -22.9498  -11.3878  -11.8703 N.pl3   1  UNL1       -0.3325
     37 H         -23.2870  -10.9359  -10.9908 H       1  UNL1        0.1468
     38 C         -20.7386  -10.8582  -10.9532 C.3     1  UNL1        0.0229
     39 C         -21.5264  -11.7176  -11.9348 C.3     1  UNL1        0.0871
@<TRIPOS>BOND
     1    38    39    1
     2    39    36    1
     3    36    26    1
     4    26    27   ar
     5    27    28   ar
     6    28    32    1
     7    32    33    1
     8    32    34    2
     9    32    35    2
    10    28    29   ar
    11    29    30   ar
    12    30    31   ar
    13    31     1    1
    14     1     2    2
    15     1     3   am
    16     3     4    1
    17     4     5    1
    18     5     6    1
    19     6     7    1
    20     7     8   ar
    21     8     9   ar
    22     9    10   ar
    23    10    14    1
    24    14    15   ar
    25    15    16   ar
    26    16    17   ar
    27    17    18   ar
    28    18    19   ar
    29    19    20   ar
    30    20    21   ar
    31    21    22   ar
    32    22    23    1
    33    10    11   ar
    34    11    12   ar
    35    12    13    1
    36    31    26   ar
    37    13     3    1
    38    12     7   ar
    39    22    14   ar
    40    21    17   ar
    41    36    37    1
    42    20    24    1
    43    23    25    1
