@<TRIPOS>MOLECULE
*****
 47 52 0 0 0
SMALL
GASTEIGER

@<TRIPOS>ATOM
      1 O          -8.6912  -10.1804   30.4330 O.2     1  UNL1       -0.2701
      2 C          -8.2825  -11.3372   30.7272 C.2     1  UNL1        0.2483
      3 N          -7.7809  -11.6013   32.0474 N.am    1  UNL1       -0.2945
      4 H          -7.2435  -12.4823   32.2137 H       1  UNL1        0.1501
      5 C          -8.2992  -12.3966   29.6934 C.ar    1  UNL1        0.0808
      6 C          -7.0964  -12.7920   29.0865 C.ar    1  UNL1        0.0080
      7 C          -7.0872  -13.7916   28.1107 C.ar    1  UNL1        0.0148
      8 C          -8.2832  -14.4128   27.7123 C.ar    1  UNL1        0.0502
      9 C          -9.4898  -14.0010   28.3037 C.ar    1  UNL1        0.0443
     10 C          -9.5020  -13.0021   29.2824 C.ar    1  UNL1        0.1457
     11 F         -10.6958  -12.6001   29.7877 F       1  UNL1       -0.2040
     12 N          -8.2762  -15.4416   26.6987 N.pl3   1  UNL1       -0.3040
     13 C          -7.7582  -15.1269   25.3557 C.3     1  UNL1        0.1122
     14 C          -7.5181  -16.3971   24.5389 C.3     1  UNL1        0.1122
     15 N          -8.7116  -17.2481   24.6003 N.pl3   1  UNL1       -0.3040
     16 C          -9.3396  -17.5318   25.8993 C.3     1  UNL1        0.1122
     17 C          -8.6084  -16.8314   27.0537 C.3     1  UNL1        0.1122
     18 C          -9.3275  -17.7343   23.3934 C.ar    1  UNL1        0.0496
     19 C         -10.7108  -17.5910   23.1926 C.ar    1  UNL1        0.0260
     20 C         -11.3056  -18.0542   22.0139 C.ar    1  UNL1        0.0597
     21 CL        -13.0347  -17.8785   21.7765 Cl      1  UNL1       -0.0822
     22 C         -10.5228  -18.6594   21.0258 C.ar    1  UNL1        0.0229
     23 C          -9.1447  -18.8013   21.2143 C.ar    1  UNL1        0.0597
     24 CL         -8.1622  -19.5523   19.9702 Cl      1  UNL1       -0.0822
     25 C          -8.5481  -18.3394   22.3924 C.ar    1  UNL1        0.0260
     26 C          -7.9375  -10.6383   33.1426 C.3     1  UNL1        0.1535
     27 C          -7.4923   -9.2696   32.6931 C.2     1  UNL1        0.2443
     28 O          -6.2675   -9.0466   32.4899 O.2     1  UNL1       -0.2730
     29 N          -8.4674   -8.2376   32.4755 N.am    1  UNL1       -0.2825
     30 H          -9.3992   -8.3409   32.9378 H       1  UNL1        0.1549
     31 C          -8.2313   -7.0526   31.6965 C.ar    1  UNL1        0.0535
     32 C          -7.0174   -6.3481   31.7747 C.ar    1  UNL1        0.0353
     33 C          -6.8216   -5.2218   30.9718 C.ar    1  UNL1        0.1002
     34 N          -7.7939   -4.8189   30.1117 N.ar    1  UNL1       -0.2422
     35 C          -8.9701   -5.4909   30.0021 C.ar    1  UNL1        0.1002
     36 C          -9.2058   -6.6233   30.7852 C.ar    1  UNL1        0.0353
     37 C          -9.4019  -10.5997   33.6196 C.3     1  UNL1        0.0569
     38 C          -9.8250  -11.9100   34.2226 C.ar    1  UNL1       -0.0017
     39 C          -9.1666  -12.6070   35.2316 C.ar    1  UNL1        0.0681
     40 N          -9.7649  -13.8002   35.4493 N.ar    1  UNL1       -0.3523
     41 C         -10.7888  -13.8662   34.5807 C.ar    1  UNL1        0.0563
     42 C         -11.6843  -14.9208   34.4089 C.ar    1  UNL1        0.0170
     43 C         -12.6720  -14.7895   33.4154 C.ar    1  UNL1        0.0015
     44 C         -12.7391  -13.6222   32.6226 C.ar    1  UNL1        0.0001
     45 C         -11.8199  -12.5750   32.8163 C.ar    1  UNL1        0.0012
     46 C         -10.8558  -12.7322   33.8122 C.ar    1  UNL1        0.0131
     47 H          -9.4744  -14.5282   36.1393 H       1  UNL1        0.1660
@<TRIPOS>BOND
     1     1     2    2
     2     2     3   am
     3     3    26    1
     4    26    37    1
     5    37    38    1
     6    38    39   ar
     7    39    40   ar
     8    40    41   ar
     9    41    42   ar
    10    42    43   ar
    11    43    44   ar
    12    44    45   ar
    13    45    46   ar
    14    26    27    1
    15    27    28    2
    16    27    29   am
    17    29    31    1
    18    31    32   ar
    19    32    33   ar
    20    33    34   ar
    21    34    35   ar
    22    35    36   ar
    23     2     5    1
    24     5     6   ar
    25     6     7   ar
    26     7     8   ar
    27     8    12    1
    28    12    13    1
    29    13    14    1
    30    14    15    1
    31    15    18    1
    32    18    19   ar
    33    19    20   ar
    34    20    21    1
    35    20    22   ar
    36    22    23   ar
    37    23    24    1
    38    23    25   ar
    39    15    16    1
    40    16    17    1
    41     8     9   ar
    42     9    10   ar
    43    10    11    1
    44    46    38   ar
    45    36    31   ar
    46    10     5   ar
    47    46    41   ar
    48    17    12    1
    49    25    18   ar
    50     3     4    1
    51    40    47    1
    52    29    30    1
@<TRIPOS>MOLECULE
*****
 47 52 0 0 0
SMALL
GASTEIGER

@<TRIPOS>ATOM
      1 O          -8.6200  -10.1710   30.4116 O.2     1  UNL1       -0.2701
      2 C          -8.2513  -11.3389   30.7145 C.2     1  UNL1        0.2483
      3 N          -7.7890  -11.6172   32.0460 N.am    1  UNL1       -0.2945
      4 H          -7.2808  -12.5131   32.2244 H       1  UNL1        0.1501
      5 C          -8.2735  -12.3973   29.6798 C.ar    1  UNL1        0.0808
      6 C          -7.0729  -12.7974   29.0717 C.ar    1  UNL1        0.0080
      7 C          -7.0688  -13.7962   28.0949 C.ar    1  UNL1        0.0148
      8 C          -8.2678  -14.4118   27.6969 C.ar    1  UNL1        0.0502
      9 C          -9.4721  -13.9953   28.2895 C.ar    1  UNL1        0.0443
     10 C          -9.4792  -12.9972   29.2691 C.ar    1  UNL1        0.1457
     11 F         -10.6709  -12.5904   29.7756 F       1  UNL1       -0.2040
     12 N          -8.2661  -15.4398   26.6824 N.pl3   1  UNL1       -0.3040
     13 C          -7.7478  -15.1261   25.3392 C.3     1  UNL1        0.1122
     14 C          -7.5138  -16.3966   24.5212 C.3     1  UNL1        0.1122
     15 N          -8.7109  -17.2425   24.5828 N.pl3   1  UNL1       -0.3040
     16 C          -9.3390  -17.5247   25.8821 C.3     1  UNL1        0.1122
     17 C          -8.6039  -16.8284   27.0365 C.3     1  UNL1        0.1122
     18 C          -9.3299  -17.7251   23.3760 C.ar    1  UNL1        0.0496
     19 C          -8.5589  -18.3507   22.3817 C.ar    1  UNL1        0.0260
     20 C          -9.1644  -18.8291   21.2145 C.ar    1  UNL1        0.0597
     21 CL         -8.1918  -19.6008   19.9753 Cl      1  UNL1       -0.0822
     22 C         -10.5440  -18.6904   21.0342 C.ar    1  UNL1        0.0229
     23 C         -11.3202  -18.0743   22.0205 C.ar    1  UNL1        0.0597
     24 CL        -13.0522  -17.9090   21.7974 Cl      1  UNL1       -0.0822
     25 C         -10.7167  -17.5947   23.1880 C.ar    1  UNL1        0.0260
     26 C          -7.9442  -10.6503   33.1380 C.3     1  UNL1        0.1535
     27 C          -7.4962   -9.2839   32.6840 C.2     1  UNL1        0.2443
     28 O          -6.2734   -9.0701   32.4597 O.2     1  UNL1       -0.2730
     29 N          -8.4668   -8.2436   32.4865 N.am    1  UNL1       -0.2825
     30 H          -9.3910   -8.3408   32.9651 H       1  UNL1        0.1549
     31 C          -8.2350   -7.0584   31.7064 C.ar    1  UNL1        0.0535
     32 C          -7.0210   -6.3536   31.7783 C.ar    1  UNL1        0.0353
     33 C          -6.8297   -5.2271   30.9746 C.ar    1  UNL1        0.1002
     34 N          -7.8067   -4.8243   30.1198 N.ar    1  UNL1       -0.2422
     35 C          -8.9832   -5.4967   30.0162 C.ar    1  UNL1        0.1002
     36 C          -9.2145   -6.6293   30.8004 C.ar    1  UNL1        0.0353
     37 C          -9.4088  -10.6073   33.6141 C.3     1  UNL1        0.0569
     38 C          -9.8360  -11.9160   34.2172 C.ar    1  UNL1       -0.0017
     39 C          -9.1839  -12.6114   35.2315 C.ar    1  UNL1        0.0681
     40 N          -9.7841  -13.8038   35.4482 N.ar    1  UNL1       -0.3523
     41 C         -10.8029  -13.8711   34.5737 C.ar    1  UNL1        0.0563
     42 C         -11.6979  -14.9256   34.3988 C.ar    1  UNL1        0.0170
     43 C         -12.6796  -14.7959   33.3994 C.ar    1  UNL1        0.0015
     44 C         -12.7415  -13.6301   32.6038 C.ar    1  UNL1        0.0001
     45 C         -11.8230  -12.5830   32.8007 C.ar    1  UNL1        0.0012
     46 C         -10.8649  -12.7386   33.8026 C.ar    1  UNL1        0.0131
     47 H          -9.4979  -14.5305   36.1413 H       1  UNL1        0.1660
@<TRIPOS>BOND
     1     1     2    2
     2     2     3   am
     3     3    26    1
     4    26    37    1
     5    37    38    1
     6    38    39   ar
     7    39    40   ar
     8    40    41   ar
     9    41    42   ar
    10    42    43   ar
    11    43    44   ar
    12    44    45   ar
    13    45    46   ar
    14    26    27    1
    15    27    28    2
    16    27    29   am
    17    29    31    1
    18    31    32   ar
    19    32    33   ar
    20    33    34   ar
    21    34    35   ar
    22    35    36   ar
    23     2     5    1
    24     5     6   ar
    25     6     7   ar
    26     7     8   ar
    27     8    12    1
    28    12    13    1
    29    13    14    1
    30    14    15    1
    31    15    18    1
    32    18    19   ar
    33    19    20   ar
    34    20    21    1
    35    20    22   ar
    36    22    23   ar
    37    23    24    1
    38    23    25   ar
    39    15    16    1
    40    16    17    1
    41     8     9   ar
    42     9    10   ar
    43    10    11    1
    44    46    38   ar
    45    36    31   ar
    46    10     5   ar
    47    46    41   ar
    48    17    12    1
    49    25    18   ar
    50     3     4    1
    51    40    47    1
    52    29    30    1
@<TRIPOS>MOLECULE
*****
 47 52 0 0 0
SMALL
GASTEIGER

@<TRIPOS>ATOM
      1 O          -7.0860  -10.9631   30.6366 O.2     1  UNL1       -0.2701
      2 C          -8.0940  -11.7165   30.5477 C.2     1  UNL1        0.2483
      3 N          -9.1558  -11.6024   31.5089 N.am    1  UNL1       -0.2945
      4 H          -9.8673  -12.3662   31.5646 H       1  UNL1        0.1501
      5 C          -8.1498  -12.7283   29.4687 C.ar    1  UNL1        0.0808
      6 C          -6.9623  -13.1414   28.8436 C.ar    1  UNL1        0.0080
      7 C          -6.9899  -14.0970   27.8250 C.ar    1  UNL1        0.0148
      8 C          -8.2081  -14.6551   27.4012 C.ar    1  UNL1        0.0502
      9 C          -9.3988  -14.2249   28.0114 C.ar    1  UNL1        0.0443
     10 C          -9.3741  -13.2700   29.0329 C.ar    1  UNL1        0.1457
     11 F         -10.5523  -12.8462   29.5567 F       1  UNL1       -0.2040
     12 N          -8.2390  -15.6381   26.3436 N.pl3   1  UNL1       -0.3040
     13 C          -7.7791  -15.2612   24.9954 C.3     1  UNL1        0.1122
     14 C          -7.5678  -16.4926   24.1138 C.3     1  UNL1        0.1122
     15 N          -8.7539  -17.3529   24.1871 N.pl3   1  UNL1       -0.3040
     16 C          -9.3256  -17.6976   25.4973 C.3     1  UNL1        0.1122
     17 C          -8.5499  -17.0443   26.6501 C.3     1  UNL1        0.1122
     18 C          -9.4177  -17.7894   22.9865 C.ar    1  UNL1        0.0496
     19 C         -10.7994  -17.5911   22.8249 C.ar    1  UNL1        0.0260
     20 C         -11.4405  -18.0059   21.6524 C.ar    1  UNL1        0.0597
     21 CL        -13.1673  -17.7617   21.4639 Cl      1  UNL1       -0.0822
     22 C         -10.7059  -18.6171   20.6317 C.ar    1  UNL1        0.0229
     23 C          -9.3297  -18.8135   20.7811 C.ar    1  UNL1        0.0597
     24 CL         -8.4075  -19.5721   19.4961 Cl      1  UNL1       -0.0822
     25 C          -8.6868  -18.4001   21.9530 C.ar    1  UNL1        0.0260
     26 C          -9.2246  -10.4866   32.4584 C.3     1  UNL1        0.1535
     27 C          -9.4152   -9.1885   31.7153 C.2     1  UNL1        0.2443
     28 O         -10.5516   -8.6413   31.6951 O.2     1  UNL1       -0.2730
     29 N          -8.2971   -8.5719   31.0574 N.am    1  UNL1       -0.2825
     30 H          -7.4757   -9.1743   30.8225 H       1  UNL1        0.1549
     31 C          -8.2509   -7.1896   30.6647 C.ar    1  UNL1        0.0535
     32 C          -9.3764   -6.5355   30.1342 C.ar    1  UNL1        0.0353
     33 C          -9.2923   -5.1817   29.7999 C.ar    1  UNL1        0.1002
     34 N          -8.1336   -4.4998   29.9991 N.ar    1  UNL1       -0.2422
     35 C          -7.0354   -5.1018   30.5269 C.ar    1  UNL1        0.1002
     36 C          -7.0773   -6.4535   30.8767 C.ar    1  UNL1        0.0353
     37 C         -10.3711  -10.7060   33.4640 C.3     1  UNL1        0.0569
     38 C         -11.4187  -11.6356   32.9185 C.ar    1  UNL1       -0.0017
     39 C         -12.3442  -11.3443   31.9205 C.ar    1  UNL1        0.0681
     40 N         -13.2055  -12.3746   31.7597 N.ar    1  UNL1       -0.3523
     41 C         -12.8376  -13.3091   32.6534 C.ar    1  UNL1        0.0563
     42 C         -13.4441  -14.5430   32.8836 C.ar    1  UNL1        0.0170
     43 C         -12.9067  -15.3615   33.8940 C.ar    1  UNL1        0.0015
     44 C         -11.7905  -14.9315   34.6455 C.ar    1  UNL1        0.0001
     45 C         -11.2007  -13.6794   34.3931 C.ar    1  UNL1        0.0012
     46 C         -11.7525  -12.8930   33.3817 C.ar    1  UNL1        0.0131
     47 H         -14.0053  -12.4216   31.0900 H       1  UNL1        0.1660
@<TRIPOS>BOND
     1     1     2    2
     2     2     3   am
     3     3    26    1
     4    26    37    1
     5    37    38    1
     6    38    39   ar
     7    39    40   ar
     8    40    41   ar
     9    41    42   ar
    10    42    43   ar
    11    43    44   ar
    12    44    45   ar
    13    45    46   ar
    14    26    27    1
    15    27    28    2
    16    27    29   am
    17    29    31    1
    18    31    32   ar
    19    32    33   ar
    20    33    34   ar
    21    34    35   ar
    22    35    36   ar
    23     2     5    1
    24     5     6   ar
    25     6     7   ar
    26     7     8   ar
    27     8    12    1
    28    12    13    1
    29    13    14    1
    30    14    15    1
    31    15    18    1
    32    18    19   ar
    33    19    20   ar
    34    20    21    1
    35    20    22   ar
    36    22    23   ar
    37    23    24    1
    38    23    25   ar
    39    15    16    1
    40    16    17    1
    41     8     9   ar
    42     9    10   ar
    43    10    11    1
    44    46    38   ar
    45    36    31   ar
    46    10     5   ar
    47    46    41   ar
    48    17    12    1
    49    25    18   ar
    50     3     4    1
    51    40    47    1
    52    29    30    1
@<TRIPOS>MOLECULE
*****
 47 52 0 0 0
SMALL
GASTEIGER

@<TRIPOS>ATOM
      1 O          -8.1094  -10.2954   31.6994 O.2     1  UNL1       -0.2701
      2 C          -8.9325  -11.1044   31.1898 C.2     1  UNL1        0.2483
      3 N         -10.2894  -11.1322   31.6615 N.am    1  UNL1       -0.2945
      4 H         -10.8955  -11.9428   31.4006 H       1  UNL1        0.1501
      5 C          -8.4753  -12.0341   30.1326 C.ar    1  UNL1        0.0808
      6 C          -7.1513  -11.9616   29.6708 C.ar    1  UNL1        0.0080
      7 C          -6.6964  -12.8304   28.6760 C.ar    1  UNL1        0.0148
      8 C          -7.5588  -13.7866   28.1129 C.ar    1  UNL1        0.0502
      9 C          -8.8902  -13.8440   28.5592 C.ar    1  UNL1        0.0443
     10 C          -9.3479  -12.9769   29.5565 C.ar    1  UNL1        0.1457
     11 F         -10.6547  -13.0333   29.9188 F       1  UNL1       -0.2040
     12 N          -7.0919  -14.6810   27.0794 N.pl3   1  UNL1       -0.3040
     13 C          -5.6441  -14.9016   26.9170 C.3     1  UNL1        0.1122
     14 C          -5.3610  -16.1093   26.0229 C.3     1  UNL1        0.1122
     15 N          -6.1514  -15.9994   24.7918 N.pl3   1  UNL1       -0.3040
     16 C          -7.5867  -15.6897   24.8713 C.3     1  UNL1        0.1122
     17 C          -8.0521  -15.5011   26.3223 C.3     1  UNL1        0.1122
     18 C          -5.5181  -16.1020   23.5030 C.ar    1  UNL1        0.0496
     19 C          -5.9375  -15.2882   22.4371 C.ar    1  UNL1        0.0260
     20 C          -5.3131  -15.3817   21.1885 C.ar    1  UNL1        0.0597
     21 CL         -5.8497  -14.3674   19.8616 Cl      1  UNL1       -0.0822
     22 C          -4.2629  -16.2848   20.9969 C.ar    1  UNL1        0.0229
     23 C          -3.8350  -17.0947   22.0532 C.ar    1  UNL1        0.0597
     24 CL         -2.5114  -18.2208   21.8143 Cl      1  UNL1       -0.0822
     25 C          -4.4584  -17.0033   23.3023 C.ar    1  UNL1        0.0260
     26 C         -10.8201  -10.0974   32.5554 C.3     1  UNL1        0.1535
     27 C         -11.0663   -8.8259   31.7830 C.2     1  UNL1        0.2443
     28 O         -12.1814   -8.2439   31.8772 O.2     1  UNL1       -0.2730
     29 N         -10.0219   -8.2736   30.9660 N.am    1  UNL1       -0.2825
     30 H          -9.2523   -8.9113   30.6601 H       1  UNL1        0.1549
     31 C          -9.9877   -6.9111   30.5084 C.ar    1  UNL1        0.0535
     32 C         -11.1579   -6.1399   30.3996 C.ar    1  UNL1        0.0353
     33 C         -11.0697   -4.8092   29.9834 C.ar    1  UNL1        0.1002
     34 N          -9.8587   -4.2616   29.6988 N.ar    1  UNL1       -0.2422
     35 C          -8.7094   -4.9780   29.8123 C.ar    1  UNL1        0.1002
     36 C          -8.7527   -6.3112   30.2270 C.ar    1  UNL1        0.0353
     37 C         -12.1198  -10.5812   33.2264 C.3     1  UNL1        0.0569
     38 C         -12.6085  -11.8700   32.6270 C.ar    1  UNL1       -0.0017
     39 C         -13.3864  -12.0065   31.4808 C.ar    1  UNL1        0.0681
     40 N         -13.7338  -13.3006   31.2970 N.ar    1  UNL1       -0.3523
     41 C         -13.1902  -13.9801   32.3217 C.ar    1  UNL1        0.0563
     42 C         -13.2954  -15.3461   32.5800 C.ar    1  UNL1        0.0170
     43 C         -12.6642  -15.8477   33.7331 C.ar    1  UNL1        0.0015
     44 C         -11.9536  -14.9820   34.5942 C.ar    1  UNL1        0.0001
     45 C         -11.8668  -13.6070   34.3099 C.ar    1  UNL1        0.0012
     46 C         -12.4983  -13.1405   33.1568 C.ar    1  UNL1        0.0131
     47 H         -14.3224  -13.6860   30.5254 H       1  UNL1        0.1660
@<TRIPOS>BOND
     1     1     2    2
     2     2     3   am
     3     3    26    1
     4    26    37    1
     5    37    38    1
     6    38    39   ar
     7    39    40   ar
     8    40    41   ar
     9    41    42   ar
    10    42    43   ar
    11    43    44   ar
    12    44    45   ar
    13    45    46   ar
    14    26    27    1
    15    27    28    2
    16    27    29   am
    17    29    31    1
    18    31    32   ar
    19    32    33   ar
    20    33    34   ar
    21    34    35   ar
    22    35    36   ar
    23     2     5    1
    24     5     6   ar
    25     6     7   ar
    26     7     8   ar
    27     8    12    1
    28    12    13    1
    29    13    14    1
    30    14    15    1
    31    15    18    1
    32    18    19   ar
    33    19    20   ar
    34    20    21    1
    35    20    22   ar
    36    22    23   ar
    37    23    24    1
    38    23    25   ar
    39    15    16    1
    40    16    17    1
    41     8     9   ar
    42     9    10   ar
    43    10    11    1
    44    46    38   ar
    45    36    31   ar
    46    10     5   ar
    47    46    41   ar
    48    17    12    1
    49    25    18   ar
    50     3     4    1
    51    40    47    1
    52    29    30    1
@<TRIPOS>MOLECULE
*****
 47 52 0 0 0
SMALL
GASTEIGER

@<TRIPOS>ATOM
      1 O          -8.3108  -10.1638   30.4608 O.2     1  UNL1       -0.2701
      2 C          -8.4443  -11.3775   30.7783 C.2     1  UNL1        0.2483
      3 N          -8.6146  -11.7383   32.1586 N.am    1  UNL1       -0.2945
      4 H          -8.4987  -12.7399   32.4340 H       1  UNL1        0.1501
      5 C          -8.3923  -12.4130   29.7219 C.ar    1  UNL1        0.0808
      6 C          -9.5715  -13.0714   29.3379 C.ar    1  UNL1        0.0080
      7 C          -9.5475  -14.0500   28.3413 C.ar    1  UNL1        0.0148
      8 C          -8.3406  -14.3997   27.7117 C.ar    1  UNL1        0.0502
      9 C          -7.1568  -13.7567   28.1121 C.ar    1  UNL1        0.0443
     10 C          -7.1781  -12.7751   29.1080 C.ar    1  UNL1        0.1457
     11 F          -6.0035  -12.2186   29.4990 F       1  UNL1       -0.2040
     12 N          -8.3130  -15.4161   26.6860 N.pl3   1  UNL1       -0.3040
     13 C          -7.8388  -15.0650   25.3358 C.3     1  UNL1        0.1122
     14 C          -7.5638  -16.3148   24.4989 C.3     1  UNL1        0.1122
     15 N          -8.7188  -17.2161   24.5762 N.pl3   1  UNL1       -0.3040
     16 C          -9.3050  -17.5405   25.8852 C.3     1  UNL1        0.1122
     17 C          -8.5784  -16.8225   27.0316 C.3     1  UNL1        0.1122
     18 C          -9.3405  -17.7147   23.3773 C.ar    1  UNL1        0.0496
     19 C         -10.7252  -17.5753   23.1827 C.ar    1  UNL1        0.0260
     20 C         -11.3256  -18.0505   22.0117 C.ar    1  UNL1        0.0597
     21 CL        -13.0563  -17.8794   21.7821 Cl      1  UNL1       -0.0822
     22 C         -10.5474  -18.6639   21.0252 C.ar    1  UNL1        0.0229
     23 C          -9.1680  -18.8021   21.2075 C.ar    1  UNL1        0.0597
     24 CL         -8.1912  -19.5636   19.9652 Cl      1  UNL1       -0.0822
     25 C          -8.5657  -18.3282   22.3780 C.ar    1  UNL1        0.0260
     26 C          -8.8712  -10.7336   33.1960 C.3     1  UNL1        0.1535
     27 C          -8.1150   -9.4667   32.8847 C.2     1  UNL1        0.2443
     28 O          -6.8654   -9.4277   33.0531 O.2     1  UNL1       -0.2730
     29 N          -8.8184   -8.3224   32.3756 N.am    1  UNL1       -0.2825
     30 H          -9.8492   -8.2697   32.5405 H       1  UNL1        0.1549
     31 C          -8.1905   -7.2260   31.6895 C.ar    1  UNL1        0.0535
     32 C          -6.8027   -7.0127   31.7548 C.ar    1  UNL1        0.0353
     33 C          -6.2342   -5.9539   31.0424 C.ar    1  UNL1        0.1002
     34 N          -7.0172   -5.1447   30.2812 N.ar    1  UNL1       -0.2422
     35 C          -8.3590   -5.3382   30.1852 C.ar    1  UNL1        0.1002
     36 C          -8.9673   -6.3863   30.8798 C.ar    1  UNL1        0.0353
     37 C         -10.3810  -10.4475   33.3060 C.3     1  UNL1        0.0569
     38 C         -11.2012  -11.5435   32.6852 C.ar    1  UNL1       -0.0017
     39 C         -11.9539  -11.4533   31.5179 C.ar    1  UNL1        0.0681
     40 N         -12.6516  -12.5942   31.3164 N.ar    1  UNL1       -0.3523
     41 C         -12.3533  -13.3995   32.3507 C.ar    1  UNL1        0.0563
     42 C         -12.8516  -14.6780   32.5970 C.ar    1  UNL1        0.0170
     43 C         -12.4221  -15.3377   33.7631 C.ar    1  UNL1        0.0015
     44 C         -11.5175  -14.7103   34.6485 C.ar    1  UNL1        0.0001
     45 C         -11.0335  -13.4179   34.3757 C.ar    1  UNL1        0.0012
     46 C         -11.4734  -12.7918   33.2094 C.ar    1  UNL1        0.0131
     47 H         -13.3045  -12.7961   30.5268 H       1  UNL1        0.1660
@<TRIPOS>BOND
     1     1     2    2
     2     2     3   am
     3     3    26    1
     4    26    37    1
     5    37    38    1
     6    38    39   ar
     7    39    40   ar
     8    40    41   ar
     9    41    42   ar
    10    42    43   ar
    11    43    44   ar
    12    44    45   ar
    13    45    46   ar
    14    26    27    1
    15    27    28    2
    16    27    29   am
    17    29    31    1
    18    31    32   ar
    19    32    33   ar
    20    33    34   ar
    21    34    35   ar
    22    35    36   ar
    23     2     5    1
    24     5     6   ar
    25     6     7   ar
    26     7     8   ar
    27     8    12    1
    28    12    13    1
    29    13    14    1
    30    14    15    1
    31    15    18    1
    32    18    19   ar
    33    19    20   ar
    34    20    21    1
    35    20    22   ar
    36    22    23   ar
    37    23    24    1
    38    23    25   ar
    39    15    16    1
    40    16    17    1
    41     8     9   ar
    42     9    10   ar
    43    10    11    1
    44    46    38   ar
    45    36    31   ar
    46    10     5   ar
    47    46    41   ar
    48    17    12    1
    49    25    18   ar
    50     3     4    1
    51    40    47    1
    52    29    30    1
@<TRIPOS>MOLECULE
*****
 47 52 0 0 0
SMALL
GASTEIGER

@<TRIPOS>ATOM
      1 O          -9.6316  -10.5988   30.4911 O.2     1  UNL1       -0.2701
      2 C          -8.7131  -11.4264   30.7428 C.2     1  UNL1        0.2483
      3 N          -8.0916  -11.4289   32.0381 N.am    1  UNL1       -0.2945
      4 H          -7.1954  -11.9520   32.1644 H       1  UNL1        0.1501
      5 C          -8.2708  -12.3623   29.6847 C.ar    1  UNL1        0.0808
      6 C          -9.1842  -13.2840   29.1483 C.ar    1  UNL1        0.0080
      7 C          -8.7905  -14.1750   28.1470 C.ar    1  UNL1        0.0148
      8 C          -7.4703  -14.1709   27.6652 C.ar    1  UNL1        0.0502
      9 C          -6.5504  -13.2636   28.2180 C.ar    1  UNL1        0.0443
     10 C          -6.9421  -12.3690   29.2190 C.ar    1  UNL1        0.1457
     11 F          -6.0073  -11.5471   29.7601 F       1  UNL1       -0.2040
     12 N          -7.0599  -15.0961   26.6348 N.pl3   1  UNL1       -0.3040
     13 C          -5.6236  -15.2819   26.3632 C.3     1  UNL1        0.1122
     14 C          -5.3750  -16.5191   25.4997 C.3     1  UNL1        0.1122
     15 N          -6.2655  -16.4860   24.3342 N.pl3   1  UNL1       -0.3040
     16 C          -7.6988  -16.2145   24.5184 C.3     1  UNL1        0.1122
     17 C          -8.0513  -15.9759   25.9937 C.3     1  UNL1        0.1122
     18 C          -5.7355  -16.6270   23.0031 C.ar    1  UNL1        0.0496
     19 C          -5.1467  -17.8360   22.5958 C.ar    1  UNL1        0.0260
     20 C          -4.6424  -17.9745   21.2980 C.ar    1  UNL1        0.0597
     21 CL         -3.9013  -19.4851   20.8018 Cl      1  UNL1       -0.0822
     22 C          -4.7266  -16.9087   20.3968 C.ar    1  UNL1        0.0229
     23 C          -5.3159  -15.7037   20.7914 C.ar    1  UNL1        0.0597
     24 CL         -5.4294  -14.3703   19.6572 Cl      1  UNL1       -0.0822
     25 C          -5.8202  -15.5629   22.0888 C.ar    1  UNL1        0.0260
     26 C          -8.6385  -10.6603   33.1613 C.3     1  UNL1        0.1535
     27 C          -8.3360   -9.1944   32.9784 C.2     1  UNL1        0.2443
     28 O          -7.4324   -8.6518   33.6714 O.2     1  UNL1       -0.2730
     29 N          -9.0610   -8.4327   31.9999 N.am    1  UNL1       -0.2825
     30 H          -9.9836   -8.8037   31.6778 H       1  UNL1        0.1549
     31 C          -8.6192   -7.1734   31.4651 C.ar    1  UNL1        0.0535
     32 C          -7.3042   -6.7133   31.6519 C.ar    1  UNL1        0.0353
     33 C          -6.9120   -5.4991   31.0830 C.ar    1  UNL1        0.1002
     34 N          -7.7930   -4.7754   30.3432 N.ar    1  UNL1       -0.2422
     35 C          -9.0650   -5.2044   30.1311 C.ar    1  UNL1        0.1002
     36 C          -9.4974   -6.4137   30.6803 C.ar    1  UNL1        0.0353
     37 C         -10.1578  -10.8871   33.2791 C.3     1  UNL1        0.0569
     38 C         -10.4743  -12.1920   33.9546 C.ar    1  UNL1       -0.0017
     39 C          -9.7266  -12.8091   34.9534 C.ar    1  UNL1        0.0681
     40 N         -10.2444  -14.0229   35.2494 N.ar    1  UNL1       -0.3523
     41 C         -11.3061  -14.1811   34.4400 C.ar    1  UNL1        0.0563
     42 C         -12.1479  -15.2893   34.3577 C.ar    1  UNL1        0.0170
     43 C         -13.1911  -15.2540   33.4142 C.ar    1  UNL1        0.0015
     44 C         -13.3648  -14.1264   32.5811 C.ar    1  UNL1        0.0001
     45 C         -12.4978  -13.0234   32.6843 C.ar    1  UNL1        0.0012
     46 C         -11.4766  -13.0857   33.6325 C.ar    1  UNL1        0.0131
     47 H          -9.8780  -14.7043   35.9507 H       1  UNL1        0.1660
@<TRIPOS>BOND
     1     1     2    2
     2     2     3   am
     3     3    26    1
     4    26    37    1
     5    37    38    1
     6    38    39   ar
     7    39    40   ar
     8    40    41   ar
     9    41    42   ar
    10    42    43   ar
    11    43    44   ar
    12    44    45   ar
    13    45    46   ar
    14    26    27    1
    15    27    28    2
    16    27    29   am
    17    29    31    1
    18    31    32   ar
    19    32    33   ar
    20    33    34   ar
    21    34    35   ar
    22    35    36   ar
    23     2     5    1
    24     5     6   ar
    25     6     7   ar
    26     7     8   ar
    27     8    12    1
    28    12    13    1
    29    13    14    1
    30    14    15    1
    31    15    18    1
    32    18    19   ar
    33    19    20   ar
    34    20    21    1
    35    20    22   ar
    36    22    23   ar
    37    23    24    1
    38    23    25   ar
    39    15    16    1
    40    16    17    1
    41     8     9   ar
    42     9    10   ar
    43    10    11    1
    44    46    38   ar
    45    36    31   ar
    46    10     5   ar
    47    46    41   ar
    48    17    12    1
    49    25    18   ar
    50     3     4    1
    51    40    47    1
    52    29    30    1
@<TRIPOS>MOLECULE
*****
 47 52 0 0 0
SMALL
GASTEIGER

@<TRIPOS>ATOM
      1 O          -9.0021  -15.0473   28.2768 O.2     1  UNL1       -0.2701
      2 C          -8.0020  -14.4166   27.8367 C.2     1  UNL1        0.2483
      3 N          -7.6603  -13.1399   28.4002 N.am    1  UNL1       -0.2945
      4 H          -6.9819  -12.5306   27.8893 H       1  UNL1        0.1501
      5 C          -7.2146  -14.9922   26.7232 C.ar    1  UNL1        0.0808
      6 C          -5.8314  -15.1785   26.8761 C.ar    1  UNL1        0.0080
      7 C          -5.0682  -15.7226   25.8402 C.ar    1  UNL1        0.0148
      8 C          -5.6701  -16.0847   24.6229 C.ar    1  UNL1        0.0502
      9 C          -7.0507  -15.8772   24.4620 C.ar    1  UNL1        0.0443
     10 C          -7.8177  -15.3347   25.4979 C.ar    1  UNL1        0.1457
     11 F          -9.1371  -15.1035   25.2790 F       1  UNL1       -0.2040
     12 N          -4.8813  -16.6410   23.5486 N.pl3   1  UNL1       -0.3040
     13 C          -4.4308  -18.0413   23.6353 C.3     1  UNL1        0.1122
     14 C          -3.9137  -18.5451   22.2874 C.3     1  UNL1        0.1122
     15 N          -2.9541  -17.5785   21.7422 N.pl3   1  UNL1       -0.3040
     16 C          -3.2978  -16.1492   21.7077 C.3     1  UNL1        0.1122
     17 C          -4.6872  -15.8799   22.3032 C.3     1  UNL1        0.1122
     18 C          -1.6437  -18.0033   21.3239 C.ar    1  UNL1        0.0496
     19 C          -0.8033  -17.1268   20.6168 C.ar    1  UNL1        0.0260
     20 C           0.4742  -17.5380   20.2211 C.ar    1  UNL1        0.0597
     21 CL          1.5124  -16.4393   19.3311 Cl      1  UNL1       -0.0822
     22 C           0.9230  -18.8251   20.5325 C.ar    1  UNL1        0.0229
     23 C           0.0960  -19.7023   21.2407 C.ar    1  UNL1        0.0597
     24 CL          0.6636  -21.3137   21.6388 Cl      1  UNL1       -0.0822
     25 C          -1.1820  -19.2934   21.6367 C.ar    1  UNL1        0.0260
     26 C          -8.2911  -12.6407   29.6268 C.3     1  UNL1        0.1535
     27 C          -7.6934  -11.3101   30.0089 C.2     1  UNL1        0.2443
     28 O          -7.8686  -10.3090   29.2616 O.2     1  UNL1       -0.2730
     29 N          -6.9508  -11.1860   31.2321 N.am    1  UNL1       -0.2825
     30 H          -6.5601  -12.0576   31.6567 H       1  UNL1        0.1549
     31 C          -6.6758   -9.9369   31.8885 C.ar    1  UNL1        0.0535
     32 C          -5.3692   -9.4284   31.9891 C.ar    1  UNL1        0.0353
     33 C          -5.1563   -8.1930   32.6056 C.ar    1  UNL1        0.1002
     34 N          -6.2078   -7.4826   33.0925 N.ar    1  UNL1       -0.2422
     35 C          -7.4833   -7.9411   32.9932 C.ar    1  UNL1        0.1002
     36 C          -7.7404   -9.1707   32.3824 C.ar    1  UNL1        0.0353
     37 C          -9.8143  -12.5127   29.4346 C.3     1  UNL1        0.0569
     38 C         -10.4820  -11.9381   30.6524 C.ar    1  UNL1       -0.0017
     39 C         -10.8552  -12.6356   31.7978 C.ar    1  UNL1        0.0681
     40 N         -11.5308  -11.8260   32.6447 N.ar    1  UNL1       -0.3523
     41 C         -11.5955  -10.6270   32.0401 C.ar    1  UNL1        0.0563
     42 C         -12.2194   -9.4742   32.5146 C.ar    1  UNL1        0.0170
     43 C         -12.1884   -8.3272   31.7003 C.ar    1  UNL1        0.0015
     44 C         -11.5452   -8.3591   30.4429 C.ar    1  UNL1        0.0001
     45 C         -10.9264   -9.5379   29.9884 C.ar    1  UNL1        0.0012
     46 C         -10.9692  -10.6569   30.8203 C.ar    1  UNL1        0.0131
     47 H         -11.9362  -12.0890   33.5704 H       1  UNL1        0.1660
@<TRIPOS>BOND
     1     1     2    2
     2     2     3   am
     3     3    26    1
     4    26    37    1
     5    37    38    1
     6    38    39   ar
     7    39    40   ar
     8    40    41   ar
     9    41    42   ar
    10    42    43   ar
    11    43    44   ar
    12    44    45   ar
    13    45    46   ar
    14    26    27    1
    15    27    28    2
    16    27    29   am
    17    29    31    1
    18    31    32   ar
    19    32    33   ar
    20    33    34   ar
    21    34    35   ar
    22    35    36   ar
    23     2     5    1
    24     5     6   ar
    25     6     7   ar
    26     7     8   ar
    27     8    12    1
    28    12    13    1
    29    13    14    1
    30    14    15    1
    31    15    18    1
    32    18    19   ar
    33    19    20   ar
    34    20    21    1
    35    20    22   ar
    36    22    23   ar
    37    23    24    1
    38    23    25   ar
    39    15    16    1
    40    16    17    1
    41     8     9   ar
    42     9    10   ar
    43    10    11    1
    44    46    38   ar
    45    36    31   ar
    46    10     5   ar
    47    46    41   ar
    48    17    12    1
    49    25    18   ar
    50     3     4    1
    51    40    47    1
    52    29    30    1
@<TRIPOS>MOLECULE
*****
 47 52 0 0 0
SMALL
GASTEIGER

@<TRIPOS>ATOM
      1 O          -9.7151  -14.6689   29.5188 O.2     1  UNL1       -0.2701
      2 C          -9.1092  -13.8692   28.7539 C.2     1  UNL1        0.2483
      3 N          -9.1243  -12.4611   29.0390 N.am    1  UNL1       -0.2945
      4 H          -8.8199  -11.7942   28.2939 H       1  UNL1        0.1501
      5 C          -8.4173  -14.3956   27.5559 C.ar    1  UNL1        0.0808
      6 C          -9.1691  -14.9609   26.5135 C.ar    1  UNL1        0.0080
      7 C          -8.5383  -15.4616   25.3720 C.ar    1  UNL1        0.0148
      8 C          -7.1389  -15.4167   25.2508 C.ar    1  UNL1        0.0502
      9 C          -6.3850  -14.8714   26.3041 C.ar    1  UNL1        0.0443
     10 C          -7.0138  -14.3674   27.4472 C.ar    1  UNL1        0.1457
     11 F          -6.2430  -13.8985   28.4611 F       1  UNL1       -0.2040
     12 N          -6.4848  -15.9400   24.0743 N.pl3   1  UNL1       -0.3040
     13 C          -7.2357  -16.8229   23.1645 C.3     1  UNL1        0.1122
     14 C          -6.5084  -16.9979   21.8309 C.3     1  UNL1        0.1122
     15 N          -5.1075  -17.3529   22.0836 N.pl3   1  UNL1       -0.3040
     16 C          -4.3197  -16.5725   23.0493 C.3     1  UNL1        0.1122
     17 C          -5.1493  -15.4517   23.6921 C.3     1  UNL1        0.1122
     18 C          -4.5224  -18.5129   21.4635 C.ar    1  UNL1        0.0496
     19 C          -3.1283  -18.6890   21.4560 C.ar    1  UNL1        0.0260
     20 C          -2.5625  -19.8228   20.8627 C.ar    1  UNL1        0.0597
     21 CL         -0.8205  -20.0292   20.8508 Cl      1  UNL1       -0.0822
     22 C          -3.3845  -20.7905   20.2771 C.ar    1  UNL1        0.0229
     23 C          -4.7731  -20.6266   20.2847 C.ar    1  UNL1        0.0597
     24 CL         -5.8039  -21.8457   19.5578 Cl      1  UNL1       -0.0822
     25 C          -5.3409  -19.4934   20.8768 C.ar    1  UNL1        0.0260
     26 C          -9.6233  -11.9341   30.3137 C.3     1  UNL1        0.1535
     27 C          -9.7611  -10.4347   30.2329 C.2     1  UNL1        0.2443
     28 O          -9.4864   -9.8393   29.1553 O.2     1  UNL1       -0.2730
     29 N         -10.2276   -9.6983   31.3745 N.am    1  UNL1       -0.2825
     30 H         -10.1453  -10.1496   32.3138 H       1  UNL1        0.1549
     31 C         -10.7628   -8.3652   31.3140 C.ar    1  UNL1        0.0535
     32 C          -9.9391   -7.2493   31.0860 C.ar    1  UNL1        0.0353
     33 C         -10.5104   -5.9773   31.0006 C.ar    1  UNL1        0.1002
     34 N         -11.8551   -5.8230   31.1241 N.ar    1  UNL1       -0.2422
     35 C         -12.6776   -6.8858   31.3271 C.ar    1  UNL1        0.1002
     36 C         -12.1476   -8.1750   31.4168 C.ar    1  UNL1        0.0353
     37 C         -10.9747  -12.5816   30.6713 C.3     1  UNL1        0.0569
     38 C         -11.0579  -12.9238   32.1326 C.ar    1  UNL1       -0.0017
     39 C         -10.1868  -12.5001   33.1321 C.ar    1  UNL1        0.0681
     40 N         -10.4966  -13.0890   34.3095 N.ar    1  UNL1       -0.3523
     41 C         -11.5491  -13.8873   34.0599 C.ar    1  UNL1        0.0563
     42 C         -12.2091  -14.7216   34.9609 C.ar    1  UNL1        0.0170
     43 C         -13.2786  -15.4972   34.4767 C.ar    1  UNL1        0.0015
     44 C         -13.6573  -15.4250   33.1176 C.ar    1  UNL1        0.0001
     45 C         -12.9708  -14.5763   32.2303 C.ar    1  UNL1        0.0012
     46 C         -11.9186  -13.8160   32.7410 C.ar    1  UNL1        0.0131
     47 H         -10.0026  -12.9621   35.2207 H       1  UNL1        0.1660
@<TRIPOS>BOND
     1     1     2    2
     2     2     3   am
     3     3    26    1
     4    26    37    1
     5    37    38    1
     6    38    39   ar
     7    39    40   ar
     8    40    41   ar
     9    41    42   ar
    10    42    43   ar
    11    43    44   ar
    12    44    45   ar
    13    45    46   ar
    14    26    27    1
    15    27    28    2
    16    27    29   am
    17    29    31    1
    18    31    32   ar
    19    32    33   ar
    20    33    34   ar
    21    34    35   ar
    22    35    36   ar
    23     2     5    1
    24     5     6   ar
    25     6     7   ar
    26     7     8   ar
    27     8    12    1
    28    12    13    1
    29    13    14    1
    30    14    15    1
    31    15    18    1
    32    18    19   ar
    33    19    20   ar
    34    20    21    1
    35    20    22   ar
    36    22    23   ar
    37    23    24    1
    38    23    25   ar
    39    15    16    1
    40    16    17    1
    41     8     9   ar
    42     9    10   ar
    43    10    11    1
    44    46    38   ar
    45    36    31   ar
    46    10     5   ar
    47    46    41   ar
    48    17    12    1
    49    25    18   ar
    50     3     4    1
    51    40    47    1
    52    29    30    1
@<TRIPOS>MOLECULE
*****
 47 52 0 0 0
SMALL
GASTEIGER

@<TRIPOS>ATOM
      1 O          -9.8180  -14.4608   29.7107 O.2     1  UNL1       -0.2701
      2 C          -9.0831  -13.7018   29.0212 C.2     1  UNL1        0.2483
      3 N          -8.9261  -12.3249   29.4006 N.am    1  UNL1       -0.2945
      4 H          -8.5079  -11.6587   28.7122 H       1  UNL1        0.1501
      5 C          -8.4183  -14.2386   27.8125 C.ar    1  UNL1        0.0808
      6 C          -9.1867  -14.8699   26.8213 C.ar    1  UNL1        0.0080
      7 C          -8.5818  -15.3817   25.6708 C.ar    1  UNL1        0.0148
      8 C          -7.1917  -15.2820   25.4893 C.ar    1  UNL1        0.0502
      9 C          -6.4200  -14.6703   26.4920 C.ar    1  UNL1        0.0443
     10 C          -7.0230  -14.1551   27.6439 C.ar    1  UNL1        0.1457
     11 F          -6.2326  -13.6202   28.6089 F       1  UNL1       -0.2040
     12 N          -6.5640  -15.8167   24.3036 N.pl3   1  UNL1       -0.3040
     13 C          -7.3381  -16.7000   23.4139 C.3     1  UNL1        0.1122
     14 C          -6.6380  -16.8877   22.0676 C.3     1  UNL1        0.1122
     15 N          -5.2348  -17.2504   22.2952 N.pl3   1  UNL1       -0.3040
     16 C          -4.4233  -16.4695   23.2407 C.3     1  UNL1        0.1122
     17 C          -5.2330  -15.3395   23.8926 C.3     1  UNL1        0.1122
     18 C          -4.6693  -18.4179   21.6710 C.ar    1  UNL1        0.0496
     19 C          -5.4994  -19.3619   21.0430 C.ar    1  UNL1        0.0260
     20 C          -4.9468  -20.4901   20.4271 C.ar    1  UNL1        0.0597
     21 CL         -5.9923  -21.6671   19.6534 Cl      1  UNL1       -0.0822
     22 C          -3.5617  -20.6813   20.4300 C.ar    1  UNL1        0.0229
     23 C          -2.7273  -19.7446   21.0474 C.ar    1  UNL1        0.0597
     24 CL         -0.9891  -19.9808   21.0425 Cl      1  UNL1       -0.0822
     25 C          -3.2779  -18.6161   21.6644 C.ar    1  UNL1        0.0260
     26 C          -9.4027  -11.8179   30.6918 C.3     1  UNL1        0.1535
     27 C          -9.3198  -10.3125   30.7168 C.2     1  UNL1        0.2443
     28 O          -9.8108   -9.6760   31.6889 O.2     1  UNL1       -0.2730
     29 N          -8.6612   -9.6161   29.6470 N.am    1  UNL1       -0.2825
     30 H          -8.5506  -10.1146   28.7349 H       1  UNL1        0.1549
     31 C          -8.1805   -8.2641   29.7366 C.ar    1  UNL1        0.0535
     32 C          -9.0612   -7.1695   29.7801 C.ar    1  UNL1        0.0353
     33 C          -8.5473   -5.8762   29.9027 C.ar    1  UNL1        0.1002
     34 N          -7.2053   -5.6804   29.9927 N.ar    1  UNL1       -0.2422
     35 C          -6.3314   -6.7211   29.9714 C.ar    1  UNL1        0.1002
     36 C          -6.8034   -8.0303   29.8520 C.ar    1  UNL1        0.0353
     37 C         -10.8482  -12.2831   30.9518 C.3     1  UNL1        0.0569
     38 C         -11.0210  -12.8057   32.3505 C.ar    1  UNL1       -0.0017
     39 C         -10.2060  -12.5272   33.4441 C.ar    1  UNL1        0.0681
     40 N         -10.5908  -13.2547   34.5173 N.ar    1  UNL1       -0.3523
     41 C         -11.6348  -13.9964   34.1082 C.ar    1  UNL1        0.0563
     42 C         -12.3553  -14.9262   34.8565 C.ar    1  UNL1        0.0170
     43 C         -13.4022  -15.6154   34.2172 C.ar    1  UNL1        0.0015
     44 C         -13.6993  -15.3653   32.8588 C.ar    1  UNL1        0.0001
     45 C         -12.9530  -14.4234   32.1275 C.ar    1  UNL1        0.0012
     46 C         -11.9251  -13.7524   32.7902 C.ar    1  UNL1        0.0131
     47 H         -10.1502  -13.2527   35.4640 H       1  UNL1        0.1660
@<TRIPOS>BOND
     1     1     2    2
     2     2     3   am
     3     3    26    1
     4    26    37    1
     5    37    38    1
     6    38    39   ar
     7    39    40   ar
     8    40    41   ar
     9    41    42   ar
    10    42    43   ar
    11    43    44   ar
    12    44    45   ar
    13    45    46   ar
    14    26    27    1
    15    27    28    2
    16    27    29   am
    17    29    31    1
    18    31    32   ar
    19    32    33   ar
    20    33    34   ar
    21    34    35   ar
    22    35    36   ar
    23     2     5    1
    24     5     6   ar
    25     6     7   ar
    26     7     8   ar
    27     8    12    1
    28    12    13    1
    29    13    14    1
    30    14    15    1
    31    15    18    1
    32    18    19   ar
    33    19    20   ar
    34    20    21    1
    35    20    22   ar
    36    22    23   ar
    37    23    24    1
    38    23    25   ar
    39    15    16    1
    40    16    17    1
    41     8     9   ar
    42     9    10   ar
    43    10    11    1
    44    46    38   ar
    45    36    31   ar
    46    10     5   ar
    47    46    41   ar
    48    17    12    1
    49    25    18   ar
    50     3     4    1
    51    40    47    1
    52    29    30    1
