@<TRIPOS>MOLECULE
*****
 26 28 0 0 0
SMALL
GASTEIGER

@<TRIPOS>ATOM
      1 C         -25.4543  -13.2285  -14.3259 C.ar    1  UNL1        0.1385
      2 C         -25.5911  -11.9380  -14.8500 C.ar    1  UNL1        0.0366
      3 C         -25.3020  -10.8174  -14.0667 C.ar    1  UNL1       -0.0011
      4 C         -24.8766  -10.9721  -12.7389 C.ar    1  UNL1       -0.0206
      5 C         -24.7747  -12.2623  -12.1975 C.ar    1  UNL1       -0.0011
      6 C         -25.0686  -13.3822  -12.9796 C.ar    1  UNL1        0.0366
      7 O         -25.7027  -14.3182  -15.1776 O.3     1  UNL1       -0.4750
      8 C         -24.7867  -14.8635  -16.1318 C.3     1  UNL1        0.2117
      9 C         -23.3407  -14.7986  -15.6215 C.3     1  UNL1        0.0931
     10 C         -21.7808  -10.8253  -16.0034 C.ar    1  UNL1       -0.0030
     11 C         -22.4329  -11.4166  -17.0937 C.ar    1  UNL1       -0.0015
     12 C         -22.9165  -12.7217  -16.9946 C.ar    1  UNL1        0.0145
     13 C         -22.7421  -13.4327  -15.7983 C.ar    1  UNL1        0.0627
     14 N         -22.0872  -12.8475  -14.7581 N.ar    1  UNL1       -0.2484
     15 C         -21.5986  -11.5812  -14.8362 C.ar    1  UNL1        0.0941
     16 C         -22.3766   -8.4295  -16.3477 C.3     1  UNL1        0.0051
     17 C         -21.2462   -9.4225  -16.1000 C.3     1  UNL1        0.0279
     18 C         -24.5673   -9.7617  -11.8956 C.3     1  UNL1        0.0468
     19 C         -23.9460  -10.1571  -10.5467 C.3     1  UNL1        0.1369
     20 S         -22.2867   -9.3785  -10.3357 S.3     1  UNL1       -0.0482
     21 C         -22.8870   -8.4576   -8.9296 C.2     1  UNL1        0.2792
     22 O         -22.1796   -7.6112   -8.3240 O.2     1  UNL1       -0.2625
     23 N         -24.2164   -8.7331   -8.5428 N.am    1  UNL1       -0.2460
     24 C         -24.8032   -9.6834   -9.4109 C.2     1  UNL1        0.2392
     25 O         -25.9741  -10.1087   -9.2245 O.2     1  UNL1       -0.2737
     26 H         -24.7001   -8.2959   -7.7269 H       1  UNL1        0.1583
@<TRIPOS>BOND
     1    16    17    1
     2    17    10    1
     3    10    11   ar
     4    11    12   ar
     5    12    13   ar
     6    13     9    1
     7     9     8    1
     8     8     7    1
     9     7     1    1
    10     1     2   ar
    11     2     3   ar
    12     3     4   ar
    13     4    18    1
    14    18    19    1
    15    19    20    1
    16    20    21    1
    17    21    22    2
    18    21    23   am
    19    23    24   am
    20    24    25    2
    21     4     5   ar
    22     5     6   ar
    23    13    14   ar
    24    14    15   ar
    25    15    10   ar
    26     6     1   ar
    27    24    19    1
    28    23    26    1
@<TRIPOS>MOLECULE
*****
 26 28 0 0 0
SMALL
GASTEIGER

@<TRIPOS>ATOM
      1 C         -25.1654  -12.0426  -13.8651 C.ar    1  UNL1        0.1385
      2 C         -25.4978  -10.7605  -14.3171 C.ar    1  UNL1        0.0366
      3 C         -25.1279   -9.6294  -13.5844 C.ar    1  UNL1       -0.0011
      4 C         -24.4227   -9.7657  -12.3793 C.ar    1  UNL1       -0.0206
      5 C         -24.1208  -11.0503  -11.9031 C.ar    1  UNL1       -0.0011
      6 C         -24.4952  -12.1810  -12.6337 C.ar    1  UNL1        0.0366
      7 O         -25.5123  -13.1392  -14.6725 O.3     1  UNL1       -0.4750
      8 C         -24.8110  -14.3842  -14.7434 C.3     1  UNL1        0.2117
      9 C         -23.7819  -14.3842  -15.8821 C.3     1  UNL1        0.0931
     10 C         -21.9854  -10.5035  -16.1633 C.ar    1  UNL1       -0.0030
     11 C         -22.9227  -10.8997  -17.1267 C.ar    1  UNL1       -0.0015
     12 C         -23.4910  -12.1726  -17.0666 C.ar    1  UNL1        0.0145
     13 C         -23.1143  -13.0480  -16.0375 C.ar    1  UNL1        0.0627
     14 N         -22.1864  -12.6513  -15.1238 N.ar    1  UNL1       -0.2484
     15 C         -21.6121  -11.4198  -15.1693 C.ar    1  UNL1        0.0941
     16 C         -21.7086   -8.3282  -14.9780 C.3     1  UNL1        0.0051
     17 C         -21.3581   -9.1375  -16.2218 C.3     1  UNL1        0.0279
     18 C         -24.0266   -8.5442  -11.5900 C.3     1  UNL1        0.0468
     19 C         -22.8768   -8.8492  -10.6169 C.3     1  UNL1        0.1369
     20 S         -21.5210   -7.6108  -10.7954 S.3     1  UNL1       -0.0482
     21 C         -21.7871   -7.0633   -9.1176 C.2     1  UNL1        0.2792
     22 O         -21.1562   -6.0983   -8.6134 O.2     1  UNL1       -0.2625
     23 N         -22.7625   -7.7791   -8.3902 N.am    1  UNL1       -0.2460
     24 C         -23.3539   -8.7794   -9.1967 C.2     1  UNL1        0.2392
     25 O         -24.2212   -9.5678   -8.7354 O.2     1  UNL1       -0.2737
     26 H         -23.0124   -7.5958   -7.3928 H       1  UNL1        0.1583
@<TRIPOS>BOND
     1    16    17    1
     2    17    10    1
     3    10    11   ar
     4    11    12   ar
     5    12    13   ar
     6    13     9    1
     7     9     8    1
     8     8     7    1
     9     7     1    1
    10     1     2   ar
    11     2     3   ar
    12     3     4   ar
    13     4    18    1
    14    18    19    1
    15    19    20    1
    16    20    21    1
    17    21    22    2
    18    21    23   am
    19    23    24   am
    20    24    25    2
    21     4     5   ar
    22     5     6   ar
    23    13    14   ar
    24    14    15   ar
    25    15    10   ar
    26     6     1   ar
    27    24    19    1
    28    23    26    1
@<TRIPOS>MOLECULE
*****
 26 28 0 0 0
SMALL
GASTEIGER

@<TRIPOS>ATOM
      1 C         -25.3858  -13.2095  -14.3198 C.ar    1  UNL1        0.1385
      2 C         -25.6451  -11.9934  -14.9622 C.ar    1  UNL1        0.0366
      3 C         -25.4063  -10.7798  -14.3118 C.ar    1  UNL1       -0.0011
      4 C         -24.9088  -10.7652  -13.0002 C.ar    1  UNL1       -0.0206
      5 C         -24.6835  -11.9816  -12.3388 C.ar    1  UNL1       -0.0011
      6 C         -24.9271  -13.1948  -12.9879 C.ar    1  UNL1        0.0366
      7 O         -25.5897  -14.3966  -15.0436 O.3     1  UNL1       -0.4750
      8 C         -24.7439  -14.9033  -16.0803 C.3     1  UNL1        0.2117
      9 C         -23.2630  -14.8218  -15.6858 C.3     1  UNL1        0.0931
     10 C         -21.8425  -10.7913  -16.0082 C.ar    1  UNL1       -0.0030
     11 C         -22.5110  -11.3745  -17.0930 C.ar    1  UNL1       -0.0015
     12 C         -22.9497  -12.6967  -17.0143 C.ar    1  UNL1        0.0145
     13 C         -22.7139  -13.4330  -15.8441 C.ar    1  UNL1        0.0627
     14 N         -22.0440  -12.8545  -14.8097 N.ar    1  UNL1       -0.2484
     15 C         -21.5985  -11.5714  -14.8686 C.ar    1  UNL1        0.0941
     16 C         -22.4870   -8.4325  -16.4921 C.3     1  UNL1        0.0051
     17 C         -21.3559   -9.3698  -16.0834 C.3     1  UNL1        0.0279
     18 C         -24.6538   -9.4548  -12.3003 C.3     1  UNL1        0.0468
     19 C         -25.0245   -8.2579  -13.1902 C.3     1  UNL1        0.1369
     20 S         -26.7141   -7.6377  -12.7847 S.3     1  UNL1       -0.0482
     21 C         -26.0267   -6.0732  -12.2697 C.2     1  UNL1        0.2792
     22 O         -26.7317   -5.1548  -11.7766 O.2     1  UNL1       -0.2625
     23 N         -24.6327   -5.9332  -12.4426 N.am    1  UNL1       -0.2460
     24 C         -24.0723   -7.1203  -12.9694 C.2     1  UNL1        0.2392
     25 O         -22.8458   -7.2022  -13.2444 O.2     1  UNL1       -0.2737
     26 H         -24.0897   -5.0709  -12.2137 H       1  UNL1        0.1583
@<TRIPOS>BOND
     1    16    17    1
     2    17    10    1
     3    10    11   ar
     4    11    12   ar
     5    12    13   ar
     6    13     9    1
     7     9     8    1
     8     8     7    1
     9     7     1    1
    10     1     2   ar
    11     2     3   ar
    12     3     4   ar
    13     4    18    1
    14    18    19    1
    15    19    20    1
    16    20    21    1
    17    21    22    2
    18    21    23   am
    19    23    24   am
    20    24    25    2
    21     4     5   ar
    22     5     6   ar
    23    13    14   ar
    24    14    15   ar
    25    15    10   ar
    26     6     1   ar
    27    24    19    1
    28    23    26    1
@<TRIPOS>MOLECULE
*****
 26 28 0 0 0
SMALL
GASTEIGER

@<TRIPOS>ATOM
      1 C         -25.2413  -12.8509  -14.0472 C.ar    1  UNL1        0.1385
      2 C         -25.6314  -11.7582  -14.8298 C.ar    1  UNL1        0.0366
      3 C         -25.3726  -10.4516  -14.4071 C.ar    1  UNL1       -0.0011
      4 C         -24.7230  -10.2179  -13.1859 C.ar    1  UNL1       -0.0206
      5 C         -24.3644  -11.3089  -12.3803 C.ar    1  UNL1       -0.0011
      6 C         -24.6277  -12.6151  -12.8012 C.ar    1  UNL1        0.0366
      7 O         -25.4754  -14.1420  -14.5503 O.3     1  UNL1       -0.4750
      8 C         -24.8630  -14.7148  -15.7094 C.3     1  UNL1        0.2117
      9 C         -23.3321  -14.6942  -15.6030 C.3     1  UNL1        0.0931
     10 C         -21.8592  -10.7038  -16.1258 C.ar    1  UNL1       -0.0030
     11 C         -22.6479  -11.2834  -17.1287 C.ar    1  UNL1       -0.0015
     12 C         -23.1067  -12.5935  -16.9869 C.ar    1  UNL1        0.0145
     13 C         -22.7700  -13.3212  -15.8361 C.ar    1  UNL1        0.0627
     14 N         -21.9852  -12.7470  -14.8835 N.ar    1  UNL1       -0.2484
     15 C         -21.5185  -11.4759  -15.0057 C.ar    1  UNL1        0.0941
     16 C         -22.4957   -8.3351  -16.5707 C.3     1  UNL1        0.0051
     17 C         -21.3501   -9.2956  -16.2704 C.3     1  UNL1        0.0279
     18 C         -24.4468   -8.8075  -12.7313 C.3     1  UNL1        0.0468
     19 C         -23.1542   -8.7237  -11.9043 C.3     1  UNL1        0.1369
     20 S         -21.8452   -7.8057  -12.8249 S.3     1  UNL1       -0.0482
     21 C         -21.8350   -6.5396  -11.5669 C.2     1  UNL1        0.2792
     22 O         -21.1303   -5.5011  -11.6590 O.2     1  UNL1       -0.2625
     23 N         -22.6792   -6.7732  -10.4599 N.am    1  UNL1       -0.2460
     24 C         -23.3940   -7.9830  -10.6225 C.2     1  UNL1        0.2392
     25 O         -24.1750   -8.4096   -9.7310 O.2     1  UNL1       -0.2737
     26 H         -22.7637   -6.1400   -9.6337 H       1  UNL1        0.1583
@<TRIPOS>BOND
     1    16    17    1
     2    17    10    1
     3    10    11   ar
     4    11    12   ar
     5    12    13   ar
     6    13     9    1
     7     9     8    1
     8     8     7    1
     9     7     1    1
    10     1     2   ar
    11     2     3   ar
    12     3     4   ar
    13     4    18    1
    14    18    19    1
    15    19    20    1
    16    20    21    1
    17    21    22    2
    18    21    23   am
    19    23    24   am
    20    24    25    2
    21     4     5   ar
    22     5     6   ar
    23    13    14   ar
    24    14    15   ar
    25    15    10   ar
    26     6     1   ar
    27    24    19    1
    28    23    26    1
@<TRIPOS>MOLECULE
*****
 26 28 0 0 0
SMALL
GASTEIGER

@<TRIPOS>ATOM
      1 C         -21.5751  -11.5687  -14.5578 C.ar    1  UNL1        0.1385
      2 C         -21.7882  -10.2003  -14.3561 C.ar    1  UNL1        0.0366
      3 C         -21.8338   -9.6699  -13.0640 C.ar    1  UNL1       -0.0011
      4 C         -21.6732  -10.5063  -11.9491 C.ar    1  UNL1       -0.0206
      5 C         -21.4976  -11.8842  -12.1453 C.ar    1  UNL1       -0.0011
      6 C         -21.4569  -12.4146  -13.4374 C.ar    1  UNL1        0.0366
      7 O         -21.4806  -12.0357  -15.8798 O.3     1  UNL1       -0.4750
      8 C         -21.9228  -11.3400  -17.0491 C.3     1  UNL1        0.2117
      9 C         -23.2751  -11.8735  -17.5412 C.3     1  UNL1        0.0931
     10 C         -25.7964  -13.4772  -14.4692 C.ar    1  UNL1       -0.0030
     11 C         -25.7413  -12.0900  -14.6601 C.ar    1  UNL1       -0.0015
     12 C         -24.8998  -11.5518  -15.6344 C.ar    1  UNL1        0.0145
     13 C         -24.1120  -12.4100  -16.4155 C.ar    1  UNL1        0.0627
     14 N         -24.1646  -13.7531  -16.1998 N.ar    1  UNL1       -0.2484
     15 C         -24.9693  -14.2983  -15.2491 C.ar    1  UNL1        0.0941
     16 C         -25.9815  -14.1195  -12.0678 C.3     1  UNL1        0.0051
     17 C         -26.6922  -14.0699  -13.4160 C.3     1  UNL1        0.0279
     18 C         -21.7248   -9.9320  -10.5564 C.3     1  UNL1        0.0468
     19 C         -23.0129   -9.1265  -10.3252 C.3     1  UNL1        0.1369
     20 S         -24.5001  -10.1311  -10.7529 S.3     1  UNL1       -0.0482
     21 C         -25.0497  -10.0573   -9.0564 C.2     1  UNL1        0.2792
     22 O         -26.0733  -10.6665   -8.6504 O.2     1  UNL1       -0.2625
     23 N         -24.2539   -9.2757   -8.1911 N.am    1  UNL1       -0.2460
     24 C         -23.1422   -8.7393   -8.8820 C.2     1  UNL1        0.2392
     25 O         -22.3215   -7.9728   -8.3115 O.2     1  UNL1       -0.2737
     26 H         -24.4586   -9.1148   -7.1797 H       1  UNL1        0.1583
@<TRIPOS>BOND
     1    16    17    1
     2    17    10    1
     3    10    11   ar
     4    11    12   ar
     5    12    13   ar
     6    13     9    1
     7     9     8    1
     8     8     7    1
     9     7     1    1
    10     1     2   ar
    11     2     3   ar
    12     3     4   ar
    13     4    18    1
    14    18    19    1
    15    19    20    1
    16    20    21    1
    17    21    22    2
    18    21    23   am
    19    23    24   am
    20    24    25    2
    21     4     5   ar
    22     5     6   ar
    23    13    14   ar
    24    14    15   ar
    25    15    10   ar
    26     6     1   ar
    27    24    19    1
    28    23    26    1
@<TRIPOS>MOLECULE
*****
 26 28 0 0 0
SMALL
GASTEIGER

@<TRIPOS>ATOM
      1 C         -21.5104  -11.6609  -14.5055 C.ar    1  UNL1        0.1385
      2 C         -21.1823  -12.4930  -13.4291 C.ar    1  UNL1        0.0366
      3 C         -21.1690  -11.9955  -12.1233 C.ar    1  UNL1       -0.0011
      4 C         -21.4783  -10.6498  -11.8749 C.ar    1  UNL1       -0.0206
      5 C         -21.7704   -9.8030  -12.9545 C.ar    1  UNL1       -0.0011
      6 C         -21.7788  -10.2998  -14.2604 C.ar    1  UNL1        0.0366
      7 O         -21.5643  -12.2302  -15.7892 O.3     1  UNL1       -0.4750
      8 C         -21.9072  -11.5449  -16.9974 C.3     1  UNL1        0.2117
      9 C         -23.3215  -11.9110  -17.4677 C.3     1  UNL1        0.0931
     10 C         -25.8714  -13.4982  -14.4108 C.ar    1  UNL1       -0.0030
     11 C         -25.7574  -12.1095  -14.5597 C.ar    1  UNL1       -0.0015
     12 C         -24.9056  -11.5784  -15.5288 C.ar    1  UNL1        0.0145
     13 C         -24.1667  -12.4454  -16.3472 C.ar    1  UNL1        0.0627
     14 N         -24.2759  -13.7910  -16.1722 N.ar    1  UNL1       -0.2484
     15 C         -25.0916  -14.3300  -15.2274 C.ar    1  UNL1        0.0941
     16 C         -26.0580  -14.1942  -12.0245 C.3     1  UNL1        0.0051
     17 C         -26.7789  -14.0839  -13.3636 C.3     1  UNL1        0.0279
     18 C         -21.4614  -10.1152  -10.4657 C.3     1  UNL1        0.0468
     19 C         -20.3279   -9.0978  -10.2614 C.3     1  UNL1        0.1369
     20 S         -20.9362   -7.6123   -9.3520 S.3     1  UNL1       -0.0482
     21 C         -19.8307   -7.9760   -7.9988 C.2     1  UNL1        0.2792
     22 O         -19.8158   -7.2996   -6.9377 O.2     1  UNL1       -0.2625
     23 N         -18.9753   -9.0824   -8.1909 N.am    1  UNL1       -0.2460
     24 C         -19.2231   -9.6951   -9.4415 C.2     1  UNL1        0.2392
     25 O         -18.5416  -10.6772   -9.8386 O.2     1  UNL1       -0.2737
     26 H         -18.2572   -9.4039   -7.5040 H       1  UNL1        0.1583
@<TRIPOS>BOND
     1    16    17    1
     2    17    10    1
     3    10    11   ar
     4    11    12   ar
     5    12    13   ar
     6    13     9    1
     7     9     8    1
     8     8     7    1
     9     7     1    1
    10     1     2   ar
    11     2     3   ar
    12     3     4   ar
    13     4    18    1
    14    18    19    1
    15    19    20    1
    16    20    21    1
    17    21    22    2
    18    21    23   am
    19    23    24   am
    20    24    25    2
    21     4     5   ar
    22     5     6   ar
    23    13    14   ar
    24    14    15   ar
    25    15    10   ar
    26     6     1   ar
    27    24    19    1
    28    23    26    1
@<TRIPOS>MOLECULE
*****
 26 28 0 0 0
SMALL
GASTEIGER

@<TRIPOS>ATOM
      1 C         -25.1433  -11.9125  -13.8159 C.ar    1  UNL1        0.1385
      2 C         -24.3888  -12.0607  -12.6465 C.ar    1  UNL1        0.0366
      3 C         -23.9892  -10.9419  -11.9106 C.ar    1  UNL1       -0.0011
      4 C         -24.3343   -9.6517  -12.3400 C.ar    1  UNL1       -0.0206
      5 C         -25.0577   -9.4964  -13.5319 C.ar    1  UNL1       -0.0011
      6 C         -25.4528  -10.6153  -14.2698 C.ar    1  UNL1        0.0366
      7 O         -25.5661  -13.0752  -14.4822 O.3     1  UNL1       -0.4750
      8 C         -24.8138  -14.2844  -14.6192 C.3     1  UNL1        0.2117
      9 C         -23.9595  -14.2721  -15.8941 C.3     1  UNL1        0.0931
     10 C         -21.9840  -10.4843  -16.2352 C.ar    1  UNL1       -0.0030
     11 C         -22.9829  -10.8252  -17.1570 C.ar    1  UNL1       -0.0015
     12 C         -23.6114  -12.0685  -17.0781 C.ar    1  UNL1        0.0145
     13 C         -23.2330  -12.9698  -16.0723 C.ar    1  UNL1        0.0627
     14 N         -22.2457  -12.6275  -15.1998 N.ar    1  UNL1       -0.2484
     15 C         -21.6127  -11.4260  -15.2646 C.ar    1  UNL1        0.0941
     16 C         -22.3089   -8.0191  -16.4104 C.3     1  UNL1        0.0051
     17 C         -21.2917   -9.1510  -16.3147 C.3     1  UNL1        0.0279
     18 C         -23.9005   -8.4465  -11.5456 C.3     1  UNL1        0.0468
     19 C         -23.1861   -7.4136  -12.4314 C.3     1  UNL1        0.1369
     20 S         -23.3992   -5.7104  -11.7548 S.3     1  UNL1       -0.0482
     21 C         -21.6380   -5.5830  -11.4950 C.2     1  UNL1        0.2792
     22 O         -21.1068   -4.5846  -10.9430 O.2     1  UNL1       -0.2625
     23 N         -20.8746   -6.6832  -11.9417 N.am    1  UNL1       -0.2460
     24 C         -21.7124   -7.6879  -12.4796 C.2     1  UNL1        0.2392
     25 O         -21.2370   -8.7424  -12.9783 O.2     1  UNL1       -0.2737
     26 H         -19.8337   -6.7462  -11.8837 H       1  UNL1        0.1583
@<TRIPOS>BOND
     1    16    17    1
     2    17    10    1
     3    10    11   ar
     4    11    12   ar
     5    12    13   ar
     6    13     9    1
     7     9     8    1
     8     8     7    1
     9     7     1    1
    10     1     2   ar
    11     2     3   ar
    12     3     4   ar
    13     4    18    1
    14    18    19    1
    15    19    20    1
    16    20    21    1
    17    21    22    2
    18    21    23   am
    19    23    24   am
    20    24    25    2
    21     4     5   ar
    22     5     6   ar
    23    13    14   ar
    24    14    15   ar
    25    15    10   ar
    26     6     1   ar
    27    24    19    1
    28    23    26    1
@<TRIPOS>MOLECULE
*****
 26 28 0 0 0
SMALL
GASTEIGER

@<TRIPOS>ATOM
      1 C         -25.1944  -11.7869  -13.6953 C.ar    1  UNL1        0.1385
      2 C         -24.3576  -12.0756  -12.6113 C.ar    1  UNL1        0.0366
      3 C         -23.7089  -11.0491  -11.9197 C.ar    1  UNL1       -0.0011
      4 C         -23.8833   -9.7126  -12.3090 C.ar    1  UNL1       -0.0206
      5 C         -24.6907   -9.4215  -13.4186 C.ar    1  UNL1       -0.0011
      6 C         -25.3352  -10.4488  -14.1127 C.ar    1  UNL1        0.0366
      7 O         -25.8658  -12.8543  -14.3154 O.3     1  UNL1       -0.4750
      8 C         -25.3259  -14.1564  -14.5604 C.3     1  UNL1        0.2117
      9 C         -24.5836  -14.2122  -15.9025 C.3     1  UNL1        0.0931
     10 C         -21.9917  -10.8147  -16.2274 C.ar    1  UNL1       -0.0030
     11 C         -23.0827  -10.9341  -17.0988 C.ar    1  UNL1       -0.0015
     12 C         -23.9156  -12.0512  -17.0264 C.ar    1  UNL1        0.0145
     13 C         -23.6493  -13.0496  -16.0779 C.ar    1  UNL1        0.0627
     14 N         -22.5721  -12.9245  -15.2549 N.ar    1  UNL1       -0.2484
     15 C         -21.7413  -11.8500  -15.3150 C.ar    1  UNL1        0.0941
     16 C         -21.8419   -8.3390  -15.9789 C.3     1  UNL1        0.0051
     17 C         -21.0804   -9.6201  -16.3011 C.3     1  UNL1        0.0279
     18 C         -23.1810   -8.6074  -11.5626 C.3     1  UNL1        0.0468
     19 C         -24.0182   -8.1076  -10.3747 C.3     1  UNL1        0.1369
     20 S         -25.7761   -8.6425  -10.5404 S.3     1  UNL1       -0.0482
     21 C         -25.6302   -9.6161   -9.0517 C.2     1  UNL1        0.2792
     22 O         -26.5637  -10.3453   -8.6269 O.2     1  UNL1       -0.2625
     23 N         -24.3911   -9.5236   -8.3817 N.am    1  UNL1       -0.2460
     24 C         -23.5028   -8.6788   -9.0873 C.2     1  UNL1        0.2392
     25 O         -22.3523   -8.4190   -8.6450 O.2     1  UNL1       -0.2737
     26 H         -24.1622  -10.0114   -7.4871 H       1  UNL1        0.1583
@<TRIPOS>BOND
     1    16    17    1
     2    17    10    1
     3    10    11   ar
     4    11    12   ar
     5    12    13   ar
     6    13     9    1
     7     9     8    1
     8     8     7    1
     9     7     1    1
    10     1     2   ar
    11     2     3   ar
    12     3     4   ar
    13     4    18    1
    14    18    19    1
    15    19    20    1
    16    20    21    1
    17    21    22    2
    18    21    23   am
    19    23    24   am
    20    24    25    2
    21     4     5   ar
    22     5     6   ar
    23    13    14   ar
    24    14    15   ar
    25    15    10   ar
    26     6     1   ar
    27    24    19    1
    28    23    26    1
@<TRIPOS>MOLECULE
*****
 26 28 0 0 0
SMALL
GASTEIGER

@<TRIPOS>ATOM
      1 C         -21.6934   -9.9177  -15.6103 C.ar    1  UNL1        0.1385
      2 C         -22.0936   -8.5862  -15.7710 C.ar    1  UNL1        0.0366
      3 C         -22.4582   -7.8142  -14.6647 C.ar    1  UNL1       -0.0011
      4 C         -22.4345   -8.3679  -13.3760 C.ar    1  UNL1       -0.0206
      5 C         -22.0708   -9.7131  -13.2143 C.ar    1  UNL1       -0.0011
      6 C         -21.7110  -10.4860  -14.3214 C.ar    1  UNL1        0.0366
      7 O         -21.2822  -10.6272  -16.7515 O.3     1  UNL1       -0.4750
      8 C         -21.7703  -11.9068  -17.1652 C.3     1  UNL1        0.2117
      9 C         -23.2637  -11.8512  -17.5146 C.3     1  UNL1        0.0931
     10 C         -25.8450  -13.4257  -14.4774 C.ar    1  UNL1       -0.0030
     11 C         -25.7819  -12.0401  -14.6768 C.ar    1  UNL1       -0.0015
     12 C         -24.9213  -11.5113  -15.6395 C.ar    1  UNL1        0.0145
     13 C         -24.1224  -12.3773  -16.4004 C.ar    1  UNL1        0.0627
     14 N         -24.1833  -13.7187  -16.1764 N.ar    1  UNL1       -0.2484
     15 C         -25.0067  -14.2548  -15.2367 C.ar    1  UNL1        0.0941
     16 C         -26.0111  -14.2525  -12.1317 C.3     1  UNL1        0.0051
     17 C         -26.7615  -14.0083  -13.4364 C.3     1  UNL1        0.0279
     18 C         -22.8301   -7.5336  -12.1846 C.3     1  UNL1        0.0468
     19 C         -21.6038   -7.1041  -11.3638 C.3     1  UNL1        0.1369
     20 S         -21.6357   -5.2883  -11.0387 S.3     1  UNL1       -0.0482
     21 C         -21.7567   -5.5948   -9.2845 C.2     1  UNL1        0.2792
     22 O         -21.8921   -4.6679   -8.4442 O.2     1  UNL1       -0.2625
     23 N         -21.7002   -6.9512   -8.8973 N.am    1  UNL1       -0.2460
     24 C         -21.5933   -7.7909  -10.0306 C.2     1  UNL1        0.2392
     25 O         -21.4845   -9.0404   -9.9145 O.2     1  UNL1       -0.2737
     26 H         -21.7320   -7.2883   -7.9093 H       1  UNL1        0.1583
@<TRIPOS>BOND
     1    16    17    1
     2    17    10    1
     3    10    11   ar
     4    11    12   ar
     5    12    13   ar
     6    13     9    1
     7     9     8    1
     8     8     7    1
     9     7     1    1
    10     1     2   ar
    11     2     3   ar
    12     3     4   ar
    13     4    18    1
    14    18    19    1
    15    19    20    1
    16    20    21    1
    17    21    22    2
    18    21    23   am
    19    23    24   am
    20    24    25    2
    21     4     5   ar
    22     5     6   ar
    23    13    14   ar
    24    14    15   ar
    25    15    10   ar
    26     6     1   ar
    27    24    19    1
    28    23    26    1
