@<TRIPOS>MOLECULE
*****
 45 50 0 0 0
SMALL
GASTEIGER

@<TRIPOS>ATOM
      1 C          12.0044   81.3993   25.7108 C.ar    1  UNL1        0.0702
      2 C          12.9641   82.1324   26.4237 C.ar    1  UNL1        0.0191
      3 C          13.6691   83.1612   25.7967 C.ar    1  UNL1        0.0356
      4 C          13.4026   83.4706   24.4499 C.ar    1  UNL1        0.1318
      5 N          12.4465   82.7567   23.7909 N.ar    1  UNL1       -0.2279
      6 C          11.7482   81.7516   24.3813 C.ar    1  UNL1        0.1149
      7 N          14.1054   84.5352   23.7657 N.pl3   1  UNL1       -0.2932
      8 C          13.8722   85.9452   24.1277 C.3     1  UNL1        0.0923
      9 C          14.4446   86.9085   23.0771 C.3     1  UNL1        0.0252
     10 C          14.1259   86.3941   21.6626 C.3     1  UNL1        0.0472
     11 C          14.7431   84.9913   21.4124 C.3     1  UNL1        0.0252
     12 C          15.0796   84.2298   22.7056 C.3     1  UNL1        0.0923
     13 C          14.5887   87.4095   20.6006 C.3     1  UNL1        0.2054
     14 O          13.6851   87.4414   19.4943 O.3     1  UNL1       -0.4750
     15 C          14.0318   87.6940   18.1557 C.ar    1  UNL1        0.1440
     16 C          14.1716   89.0014   17.6538 C.ar    1  UNL1        0.0373
     17 C          14.5057   89.2111   16.3176 C.ar    1  UNL1        0.0033
     18 C          14.7154   88.1269   15.4679 C.ar    1  UNL1        0.0071
     19 C          14.5968   86.8116   15.9444 C.ar    1  UNL1        0.0837
     20 C          14.2472   86.5970   17.2999 C.ar    1  UNL1        0.0702
     21 I          13.9183   84.6443   18.0912 I       1  UNL1       -0.0392
     22 C          14.8578   85.6931   15.0107 C.2     1  UNL1        0.3385
     23 O          14.3195   85.6767   13.8728 O.2     1  UNL1       -0.2451
     24 O          15.6688   84.6240   15.3860 O.3     1  UNL1       -0.4771
     25 H          16.1561   84.6111   16.2738 H       1  UNL1        0.2954
     26 C          11.4541   78.9488   26.0925 C.2     1  UNL1        0.2839
     27 O          12.4069   78.5625   25.3642 O.2     1  UNL1       -0.2665
     28 N          11.2374   80.3515   26.3268 N.am    1  UNL1       -0.2766
     29 H          10.4431   80.6420   26.9375 H       1  UNL1        0.1553
     30 C           8.2932   78.4635   25.5854 C.3     1  UNL1        0.0345
     31 C           9.2184   77.7303   26.5088 C.ar    1  UNL1        0.0202
     32 C          10.5896   77.9296   26.7123 C.ar    1  UNL1        0.1946
     33 O          11.0552   77.0313   27.5624 O.2     1  UNL1       -0.4492
     34 C          10.0527   76.2762   27.9398 C.ar    1  UNL1        0.1452
     35 C          10.0859   75.2089   28.8305 C.ar    1  UNL1        0.0375
     36 C           8.8831   74.5295   29.0915 C.ar    1  UNL1        0.0031
     37 C           7.6715   74.9242   28.4616 C.ar    1  UNL1        0.0002
     38 C           7.6822   76.0160   27.5605 C.ar    1  UNL1        0.0028
     39 C           8.8934   76.6675   27.3273 C.ar    1  UNL1        0.0337
     40 C           6.4069   74.1992   28.7448 C.ar    1  UNL1        0.0000
     41 C           5.6040   74.5624   29.8429 C.ar    1  UNL1        0.0000
     42 C           4.4142   73.8771   30.1077 C.ar    1  UNL1        0.0000
     43 C           4.0125   72.8250   29.2819 C.ar    1  UNL1        0.0000
     44 C           4.8000   72.4553   28.1894 C.ar    1  UNL1        0.0000
     45 C           5.9912   73.1363   27.9203 C.ar    1  UNL1        0.0000
@<TRIPOS>BOND
     1    30    31    1
     2    31    32   ar
     3    32    26    1
     4    26    27    2
     5    26    28   am
     6    28     1    1
     7     1     2   ar
     8     2     3   ar
     9     3     4   ar
    10     4     7    1
    11     7     8    1
    12     8     9    1
    13     9    10    1
    14    10    13    1
    15    13    14    1
    16    14    15    1
    17    15    16   ar
    18    16    17   ar
    19    17    18   ar
    20    18    19   ar
    21    19    22    1
    22    22    23    2
    23    22    24    1
    24    19    20   ar
    25    20    21    1
    26    10    11    1
    27    11    12    1
    28     4     5   ar
    29     5     6   ar
    30    32    33   ar
    31    33    34   ar
    32    34    35   ar
    33    35    36   ar
    34    36    37   ar
    35    37    40    1
    36    40    41   ar
    37    41    42   ar
    38    42    43   ar
    39    43    44   ar
    40    44    45   ar
    41    37    38   ar
    42    38    39   ar
    43    39    31   ar
    44     6     1   ar
    45    39    34   ar
    46    12     7    1
    47    45    40   ar
    48    20    15   ar
    49    28    29    1
    50    24    25    1
@<TRIPOS>MOLECULE
*****
 45 50 0 0 0
SMALL
GASTEIGER

@<TRIPOS>ATOM
      1 C          11.8818   81.2307   25.8188 C.ar    1  UNL1        0.0702
      2 C          12.8322   81.9635   26.5445 C.ar    1  UNL1        0.0191
      3 C          13.5518   82.9865   25.9247 C.ar    1  UNL1        0.0356
      4 C          13.3096   83.2903   24.5721 C.ar    1  UNL1        0.1318
      5 N          12.3620   82.5771   23.9003 N.ar    1  UNL1       -0.2279
      6 C          11.6498   81.5775   24.4834 C.ar    1  UNL1        0.1149
      7 N          14.0282   84.3489   23.8949 N.pl3   1  UNL1       -0.2932
      8 C          13.7635   85.7633   24.2159 C.3     1  UNL1        0.0923
      9 C          14.3684   86.7111   23.1695 C.3     1  UNL1        0.0252
     10 C          14.1157   86.1627   21.7545 C.3     1  UNL1        0.0472
     11 C          14.7592   84.7627   21.5610 C.3     1  UNL1        0.0252
     12 C          15.0497   84.0333   22.8835 C.3     1  UNL1        0.0923
     13 C          14.6110   87.1609   20.6909 C.3     1  UNL1        0.2054
     14 O          13.8636   87.0322   19.4800 O.3     1  UNL1       -0.4750
     15 C          14.2615   86.3127   18.3399 C.ar    1  UNL1        0.1440
     16 C          14.6944   84.9756   18.4134 C.ar    1  UNL1        0.0373
     17 C          15.0915   84.2994   17.2619 C.ar    1  UNL1        0.0033
     18 C          15.0532   84.9381   16.0241 C.ar    1  UNL1        0.0071
     19 C          14.6123   86.2669   15.9186 C.ar    1  UNL1        0.0837
     20 C          14.2181   86.9588   17.0898 C.ar    1  UNL1        0.0702
     21 I          13.6537   89.0150   17.0568 I       1  UNL1       -0.0392
     22 C          14.5618   86.8927   14.5782 C.2     1  UNL1        0.3385
     23 O          14.8300   88.1146   14.4371 O.2     1  UNL1       -0.2451
     24 O          14.1812   86.1546   13.4594 O.3     1  UNL1       -0.4771
     25 H          13.9956   85.1605   13.5150 H       1  UNL1        0.2954
     26 C          11.3227   78.7840   26.2118 C.2     1  UNL1        0.2839
     27 O          12.2927   78.3907   25.5105 O.2     1  UNL1       -0.2665
     28 N          11.1002   80.1889   26.4266 N.am    1  UNL1       -0.2766
     29 H          10.2915   80.4853   27.0152 H       1  UNL1        0.1553
     30 C           8.1699   78.3066   25.6495 C.3     1  UNL1        0.0345
     31 C           9.0756   77.5751   26.5933 C.ar    1  UNL1        0.0202
     32 C          10.4435   77.7707   26.8207 C.ar    1  UNL1        0.1946
     33 O          10.8906   76.8753   27.6836 O.2     1  UNL1       -0.4492
     34 C           9.8788   76.1254   28.0464 C.ar    1  UNL1        0.1452
     35 C           9.8921   75.0625   28.9429 C.ar    1  UNL1        0.0375
     36 C           8.6824   74.3883   29.1853 C.ar    1  UNL1        0.0031
     37 C           7.4839   74.7840   28.5314 C.ar    1  UNL1        0.0002
     38 C           7.5147   75.8711   27.6253 C.ar    1  UNL1        0.0028
     39 C           8.7322   76.5174   27.4109 C.ar    1  UNL1        0.0337
     40 C           6.2118   74.0646   28.7952 C.ar    1  UNL1        0.0000
     41 C           5.3830   74.4457   29.8676 C.ar    1  UNL1        0.0000
     42 C           4.1862   73.7656   30.1141 C.ar    1  UNL1        0.0000
     43 C           3.8034   72.7010   29.2954 C.ar    1  UNL1        0.0000
     44 C           4.6167   72.3135   28.2283 C.ar    1  UNL1        0.0000
     45 C           5.8150   72.9892   27.9776 C.ar    1  UNL1        0.0000
@<TRIPOS>BOND
     1    30    31    1
     2    31    32   ar
     3    32    26    1
     4    26    27    2
     5    26    28   am
     6    28     1    1
     7     1     2   ar
     8     2     3   ar
     9     3     4   ar
    10     4     7    1
    11     7     8    1
    12     8     9    1
    13     9    10    1
    14    10    13    1
    15    13    14    1
    16    14    15    1
    17    15    16   ar
    18    16    17   ar
    19    17    18   ar
    20    18    19   ar
    21    19    22    1
    22    22    23    2
    23    22    24    1
    24    19    20   ar
    25    20    21    1
    26    10    11    1
    27    11    12    1
    28     4     5   ar
    29     5     6   ar
    30    32    33   ar
    31    33    34   ar
    32    34    35   ar
    33    35    36   ar
    34    36    37   ar
    35    37    40    1
    36    40    41   ar
    37    41    42   ar
    38    42    43   ar
    39    43    44   ar
    40    44    45   ar
    41    37    38   ar
    42    38    39   ar
    43    39    31   ar
    44     6     1   ar
    45    39    34   ar
    46    12     7    1
    47    45    40   ar
    48    20    15   ar
    49    28    29    1
    50    24    25    1
@<TRIPOS>MOLECULE
*****
 45 50 0 0 0
SMALL
GASTEIGER

@<TRIPOS>ATOM
      1 C          11.6012   80.7315   25.2651 C.ar    1  UNL1        0.0702
      2 C          12.9770   80.6249   25.0147 C.ar    1  UNL1        0.0191
      3 C          13.7280   81.7657   24.7264 C.ar    1  UNL1        0.0356
      4 C          13.1023   83.0261   24.7026 C.ar    1  UNL1        0.1318
      5 N          11.7687   83.1004   24.9746 N.ar    1  UNL1       -0.2279
      6 C          11.0185   82.0033   25.2578 C.ar    1  UNL1        0.1149
      7 N          13.8468   84.2341   24.4163 N.pl3   1  UNL1       -0.2932
      8 C          14.1938   85.1778   25.4945 C.3     1  UNL1        0.0923
      9 C          14.6734   86.5282   24.9415 C.3     1  UNL1        0.0252
     10 C          13.7779   86.9646   23.7691 C.3     1  UNL1        0.0472
     11 C          13.8124   85.9328   22.6091 C.3     1  UNL1        0.0252
     12 C          14.2866   84.5360   23.0446 C.3     1  UNL1        0.0923
     13 C          14.1720   88.3717   23.2818 C.3     1  UNL1        0.2054
     14 O          13.5315   88.6831   22.0432 O.3     1  UNL1       -0.4750
     15 C          14.1766   88.8806   20.8100 C.ar    1  UNL1        0.1440
     16 C          15.5141   89.3107   20.7267 C.ar    1  UNL1        0.0373
     17 C          16.1152   89.5058   19.4851 C.ar    1  UNL1        0.0033
     18 C          15.4003   89.2661   18.3134 C.ar    1  UNL1        0.0071
     19 C          14.0692   88.8227   18.3661 C.ar    1  UNL1        0.0837
     20 C          13.4536   88.6339   19.6274 C.ar    1  UNL1        0.0702
     21 I          11.4016   88.0856   19.8175 I       1  UNL1       -0.0392
     22 C          13.3608   88.5538   17.0946 C.2     1  UNL1        0.3385
     23 O          13.8385   87.7405   16.2609 O.2     1  UNL1       -0.2451
     24 O          12.1783   89.2208   16.7811 O.3     1  UNL1       -0.4771
     25 H          11.7336   89.8529   17.4357 H       1  UNL1        0.2954
     26 C           9.6597   79.1528   24.8275 C.2     1  UNL1        0.2839
     27 O           9.3488   79.7405   23.7572 O.2     1  UNL1       -0.2665
     28 N          10.7980   79.5857   25.5931 N.am    1  UNL1       -0.2766
     29 H          11.0342   79.0776   26.4731 H       1  UNL1        0.1553
     30 C           7.9799   78.8358   27.5774 C.3     1  UNL1        0.0345
     31 C           8.1331   77.8561   26.4536 C.ar    1  UNL1        0.0202
     32 C           8.8446   78.0030   25.2563 C.ar    1  UNL1        0.1946
     33 O           8.6769   76.9343   24.4972 O.2     1  UNL1       -0.4492
     34 C           7.9145   76.0919   25.1504 C.ar    1  UNL1        0.1452
     35 C           7.4865   74.8374   24.7303 C.ar    1  UNL1        0.0375
     36 C           6.6635   74.0965   25.5966 C.ar    1  UNL1        0.0031
     37 C           6.2822   74.6177   26.8629 C.ar    1  UNL1        0.0002
     38 C           6.7396   75.8998   27.2513 C.ar    1  UNL1        0.0028
     39 C           7.5559   76.6053   26.3670 C.ar    1  UNL1        0.0337
     40 C           5.4126   73.8262   27.7698 C.ar    1  UNL1        0.0000
     41 C           4.6232   74.4667   28.7439 C.ar    1  UNL1        0.0000
     42 C           3.8061   73.7186   29.5973 C.ar    1  UNL1        0.0000
     43 C           3.7668   72.3269   29.4884 C.ar    1  UNL1        0.0000
     44 C           4.5449   71.6798   28.5260 C.ar    1  UNL1        0.0000
     45 C           5.3645   72.4225   27.6706 C.ar    1  UNL1        0.0000
@<TRIPOS>BOND
     1    30    31    1
     2    31    32   ar
     3    32    26    1
     4    26    27    2
     5    26    28   am
     6    28     1    1
     7     1     2   ar
     8     2     3   ar
     9     3     4   ar
    10     4     7    1
    11     7     8    1
    12     8     9    1
    13     9    10    1
    14    10    13    1
    15    13    14    1
    16    14    15    1
    17    15    16   ar
    18    16    17   ar
    19    17    18   ar
    20    18    19   ar
    21    19    22    1
    22    22    23    2
    23    22    24    1
    24    19    20   ar
    25    20    21    1
    26    10    11    1
    27    11    12    1
    28     4     5   ar
    29     5     6   ar
    30    32    33   ar
    31    33    34   ar
    32    34    35   ar
    33    35    36   ar
    34    36    37   ar
    35    37    40    1
    36    40    41   ar
    37    41    42   ar
    38    42    43   ar
    39    43    44   ar
    40    44    45   ar
    41    37    38   ar
    42    38    39   ar
    43    39    31   ar
    44     6     1   ar
    45    39    34   ar
    46    12     7    1
    47    45    40   ar
    48    20    15   ar
    49    28    29    1
    50    24    25    1
@<TRIPOS>MOLECULE
*****
 45 50 0 0 0
SMALL
GASTEIGER

@<TRIPOS>ATOM
      1 C          10.2078   79.7127   23.8985 C.ar    1  UNL1        0.0702
      2 C          10.1056   78.7165   24.8803 C.ar    1  UNL1        0.0191
      3 C           9.4825   77.5026   24.5858 C.ar    1  UNL1        0.0356
      4 C           8.9701   77.2758   23.2948 C.ar    1  UNL1        0.1318
      5 N           9.1068   78.2535   22.3549 N.ar    1  UNL1       -0.2279
      6 C           9.7096   79.4422   22.6195 C.ar    1  UNL1        0.1149
      7 N           8.3245   76.0278   22.9465 N.pl3   1  UNL1       -0.2932
      8 C           8.5777   75.3875   21.6429 C.3     1  UNL1        0.0923
      9 C           7.5582   74.2790   21.3414 C.3     1  UNL1        0.0252
     10 C           6.1444   74.7447   21.7301 C.3     1  UNL1        0.0472
     11 C           6.0501   75.0833   23.2427 C.3     1  UNL1        0.0252
     12 C           7.4146   75.3647   23.8943 C.3     1  UNL1        0.0923
     13 C           5.0967   73.6911   21.3235 C.3     1  UNL1        0.2054
     14 O           3.8233   74.2968   21.0939 O.3     1  UNL1       -0.4750
     15 C           3.5934   75.4809   20.3722 C.ar    1  UNL1        0.1440
     16 C           3.7407   75.5445   18.9740 C.ar    1  UNL1        0.0373
     17 C           3.5145   76.7400   18.2954 C.ar    1  UNL1        0.0033
     18 C           3.1291   77.8821   18.9944 C.ar    1  UNL1        0.0071
     19 C           2.9603   77.8446   20.3877 C.ar    1  UNL1        0.0837
     20 C           3.2001   76.6326   21.0800 C.ar    1  UNL1        0.0702
     21 I           3.0955   76.5008   23.2059 I       1  UNL1       -0.0392
     22 C           2.5216   79.0760   21.0820 C.2     1  UNL1        0.3385
     23 O           1.3075   79.4092   21.0783 O.2     1  UNL1       -0.2451
     24 O           3.4441   79.9053   21.7165 O.3     1  UNL1       -0.4771
     25 H           4.4245   79.6597   21.7818 H       1  UNL1        0.2954
     26 C          12.2695   81.0940   24.4415 C.2     1  UNL1        0.2839
     27 O          13.0230   80.0846   24.4139 O.2     1  UNL1       -0.2665
     28 N          10.8662   80.9647   24.1526 N.am    1  UNL1       -0.2766
     29 H          10.2672   81.8183   24.1789 H       1  UNL1        0.1553
     30 C          13.0665   82.2636   27.3537 C.3     1  UNL1        0.0345
     31 C          13.1943   82.9198   26.0123 C.ar    1  UNL1        0.0202
     32 C          12.8667   82.4044   24.7520 C.ar    1  UNL1        0.1946
     33 O          13.1916   83.2729   23.8105 O.2     1  UNL1       -0.4492
     34 C          13.6894   84.3345   24.3962 C.ar    1  UNL1        0.1452
     35 C          14.1560   85.4951   23.7890 C.ar    1  UNL1        0.0375
     36 C          14.6555   86.5172   24.6152 C.ar    1  UNL1        0.0031
     37 C          14.6814   86.3649   26.0282 C.ar    1  UNL1        0.0002
     38 C          14.1973   85.1664   26.6055 C.ar    1  UNL1        0.0028
     39 C          13.7076   84.1750   25.7550 C.ar    1  UNL1        0.0337
     40 C          15.2112   87.4511   26.8911 C.ar    1  UNL1        0.0000
     41 C          16.2497   88.2854   26.4353 C.ar    1  UNL1        0.0000
     42 C          16.7472   89.3067   27.2506 C.ar    1  UNL1        0.0000
     43 C          16.2153   89.5075   28.5262 C.ar    1  UNL1        0.0000
     44 C          15.1847   88.6868   28.9898 C.ar    1  UNL1        0.0000
     45 C          14.6840   87.6633   28.1794 C.ar    1  UNL1        0.0000
@<TRIPOS>BOND
     1    30    31    1
     2    31    32   ar
     3    32    26    1
     4    26    27    2
     5    26    28   am
     6    28     1    1
     7     1     2   ar
     8     2     3   ar
     9     3     4   ar
    10     4     7    1
    11     7     8    1
    12     8     9    1
    13     9    10    1
    14    10    13    1
    15    13    14    1
    16    14    15    1
    17    15    16   ar
    18    16    17   ar
    19    17    18   ar
    20    18    19   ar
    21    19    22    1
    22    22    23    2
    23    22    24    1
    24    19    20   ar
    25    20    21    1
    26    10    11    1
    27    11    12    1
    28     4     5   ar
    29     5     6   ar
    30    32    33   ar
    31    33    34   ar
    32    34    35   ar
    33    35    36   ar
    34    36    37   ar
    35    37    40    1
    36    40    41   ar
    37    41    42   ar
    38    42    43   ar
    39    43    44   ar
    40    44    45   ar
    41    37    38   ar
    42    38    39   ar
    43    39    31   ar
    44     6     1   ar
    45    39    34   ar
    46    12     7    1
    47    45    40   ar
    48    20    15   ar
    49    28    29    1
    50    24    25    1
@<TRIPOS>MOLECULE
*****
 45 50 0 0 0
SMALL
GASTEIGER

@<TRIPOS>ATOM
      1 C          11.5548   80.6809   24.2055 C.ar    1  UNL1        0.0702
      2 C          10.1571   80.7291   24.1006 C.ar    1  UNL1        0.0191
      3 C           9.3896   79.6123   24.4356 C.ar    1  UNL1        0.0356
      4 C          10.0226   78.4418   24.8938 C.ar    1  UNL1        0.1318
      5 N          11.3808   78.4340   25.0088 N.ar    1  UNL1       -0.2279
      6 C          12.1475   79.5093   24.6885 C.ar    1  UNL1        0.1149
      7 N           9.2627   77.2653   25.2594 N.pl3   1  UNL1       -0.2932
      8 C           9.8062   75.9151   25.0248 C.3     1  UNL1        0.0923
      9 C           8.7272   74.8309   25.1641 C.3     1  UNL1        0.0252
     10 C           7.4292   75.2891   24.4769 C.3     1  UNL1        0.0472
     11 C           6.8788   76.5963   25.1091 C.3     1  UNL1        0.0252
     12 C           7.9382   77.3941   25.8881 C.3     1  UNL1        0.0923
     13 C           6.3765   74.1648   24.5042 C.3     1  UNL1        0.2054
     14 O           5.2934   74.4554   23.6190 O.3     1  UNL1       -0.4750
     15 C           5.3609   74.4760   22.2151 C.ar    1  UNL1        0.1440
     16 C           6.1821   73.5899   21.4932 C.ar    1  UNL1        0.0373
     17 C           6.2302   73.6487   20.1021 C.ar    1  UNL1        0.0033
     18 C           5.4564   74.5793   19.4116 C.ar    1  UNL1        0.0071
     19 C           4.6171   75.4662   20.1046 C.ar    1  UNL1        0.0837
     20 C           4.5751   75.4144   21.5192 C.ar    1  UNL1        0.0702
     21 I           3.4324   76.7977   22.6716 I       1  UNL1       -0.0392
     22 C           3.7925   76.4169   19.3254 C.2     1  UNL1        0.3385
     23 O           2.5437   76.2708   19.2619 O.2     1  UNL1       -0.2451
     24 O           4.3835   77.4630   18.6198 O.3     1  UNL1       -0.4771
     25 H           5.3782   77.6461   18.6725 H       1  UNL1        0.2954
     26 C          12.8046   82.7915   24.8664 C.2     1  UNL1        0.2839
     27 O          12.5204   82.6464   26.0853 O.2     1  UNL1       -0.2665
     28 N          12.3791   81.8172   23.8973 N.am    1  UNL1       -0.2766
     29 H          12.6325   81.9611   22.8957 H       1  UNL1        0.1553
     30 C          15.4329   82.8515   22.9763 C.3     1  UNL1        0.0345
     31 C          14.7481   83.9918   23.6671 C.ar    1  UNL1        0.0202
     32 C          13.6000   83.9660   24.4687 C.ar    1  UNL1        0.1946
     33 O          13.2781   85.1938   24.8362 O.2     1  UNL1       -0.4492
     34 C          14.1718   86.0114   24.3358 C.ar    1  UNL1        0.1452
     35 C          14.2259   87.3939   24.4754 C.ar    1  UNL1        0.0375
     36 C          15.2792   88.0801   23.8459 C.ar    1  UNL1        0.0031
     37 C          16.2574   87.3784   23.0900 C.ar    1  UNL1        0.0002
     38 C          16.1645   85.9707   22.9725 C.ar    1  UNL1        0.0028
     39 C          15.1071   85.3234   23.6119 C.ar    1  UNL1        0.0337
     40 C          17.3657   88.1136   22.4294 C.ar    1  UNL1        0.0000
     41 C          18.6305   88.2028   23.0415 C.ar    1  UNL1        0.0000
     42 C          19.6719   88.8967   22.4175 C.ar    1  UNL1        0.0000
     43 C          19.4642   89.5073   21.1788 C.ar    1  UNL1        0.0000
     44 C          18.2142   89.4259   20.5613 C.ar    1  UNL1        0.0000
     45 C          17.1689   88.7342   21.1810 C.ar    1  UNL1        0.0000
@<TRIPOS>BOND
     1    30    31    1
     2    31    32   ar
     3    32    26    1
     4    26    27    2
     5    26    28   am
     6    28     1    1
     7     1     2   ar
     8     2     3   ar
     9     3     4   ar
    10     4     7    1
    11     7     8    1
    12     8     9    1
    13     9    10    1
    14    10    13    1
    15    13    14    1
    16    14    15    1
    17    15    16   ar
    18    16    17   ar
    19    17    18   ar
    20    18    19   ar
    21    19    22    1
    22    22    23    2
    23    22    24    1
    24    19    20   ar
    25    20    21    1
    26    10    11    1
    27    11    12    1
    28     4     5   ar
    29     5     6   ar
    30    32    33   ar
    31    33    34   ar
    32    34    35   ar
    33    35    36   ar
    34    36    37   ar
    35    37    40    1
    36    40    41   ar
    37    41    42   ar
    38    42    43   ar
    39    43    44   ar
    40    44    45   ar
    41    37    38   ar
    42    38    39   ar
    43    39    31   ar
    44     6     1   ar
    45    39    34   ar
    46    12     7    1
    47    45    40   ar
    48    20    15   ar
    49    28    29    1
    50    24    25    1
@<TRIPOS>MOLECULE
*****
 45 50 0 0 0
SMALL
GASTEIGER

@<TRIPOS>ATOM
      1 C          11.7056   81.1181   25.6031 C.ar    1  UNL1        0.0702
      2 C          13.0819   81.2790   25.8196 C.ar    1  UNL1        0.0191
      3 C          13.7733   82.3188   25.1955 C.ar    1  UNL1        0.0356
      4 C          13.0812   83.2148   24.3595 C.ar    1  UNL1        0.1318
      5 N          11.7393   83.0474   24.1886 N.ar    1  UNL1       -0.2279
      6 C          11.0463   82.0428   24.7861 C.ar    1  UNL1        0.1149
      7 N          13.7595   84.3109   23.7007 N.pl3   1  UNL1       -0.2932
      8 C          15.0122   84.0831   22.9574 C.3     1  UNL1        0.0923
      9 C          15.7326   85.4000   22.6318 C.3     1  UNL1        0.0252
     10 C          15.6991   86.3342   23.8537 C.3     1  UNL1        0.0472
     11 C          14.2431   86.6758   24.2718 C.3     1  UNL1        0.0252
     12 C          13.2026   85.6725   23.7461 C.3     1  UNL1        0.0923
     13 C          16.5200   87.6091   23.5827 C.3     1  UNL1        0.2054
     14 O          15.7723   88.5437   22.8024 O.3     1  UNL1       -0.4750
     15 C          15.2109   88.2967   21.5376 C.ar    1  UNL1        0.1440
     16 C          15.9705   87.7823   20.4703 C.ar    1  UNL1        0.0373
     17 C          15.3804   87.5613   19.2278 C.ar    1  UNL1        0.0033
     18 C          14.0285   87.8375   19.0336 C.ar    1  UNL1        0.0071
     19 C          13.2428   88.3377   20.0841 C.ar    1  UNL1        0.0837
     20 C          13.8439   88.5726   21.3447 C.ar    1  UNL1        0.0702
     21 I          12.7718   89.4477   22.9672 I       1  UNL1       -0.0392
     22 C          11.8051   88.5879   19.8370 C.2     1  UNL1        0.3385
     23 O          11.4454   89.5018   19.0493 O.2     1  UNL1       -0.2451
     24 O          10.8274   87.8464   20.4973 O.3     1  UNL1       -0.4771
     25 H          11.0661   87.0749   21.1084 H       1  UNL1        0.2954
     26 C          11.1736   78.6725   26.0382 C.2     1  UNL1        0.2839
     27 O          12.1197   78.2774   25.3059 O.2     1  UNL1       -0.2665
     28 N          10.9518   80.0783   26.2482 N.am    1  UNL1       -0.2766
     29 H          10.1634   80.3762   26.8629 H       1  UNL1        0.1553
     30 C           8.0257   78.1132   25.5259 C.3     1  UNL1        0.0345
     31 C           8.9564   77.4300   26.4815 C.ar    1  UNL1        0.0202
     32 C          10.3222   77.6607   26.6877 C.ar    1  UNL1        0.1946
     33 O          10.7969   76.8017   27.5727 O.2     1  UNL1       -0.4492
     34 C           9.8048   76.0428   27.9696 C.ar    1  UNL1        0.1452
     35 C           9.8497   75.0087   28.8980 C.ar    1  UNL1        0.0375
     36 C           8.6570   74.3176   29.1744 C.ar    1  UNL1        0.0031
     37 C           7.4437   74.6680   28.5220 C.ar    1  UNL1        0.0002
     38 C           7.4423   75.7271   27.5827 C.ar    1  UNL1        0.0028
     39 C           8.6437   76.3913   27.3350 C.ar    1  UNL1        0.0337
     40 C           6.1897   73.9312   28.8218 C.ar    1  UNL1        0.0000
     41 C           5.3620   74.3310   29.8882 C.ar    1  UNL1        0.0000
     42 C           4.1823   73.6344   30.1688 C.ar    1  UNL1        0.0000
     43 C           3.8157   72.5345   29.3903 C.ar    1  UNL1        0.0000
     44 C           4.6282   72.1280   28.3296 C.ar    1  UNL1        0.0000
     45 C           5.8093   72.8202   28.0450 C.ar    1  UNL1        0.0000
@<TRIPOS>BOND
     1    30    31    1
     2    31    32   ar
     3    32    26    1
     4    26    27    2
     5    26    28   am
     6    28     1    1
     7     1     2   ar
     8     2     3   ar
     9     3     4   ar
    10     4     7    1
    11     7     8    1
    12     8     9    1
    13     9    10    1
    14    10    13    1
    15    13    14    1
    16    14    15    1
    17    15    16   ar
    18    16    17   ar
    19    17    18   ar
    20    18    19   ar
    21    19    22    1
    22    22    23    2
    23    22    24    1
    24    19    20   ar
    25    20    21    1
    26    10    11    1
    27    11    12    1
    28     4     5   ar
    29     5     6   ar
    30    32    33   ar
    31    33    34   ar
    32    34    35   ar
    33    35    36   ar
    34    36    37   ar
    35    37    40    1
    36    40    41   ar
    37    41    42   ar
    38    42    43   ar
    39    43    44   ar
    40    44    45   ar
    41    37    38   ar
    42    38    39   ar
    43    39    31   ar
    44     6     1   ar
    45    39    34   ar
    46    12     7    1
    47    45    40   ar
    48    20    15   ar
    49    28    29    1
    50    24    25    1
@<TRIPOS>MOLECULE
*****
 45 50 0 0 0
SMALL
GASTEIGER

@<TRIPOS>ATOM
      1 C          11.0501   80.3674   23.8955 C.ar    1  UNL1        0.0702
      2 C          11.4328   79.4074   24.8437 C.ar    1  UNL1        0.0191
      3 C          10.6532   78.2664   25.0406 C.ar    1  UNL1        0.0356
      4 C           9.4890   78.0749   24.2734 C.ar    1  UNL1        0.1318
      5 N           9.1568   79.0134   23.3423 N.ar    1  UNL1       -0.2279
      6 C           9.9008   80.1312   23.1337 C.ar    1  UNL1        0.1149
      7 N           8.6580   76.9016   24.4409 N.pl3   1  UNL1       -0.2932
      8 C           7.2161   76.9508   24.1373 C.3     1  UNL1        0.0923
      9 C           6.4714   75.7283   24.6943 C.3     1  UNL1        0.0252
     10 C           6.9680   75.4124   26.1158 C.3     1  UNL1        0.0472
     11 C           8.4881   75.0955   26.1326 C.3     1  UNL1        0.0252
     12 C           9.2398   75.6309   24.9022 C.3     1  UNL1        0.0923
     13 C           6.1474   74.2640   26.7328 C.3     1  UNL1        0.2054
     14 O           5.3874   74.7216   27.8528 O.3     1  UNL1       -0.4750
     15 C           5.3974   76.0261   28.3764 C.ar    1  UNL1        0.1440
     16 C           4.7409   77.0935   27.7358 C.ar    1  UNL1        0.0373
     17 C           4.7830   78.3751   28.2805 C.ar    1  UNL1        0.0033
     18 C           5.4670   78.6097   29.4715 C.ar    1  UNL1        0.0071
     19 C           6.1190   77.5613   30.1400 C.ar    1  UNL1        0.0837
     20 C           6.0857   76.2600   29.5821 C.ar    1  UNL1        0.0702
     21 I           7.1472   74.6265   30.4493 I       1  UNL1       -0.0392
     22 C           6.8075   77.8544   31.4171 C.2     1  UNL1        0.3385
     23 O           7.8189   78.6038   31.4361 O.2     1  UNL1       -0.2451
     24 O           6.3749   77.2789   32.6100 O.3     1  UNL1       -0.4771
     25 H           5.5431   76.7027   32.6526 H       1  UNL1        0.2954
     26 C          12.3954   82.3770   24.6732 C.2     1  UNL1        0.2839
     27 O          12.2686   82.0640   25.8870 O.2     1  UNL1       -0.2665
     28 N          11.8393   81.5416   23.6426 N.am    1  UNL1       -0.2766
     29 H          11.9634   81.8235   22.6459 H       1  UNL1        0.1553
     30 C          15.3416   82.5934   23.3476 C.3     1  UNL1        0.0345
     31 C          14.4269   83.6968   23.7856 C.ar    1  UNL1        0.0202
     32 C          13.1449   83.6011   24.3411 C.ar    1  UNL1        0.1946
     33 O          12.6425   84.8090   24.5285 O.2     1  UNL1       -0.4492
     34 C          13.5417   85.6828   24.1470 C.ar    1  UNL1        0.1452
     35 C          13.4385   87.0693   24.1733 C.ar    1  UNL1        0.0375
     36 C          14.5320   87.8213   23.7093 C.ar    1  UNL1        0.0031
     37 C          15.7058   87.1802   23.2279 C.ar    1  UNL1        0.0002
     38 C          15.7688   85.7660   23.2176 C.ar    1  UNL1        0.0028
     39 C          14.6658   85.0527   23.6872 C.ar    1  UNL1        0.0337
     40 C          16.8547   87.9847   22.7401 C.ar    1  UNL1        0.0000
     41 C          16.8802   88.4682   21.4181 C.ar    1  UNL1        0.0000
     42 C          17.9640   89.2246   20.9614 C.ar    1  UNL1        0.0000
     43 C          19.0316   89.5071   21.8162 C.ar    1  UNL1        0.0000
     44 C          19.0181   89.0334   23.1299 C.ar    1  UNL1        0.0000
     45 C          17.9375   88.2757   23.5918 C.ar    1  UNL1        0.0000
@<TRIPOS>BOND
     1    30    31    1
     2    31    32   ar
     3    32    26    1
     4    26    27    2
     5    26    28   am
     6    28     1    1
     7     1     2   ar
     8     2     3   ar
     9     3     4   ar
    10     4     7    1
    11     7     8    1
    12     8     9    1
    13     9    10    1
    14    10    13    1
    15    13    14    1
    16    14    15    1
    17    15    16   ar
    18    16    17   ar
    19    17    18   ar
    20    18    19   ar
    21    19    22    1
    22    22    23    2
    23    22    24    1
    24    19    20   ar
    25    20    21    1
    26    10    11    1
    27    11    12    1
    28     4     5   ar
    29     5     6   ar
    30    32    33   ar
    31    33    34   ar
    32    34    35   ar
    33    35    36   ar
    34    36    37   ar
    35    37    40    1
    36    40    41   ar
    37    41    42   ar
    38    42    43   ar
    39    43    44   ar
    40    44    45   ar
    41    37    38   ar
    42    38    39   ar
    43    39    31   ar
    44     6     1   ar
    45    39    34   ar
    46    12     7    1
    47    45    40   ar
    48    20    15   ar
    49    28    29    1
    50    24    25    1
@<TRIPOS>MOLECULE
*****
 45 50 0 0 0
SMALL
GASTEIGER

@<TRIPOS>ATOM
      1 C          10.2880   79.9085   24.3089 C.ar    1  UNL1        0.0702
      2 C          11.6215   79.4808   24.3841 C.ar    1  UNL1        0.0191
      3 C          12.6165   80.3588   24.8174 C.ar    1  UNL1        0.0356
      4 C          12.2744   81.6712   25.1934 C.ar    1  UNL1        0.1318
      5 N          10.9663   82.0496   25.1332 N.ar    1  UNL1       -0.2279
      6 C           9.9817   81.2119   24.7148 C.ar    1  UNL1        0.1149
      7 N          13.2746   82.6096   25.6562 N.pl3   1  UNL1       -0.2932
      8 C          13.6417   82.6761   27.0825 C.3     1  UNL1        0.0923
      9 C          14.4512   83.9403   27.4074 C.3     1  UNL1        0.0252
     10 C          13.8364   85.1566   26.6937 C.3     1  UNL1        0.0472
     11 C          13.8338   84.9730   25.1516 C.3     1  UNL1        0.0252
     12 C          13.9573   83.5053   24.7087 C.3     1  UNL1        0.0923
     13 C          14.5647   86.4503   27.1045 C.3     1  UNL1        0.2054
     14 O          15.0067   87.1763   25.9561 O.3     1  UNL1       -0.4750
     15 C          16.1915   87.9270   25.8629 C.ar    1  UNL1        0.1440
     16 C          16.7277   88.6171   26.9660 C.ar    1  UNL1        0.0373
     17 C          17.8987   89.3598   26.8309 C.ar    1  UNL1        0.0033
     18 C          18.5561   89.4171   25.6037 C.ar    1  UNL1        0.0071
     19 C          18.0521   88.7271   24.4897 C.ar    1  UNL1        0.0837
     20 C          16.8563   87.9802   24.6230 C.ar    1  UNL1        0.0702
     21 I          15.9398   87.0010   22.9651 I       1  UNL1       -0.0392
     22 C          18.8018   88.7949   23.2152 C.2     1  UNL1        0.3385
     23 O          18.3747   89.4997   22.2636 O.2     1  UNL1       -0.2451
     24 O          19.9674   88.0536   23.0321 O.3     1  UNL1       -0.4771
     25 H          20.3725   87.5044   23.7805 H       1  UNL1        0.2954
     26 C           9.0584   78.5509   22.5487 C.2     1  UNL1        0.2839
     27 O           9.9001   78.8392   21.6565 O.2     1  UNL1       -0.2665
     28 N           9.2302   79.0280   23.8949 N.am    1  UNL1       -0.2766
     29 H           8.5197   78.7700   24.6138 H       1  UNL1        0.1553
     30 C           6.5342   79.3250   20.6744 C.3     1  UNL1        0.0345
     31 C           6.8128   78.0365   21.3874 C.ar    1  UNL1        0.0202
     32 C           7.9149   77.6975   22.1821 C.ar    1  UNL1        0.1946
     33 O           7.8180   76.4397   22.5759 O.2     1  UNL1       -0.4492
     34 C           6.6982   75.9535   22.0989 C.ar    1  UNL1        0.1452
     35 C           6.1925   74.6696   22.2704 C.ar    1  UNL1        0.0375
     36 C           4.9639   74.3576   21.6623 C.ar    1  UNL1        0.0031
     37 C           4.2628   75.3279   20.8957 C.ar    1  UNL1        0.0002
     38 C           4.8138   76.6233   20.7457 C.ar    1  UNL1        0.0028
     39 C           6.0335   76.8975   21.3646 C.ar    1  UNL1        0.0337
     40 C           2.9657   74.9872   20.2580 C.ar    1  UNL1        0.0000
     41 C           2.3401   75.8927   19.3800 C.ar    1  UNL1        0.0000
     42 C           1.1181   75.5694   18.7819 C.ar    1  UNL1        0.0000
     43 C           0.5084   74.3423   19.0515 C.ar    1  UNL1        0.0000
     44 C           1.1191   73.4355   19.9205 C.ar    1  UNL1        0.0000
     45 C           2.3405   73.7536   20.5222 C.ar    1  UNL1        0.0000
@<TRIPOS>BOND
     1    30    31    1
     2    31    32   ar
     3    32    26    1
     4    26    27    2
     5    26    28   am
     6    28     1    1
     7     1     2   ar
     8     2     3   ar
     9     3     4   ar
    10     4     7    1
    11     7     8    1
    12     8     9    1
    13     9    10    1
    14    10    13    1
    15    13    14    1
    16    14    15    1
    17    15    16   ar
    18    16    17   ar
    19    17    18   ar
    20    18    19   ar
    21    19    22    1
    22    22    23    2
    23    22    24    1
    24    19    20   ar
    25    20    21    1
    26    10    11    1
    27    11    12    1
    28     4     5   ar
    29     5     6   ar
    30    32    33   ar
    31    33    34   ar
    32    34    35   ar
    33    35    36   ar
    34    36    37   ar
    35    37    40    1
    36    40    41   ar
    37    41    42   ar
    38    42    43   ar
    39    43    44   ar
    40    44    45   ar
    41    37    38   ar
    42    38    39   ar
    43    39    31   ar
    44     6     1   ar
    45    39    34   ar
    46    12     7    1
    47    45    40   ar
    48    20    15   ar
    49    28    29    1
    50    24    25    1
