@<TRIPOS>MOLECULE
*****
 36 41 0 0 0
SMALL
GASTEIGER

@<TRIPOS>ATOM
      1 C          51.3293   12.5907  -25.1729 C.ar    1  UNL1        0.1395
      2 N          52.6903   12.7163  -25.2169 N.ar    1  UNL1       -0.2088
      3 C          53.4663   11.9336  -26.0282 C.ar    1  UNL1        0.2014
      4 N          52.8934   11.0011  -26.8414 N.ar    1  UNL1       -0.2050
      5 C          51.5475   10.8583  -26.8012 C.ar    1  UNL1        0.1654
      6 C          50.7500   11.5944  -25.9736 C.ar    1  UNL1        0.0866
      7 C          49.4688   11.0979  -26.2125 C.ar    1  UNL1        0.1095
      8 N          49.5407   10.1318  -27.1617 N.ar    1  UNL1       -0.1677
      9 N          50.8104   10.0008  -27.5221 N.ar    1  UNL1       -0.2319
     10 C          51.2974    9.0056  -28.4677 C.3     1  UNL1        0.1554
     11 C          48.2132   11.4223  -25.5260 C.ar    1  UNL1        0.0577
     12 C          48.0425   11.4685  -24.1579 C.ar    1  UNL1        0.1231
     13 N          46.7770   11.8306  -23.8807 N.ar    1  UNL1       -0.1676
     14 N          46.1466   12.0357  -25.0275 N.ar    1  UNL1       -0.2488
     15 C          44.7611   12.4911  -25.0824 C.3     1  UNL1        0.1537
     16 C          46.9882   11.7946  -26.0639 C.ar    1  UNL1        0.0809
     17 C          46.6841   12.0149  -27.5026 C.ar    1  UNL1        0.0174
     18 C          46.3587   13.2939  -27.9831 C.ar    1  UNL1        0.0012
     19 C          46.0437   13.4901  -29.3303 C.ar    1  UNL1       -0.0042
     20 C          46.0655   12.4125  -30.2260 C.ar    1  UNL1       -0.0218
     21 C          45.6796   12.6143  -31.6612 C.3     1  UNL1        0.0310
     22 C          46.3866   11.1330  -29.7533 C.ar    1  UNL1       -0.0042
     23 C          46.7044   10.9379  -28.4066 C.ar    1  UNL1        0.0012
     24 C          50.0190   14.7601  -24.8345 C.3     1  UNL1        0.2081
     25 C          49.5452   15.5282  -23.5689 C.3     1  UNL1        0.1064
     26 C          49.7399   14.5290  -22.4099 C.3     1  UNL1        0.0418
     27 C          50.6763   13.4528  -22.9140 C.3     1  UNL1        0.0959
     28 N          50.5672   13.4936  -24.3564 N.pl3   1  UNL1       -0.2703
     29 N          48.1313   15.9994  -23.6660 N.3     1  UNL1       -0.2703
     30 C          47.4744   15.4800  -24.8919 C.3     1  UNL1        0.0722
     31 C          45.9941   15.8763  -24.9226 C.3     1  UNL1        0.0174
     32 C          45.8437   17.3954  -24.8707 C.3     1  UNL1        0.0029
     33 C          46.6088   17.9622  -23.6762 C.3     1  UNL1        0.0174
     34 C          48.0649   17.4841  -23.6948 C.3     1  UNL1        0.0722
     35 C          50.5179   16.3737  -26.4542 C.3     1  UNL1        0.1761
     36 O          51.0445   15.5110  -25.4695 O.3     1  UNL1       -0.3337
@<TRIPOS>BOND
     1    35    36    1
     2    36    24    1
     3    24    25    1
     4    25    29    1
     5    29    30    1
     6    30    31    1
     7    31    32    1
     8    32    33    1
     9    33    34    1
    10    25    26    1
    11    26    27    1
    12    27    28    1
    13    28     1    1
    14     1     2   ar
    15     2     3   ar
    16     3     4   ar
    17     4     5   ar
    18     5     6   ar
    19     6     7   ar
    20     7    11    1
    21    11    12   ar
    22    12    13   ar
    23    13    14   ar
    24    14    15    1
    25    14    16   ar
    26    16    17    1
    27    17    18   ar
    28    18    19   ar
    29    19    20   ar
    30    20    21    1
    31    20    22   ar
    32    22    23   ar
    33     7     8   ar
    34     8     9   ar
    35     9    10    1
    36    28    24    1
    37     6     1   ar
    38    16    11   ar
    39    23    17   ar
    40    34    29    1
    41     9     5   ar
@<TRIPOS>MOLECULE
*****
 36 41 0 0 0
SMALL
GASTEIGER

@<TRIPOS>ATOM
      1 C          49.1546   14.8530  -25.1366 C.ar    1  UNL1        0.1395
      2 N          49.4221   16.0663  -25.7080 N.ar    1  UNL1       -0.2088
      3 C          48.8447   16.4579  -26.8853 C.ar    1  UNL1        0.2014
      4 N          47.9589   15.6423  -27.5250 N.ar    1  UNL1       -0.2050
      5 C          47.6919   14.4335  -26.9764 C.ar    1  UNL1        0.1654
      6 C          48.2820   13.9969  -25.8258 C.ar    1  UNL1        0.0866
      7 C          47.7729   12.7098  -25.6545 C.ar    1  UNL1        0.1095
      8 N          46.9057   12.4415  -26.6622 N.ar    1  UNL1       -0.1677
      9 N          46.8548   13.5024  -27.4565 N.ar    1  UNL1       -0.2319
     10 C          46.0884   13.5664  -28.6937 C.3     1  UNL1        0.1554
     11 C          48.1363   11.7021  -24.6517 C.ar    1  UNL1        0.0577
     12 C          47.4121   11.4141  -23.5136 C.ar    1  UNL1        0.1231
     13 N          48.0174   10.4173  -22.8431 N.ar    1  UNL1       -0.1676
     14 N          49.0891   10.0504  -23.5296 N.ar    1  UNL1       -0.2488
     15 C          49.9483    8.9511  -23.1009 C.3     1  UNL1        0.1537
     16 C          49.2033   10.8133  -24.6456 C.ar    1  UNL1        0.0809
     17 C          50.2143   10.6373  -25.7217 C.ar    1  UNL1        0.0174
     18 C          51.3797   11.4206  -25.7510 C.ar    1  UNL1        0.0012
     19 C          52.3119   11.2724  -26.7814 C.ar    1  UNL1       -0.0042
     20 C          52.1038   10.3251  -27.7928 C.ar    1  UNL1       -0.0218
     21 C          53.0797   10.2006  -28.9248 C.3     1  UNL1        0.0310
     22 C          50.9420    9.5419  -27.7715 C.ar    1  UNL1       -0.0042
     23 C          50.0115    9.6883  -26.7393 C.ar    1  UNL1        0.0012
     24 C          49.0674   14.7569  -22.5830 C.3     1  UNL1        0.2081
     25 C          50.1542   14.5565  -21.4900 C.3     1  UNL1        0.1064
     26 C          51.3981   14.0689  -22.2610 C.3     1  UNL1        0.0418
     27 C          51.1698   14.4086  -23.7176 C.3     1  UNL1        0.0959
     28 N          49.7354   14.5339  -23.8624 N.pl3   1  UNL1       -0.2703
     29 N          49.7438   13.5905  -20.4275 N.3     1  UNL1       -0.2703
     30 C          50.5562   12.3493  -20.4864 C.3     1  UNL1        0.0722
     31 C          50.2034   11.4152  -19.3235 C.3     1  UNL1        0.0174
     32 C          48.7198   11.0532  -19.3566 C.3     1  UNL1        0.0029
     33 C          47.8674   12.3196  -19.4104 C.3     1  UNL1        0.0174
     34 C          48.3119   13.2178  -20.5700 C.3     1  UNL1        0.0722
     35 C          47.2495   16.1885  -22.9320 C.3     1  UNL1        0.1761
     36 O          48.5963   16.0960  -22.5212 O.3     1  UNL1       -0.3337
@<TRIPOS>BOND
     1    35    36    1
     2    36    24    1
     3    24    25    1
     4    25    29    1
     5    29    30    1
     6    30    31    1
     7    31    32    1
     8    32    33    1
     9    33    34    1
    10    25    26    1
    11    26    27    1
    12    27    28    1
    13    28     1    1
    14     1     2   ar
    15     2     3   ar
    16     3     4   ar
    17     4     5   ar
    18     5     6   ar
    19     6     7   ar
    20     7    11    1
    21    11    12   ar
    22    12    13   ar
    23    13    14   ar
    24    14    15    1
    25    14    16   ar
    26    16    17    1
    27    17    18   ar
    28    18    19   ar
    29    19    20   ar
    30    20    21    1
    31    20    22   ar
    32    22    23   ar
    33     7     8   ar
    34     8     9   ar
    35     9    10    1
    36    28    24    1
    37     6     1   ar
    38    16    11   ar
    39    23    17   ar
    40    34    29    1
    41     9     5   ar
@<TRIPOS>MOLECULE
*****
 36 41 0 0 0
SMALL
GASTEIGER

@<TRIPOS>ATOM
      1 C          50.6326   13.7446  -23.9418 C.ar    1  UNL1        0.1395
      2 N          51.7920   14.1125  -23.3169 N.ar    1  UNL1       -0.2088
      3 C          52.8393   13.2455  -23.1597 C.ar    1  UNL1        0.2014
      4 N          52.7613   11.9734  -23.6439 N.ar    1  UNL1       -0.2050
      5 C          51.6155   11.5915  -24.2561 C.ar    1  UNL1        0.1654
      6 C          50.5385   12.4188  -24.3922 C.ar    1  UNL1        0.0866
      7 C          49.5803   11.6226  -25.0191 C.ar    1  UNL1        0.1095
      8 N          50.1101   10.3957  -25.2505 N.ar    1  UNL1       -0.1677
      9 N          51.3546   10.3902  -24.7918 N.ar    1  UNL1       -0.2319
     10 C          52.2245    9.2217  -24.7906 C.3     1  UNL1        0.1554
     11 C          48.1776   11.9332  -25.3172 C.ar    1  UNL1        0.0577
     12 C          47.6514   12.1064  -26.5805 C.ar    1  UNL1        0.1231
     13 N          46.3311   12.3446  -26.4823 N.ar    1  UNL1       -0.1676
     14 N          46.0000   12.3071  -25.2003 N.ar    1  UNL1       -0.2488
     15 C          44.6229   12.4775  -24.7478 C.3     1  UNL1        0.1537
     16 C          47.1018   12.0601  -24.4483 C.ar    1  UNL1        0.0809
     17 C          47.1216   11.8405  -22.9778 C.ar    1  UNL1        0.0174
     18 C          46.7207   12.8542  -22.0920 C.ar    1  UNL1        0.0012
     19 C          46.7702   12.6533  -20.7101 C.ar    1  UNL1       -0.0042
     20 C          47.2056   11.4277  -20.1885 C.ar    1  UNL1       -0.0218
     21 C          47.3054   11.2297  -18.7052 C.3     1  UNL1        0.0310
     22 C          47.6097   10.4126  -21.0661 C.ar    1  UNL1       -0.0042
     23 C          47.5572   10.6129  -22.4481 C.ar    1  UNL1        0.0012
     24 C          49.4805   15.5488  -25.3400 C.3     1  UNL1        0.2081
     25 C          48.4349   16.6481  -25.0020 C.3     1  UNL1        0.1064
     26 C          47.9025   16.2645  -23.6059 C.3     1  UNL1        0.0418
     27 C          48.8975   15.2922  -23.0112 C.3     1  UNL1        0.0959
     28 N          49.6013   14.7240  -24.1408 N.pl3   1  UNL1       -0.2703
     29 N          47.3371   16.7408  -26.0103 N.3     1  UNL1       -0.2703
     30 C          46.2763   15.7369  -25.7441 C.3     1  UNL1        0.0722
     31 C          45.1043   15.9165  -26.7154 C.3     1  UNL1        0.0174
     32 C          45.5795   15.7820  -28.1608 C.3     1  UNL1        0.0029
     33 C          46.7486   16.7294  -28.4237 C.3     1  UNL1        0.0174
     34 C          47.8559   16.5175  -27.3853 C.3     1  UNL1        0.0722
     35 C          50.6567   17.5694  -25.4380 C.3     1  UNL1        0.1761
     36 O          50.7278   16.1712  -25.6148 O.3     1  UNL1       -0.3337
@<TRIPOS>BOND
     1    35    36    1
     2    36    24    1
     3    24    25    1
     4    25    29    1
     5    29    30    1
     6    30    31    1
     7    31    32    1
     8    32    33    1
     9    33    34    1
    10    25    26    1
    11    26    27    1
    12    27    28    1
    13    28     1    1
    14     1     2   ar
    15     2     3   ar
    16     3     4   ar
    17     4     5   ar
    18     5     6   ar
    19     6     7   ar
    20     7    11    1
    21    11    12   ar
    22    12    13   ar
    23    13    14   ar
    24    14    15    1
    25    14    16   ar
    26    16    17    1
    27    17    18   ar
    28    18    19   ar
    29    19    20   ar
    30    20    21    1
    31    20    22   ar
    32    22    23   ar
    33     7     8   ar
    34     8     9   ar
    35     9    10    1
    36    28    24    1
    37     6     1   ar
    38    16    11   ar
    39    23    17   ar
    40    34    29    1
    41     9     5   ar
@<TRIPOS>MOLECULE
*****
 36 41 0 0 0
SMALL
GASTEIGER

@<TRIPOS>ATOM
      1 C          50.1963   15.8428  -25.3816 C.ar    1  UNL1        0.1395
      2 N          51.2595   16.3902  -26.0450 N.ar    1  UNL1       -0.2088
      3 C          51.2346   17.6715  -26.5253 C.ar    1  UNL1        0.2014
      4 N          50.1363   18.4576  -26.3391 N.ar    1  UNL1       -0.2050
      5 C          49.0718   17.9259  -25.6929 C.ar    1  UNL1        0.1654
      6 C          49.0497   16.6391  -25.2383 C.ar    1  UNL1        0.0866
      7 C          47.7727   16.4962  -24.6961 C.ar    1  UNL1        0.1095
      8 N          47.1078   17.6719  -24.8192 N.ar    1  UNL1       -0.1677
      9 N          47.9119   18.5402  -25.4180 N.ar    1  UNL1       -0.2319
     10 C          47.5253   19.8932  -25.7946 C.3     1  UNL1        0.1554
     11 C          47.1289   15.2903  -24.1628 C.ar    1  UNL1        0.0577
     12 C          46.9596   15.0037  -22.8242 C.ar    1  UNL1        0.1231
     13 N          46.3024   13.8365  -22.7001 N.ar    1  UNL1       -0.1676
     14 N          46.0315   13.3851  -23.9156 N.ar    1  UNL1       -0.2488
     15 C          45.2772   12.1555  -24.1379 C.3     1  UNL1        0.1537
     16 C          46.5221   14.2435  -24.8444 C.ar    1  UNL1        0.0809
     17 C          46.3288   14.1395  -26.3151 C.ar    1  UNL1        0.0174
     18 C          45.7725   15.2020  -27.0460 C.ar    1  UNL1        0.0012
     19 C          45.5648   15.0876  -28.4231 C.ar    1  UNL1       -0.0042
     20 C          45.9259   13.9137  -29.0979 C.ar    1  UNL1       -0.0218
     21 C          45.6575   13.7727  -30.5668 C.3     1  UNL1        0.0310
     22 C          46.4791   12.8485  -28.3747 C.ar    1  UNL1       -0.0042
     23 C          46.6894   12.9644  -26.9981 C.ar    1  UNL1        0.0012
     24 C          50.5011   14.2354  -23.4168 C.3     1  UNL1        0.2081
     25 C          50.8746   12.7293  -23.3248 C.3     1  UNL1        0.1064
     26 C          50.7282   12.2019  -24.7671 C.3     1  UNL1        0.0418
     27 C          50.7208   13.4117  -25.6756 C.3     1  UNL1        0.0959
     28 N          50.3148   14.5192  -24.8373 N.pl3   1  UNL1       -0.2703
     29 N          50.0168   11.9717  -22.3653 N.3     1  UNL1       -0.2703
     30 C          48.9514   11.2195  -23.0746 C.3     1  UNL1        0.0722
     31 C          48.1501   10.3584  -22.0920 C.3     1  UNL1        0.0174
     32 C          47.5203   11.2284  -21.0058 C.3     1  UNL1        0.0029
     33 C          48.5862   12.0954  -20.3383 C.3     1  UNL1        0.0174
     34 C          49.3700   12.8883  -21.3899 C.3     1  UNL1        0.0722
     35 C          52.4949   14.2105  -22.1920 C.3     1  UNL1        0.1761
     36 O          51.5839   15.0077  -22.9171 O.3     1  UNL1       -0.3337
@<TRIPOS>BOND
     1    35    36    1
     2    36    24    1
     3    24    25    1
     4    25    29    1
     5    29    30    1
     6    30    31    1
     7    31    32    1
     8    32    33    1
     9    33    34    1
    10    25    26    1
    11    26    27    1
    12    27    28    1
    13    28     1    1
    14     1     2   ar
    15     2     3   ar
    16     3     4   ar
    17     4     5   ar
    18     5     6   ar
    19     6     7   ar
    20     7    11    1
    21    11    12   ar
    22    12    13   ar
    23    13    14   ar
    24    14    15    1
    25    14    16   ar
    26    16    17    1
    27    17    18   ar
    28    18    19   ar
    29    19    20   ar
    30    20    21    1
    31    20    22   ar
    32    22    23   ar
    33     7     8   ar
    34     8     9   ar
    35     9    10    1
    36    28    24    1
    37     6     1   ar
    38    16    11   ar
    39    23    17   ar
    40    34    29    1
    41     9     5   ar
@<TRIPOS>MOLECULE
*****
 36 41 0 0 0
SMALL
GASTEIGER

@<TRIPOS>ATOM
      1 C          47.1077   13.5137  -24.2490 C.ar    1  UNL1        0.1395
      2 N          45.8745   14.0862  -24.3959 N.ar    1  UNL1       -0.2088
      3 C          45.0740   13.8207  -25.4737 C.ar    1  UNL1        0.2014
      4 N          45.4834   12.9507  -26.4404 N.ar    1  UNL1       -0.2050
      5 C          46.7065   12.3838  -26.3137 C.ar    1  UNL1        0.1654
      6 C          47.5451   12.6592  -25.2726 C.ar    1  UNL1        0.0866
      7 C          48.6912   11.9179  -25.5592 C.ar    1  UNL1        0.1095
      8 N          48.4935   11.2287  -26.7105 N.ar    1  UNL1       -0.1677
      9 N          47.2768   11.5108  -27.1568 N.ar    1  UNL1       -0.2319
     10 C          46.7283   11.0190  -28.4135 C.3     1  UNL1        0.1554
     11 C          49.9795   11.9067  -24.8571 C.ar    1  UNL1        0.0577
     12 C          50.6008   10.7839  -24.3509 C.ar    1  UNL1        0.1231
     13 N          51.7779   11.1370  -23.8037 N.ar    1  UNL1       -0.1676
     14 N          51.9322   12.4426  -23.9653 N.ar    1  UNL1       -0.2488
     15 C          53.1348   13.1435  -23.5263 C.3     1  UNL1        0.1537
     16 C          50.8519   12.9573  -24.6045 C.ar    1  UNL1        0.0809
     17 C          50.6976   14.3643  -25.0599 C.ar    1  UNL1        0.0174
     18 C          50.9326   15.4358  -24.1828 C.ar    1  UNL1        0.0012
     19 C          50.7565   16.7555  -24.6070 C.ar    1  UNL1       -0.0042
     20 C          50.3585   17.0286  -25.9226 C.ar    1  UNL1       -0.0218
     21 C          50.1221   18.4426  -26.3631 C.3     1  UNL1        0.0310
     22 C          50.1197   15.9645  -26.8026 C.ar    1  UNL1       -0.0042
     23 C          50.2988   14.6450  -26.3788 C.ar    1  UNL1        0.0012
     24 C          48.1327   12.7785  -22.0250 C.3     1  UNL1        0.2081
     25 C          48.7097   13.5600  -20.8116 C.3     1  UNL1        0.1064
     26 C          48.8700   15.0076  -21.3200 C.3     1  UNL1        0.0418
     27 C          48.0227   15.1285  -22.5676 C.3     1  UNL1        0.0959
     28 N          47.8658   13.7760  -23.0578 N.pl3   1  UNL1       -0.2703
     29 N          50.0013   12.9983  -20.3148 N.3     1  UNL1       -0.2703
     30 C          49.8653   12.4803  -18.9302 C.3     1  UNL1        0.0722
     31 C          51.1638   11.8058  -18.4741 C.3     1  UNL1        0.0174
     32 C          52.3304   12.7899  -18.5357 C.3     1  UNL1        0.0029
     33 C          52.4180   13.4201  -19.9245 C.3     1  UNL1        0.0174
     34 C          51.0702   14.0313  -20.3233 C.3     1  UNL1        0.0722
     35 C          47.0666   10.7671  -21.4834 C.3     1  UNL1        0.1761
     36 O          46.9136   12.1616  -21.6354 O.3     1  UNL1       -0.3337
@<TRIPOS>BOND
     1    35    36    1
     2    36    24    1
     3    24    25    1
     4    25    29    1
     5    29    30    1
     6    30    31    1
     7    31    32    1
     8    32    33    1
     9    33    34    1
    10    25    26    1
    11    26    27    1
    12    27    28    1
    13    28     1    1
    14     1     2   ar
    15     2     3   ar
    16     3     4   ar
    17     4     5   ar
    18     5     6   ar
    19     6     7   ar
    20     7    11    1
    21    11    12   ar
    22    12    13   ar
    23    13    14   ar
    24    14    15    1
    25    14    16   ar
    26    16    17    1
    27    17    18   ar
    28    18    19   ar
    29    19    20   ar
    30    20    21    1
    31    20    22   ar
    32    22    23   ar
    33     7     8   ar
    34     8     9   ar
    35     9    10    1
    36    28    24    1
    37     6     1   ar
    38    16    11   ar
    39    23    17   ar
    40    34    29    1
    41     9     5   ar
@<TRIPOS>MOLECULE
*****
 36 41 0 0 0
SMALL
GASTEIGER

@<TRIPOS>ATOM
      1 C          46.9414   13.5763  -26.8304 C.ar    1  UNL1        0.1395
      2 N          46.1775   14.5301  -27.4443 N.ar    1  UNL1       -0.2088
      3 C          45.6470   14.3437  -28.6920 C.ar    1  UNL1        0.2014
      4 N          45.8553   13.1755  -29.3635 N.ar    1  UNL1       -0.2050
      5 C          46.6182   12.2257  -28.7725 C.ar    1  UNL1        0.1654
      6 C          47.1951   12.3970  -27.5475 C.ar    1  UNL1        0.0866
      7 C          47.9192   11.2216  -27.3498 C.ar    1  UNL1        0.1095
      8 N          47.7349   10.4058  -28.4175 N.ar    1  UNL1       -0.1677
      9 N          46.9315   11.0221  -29.2741 N.ar    1  UNL1       -0.2319
     10 C          46.5615   10.4929  -30.5799 C.3     1  UNL1        0.1554
     11 C          48.8400   10.8801  -26.2595 C.ar    1  UNL1        0.0577
     12 C          48.6310   11.1574  -24.9245 C.ar    1  UNL1        0.1231
     13 N          49.6594   10.6738  -24.2047 N.ar    1  UNL1       -0.1676
     14 N          50.5022   10.0811  -25.0372 N.ar    1  UNL1       -0.2488
     15 C          51.7082    9.4039  -24.5711 C.3     1  UNL1        0.1537
     16 C          50.0413   10.1853  -26.3089 C.ar    1  UNL1        0.0809
     17 C          50.6515    9.5575  -27.5109 C.ar    1  UNL1        0.0174
     18 C          50.0223    8.4831  -28.1609 C.ar    1  UNL1        0.0012
     19 C          50.6150    7.8769  -29.2717 C.ar    1  UNL1       -0.0042
     20 C          51.8405    8.3458  -29.7638 C.ar    1  UNL1       -0.0218
     21 C          52.4999    7.6637  -30.9253 C.3     1  UNL1        0.0310
     22 C          52.4753    9.4157  -29.1187 C.ar    1  UNL1       -0.0042
     23 C          51.8808   10.0235  -28.0097 C.ar    1  UNL1        0.0012
     24 C          46.6072   13.5420  -24.2957 C.3     1  UNL1        0.2081
     25 C          47.3720   14.2023  -23.1146 C.3     1  UNL1        0.1064
     26 C          48.6944   14.6989  -23.7347 C.3     1  UNL1        0.0418
     27 C          48.4906   14.7262  -25.2336 C.3     1  UNL1        0.0959
     28 N          47.4053   13.8041  -25.4904 N.pl3   1  UNL1       -0.2703
     29 N          47.6085   13.2665  -21.9749 N.3     1  UNL1       -0.2703
     30 C          49.0577   13.0077  -21.7834 C.3     1  UNL1        0.0722
     31 C          49.2936   12.1381  -20.5435 C.3     1  UNL1        0.0174
     32 C          48.5529   10.8084  -20.6715 C.3     1  UNL1        0.0029
     33 C          47.0771   11.0526  -20.9815 C.3     1  UNL1        0.0174
     34 C          46.9287   11.9646  -22.2043 C.3     1  UNL1        0.0722
     35 C          44.3058   13.2150  -24.5650 C.3     1  UNL1        0.1761
     36 O          45.3380   14.1672  -24.4268 O.3     1  UNL1       -0.3337
@<TRIPOS>BOND
     1    35    36    1
     2    36    24    1
     3    24    25    1
     4    25    29    1
     5    29    30    1
     6    30    31    1
     7    31    32    1
     8    32    33    1
     9    33    34    1
    10    25    26    1
    11    26    27    1
    12    27    28    1
    13    28     1    1
    14     1     2   ar
    15     2     3   ar
    16     3     4   ar
    17     4     5   ar
    18     5     6   ar
    19     6     7   ar
    20     7    11    1
    21    11    12   ar
    22    12    13   ar
    23    13    14   ar
    24    14    15    1
    25    14    16   ar
    26    16    17    1
    27    17    18   ar
    28    18    19   ar
    29    19    20   ar
    30    20    21    1
    31    20    22   ar
    32    22    23   ar
    33     7     8   ar
    34     8     9   ar
    35     9    10    1
    36    28    24    1
    37     6     1   ar
    38    16    11   ar
    39    23    17   ar
    40    34    29    1
    41     9     5   ar
@<TRIPOS>MOLECULE
*****
 36 41 0 0 0
SMALL
GASTEIGER

@<TRIPOS>ATOM
      1 C          46.8324   11.8709  -23.5635 C.ar    1  UNL1        0.1395
      2 N          45.5406   12.1500  -23.2123 N.ar    1  UNL1       -0.2088
      3 C          44.6088   12.5524  -24.1303 C.ar    1  UNL1        0.2014
      4 N          44.9435   12.6732  -25.4465 N.ar    1  UNL1       -0.2050
      5 C          46.2216   12.4101  -25.8078 C.ar    1  UNL1        0.1654
      6 C          47.1840   12.0468  -24.9107 C.ar    1  UNL1        0.0866
      7 C          48.3379   11.9288  -25.6851 C.ar    1  UNL1        0.1095
      8 N          48.0288   12.1923  -26.9791 N.ar    1  UNL1       -0.1677
      9 N          46.7344   12.4738  -27.0453 N.ar    1  UNL1       -0.2319
     10 C          46.0441   12.8848  -28.2605 C.3     1  UNL1        0.1554
     11 C          49.7164   11.6770  -25.2501 C.ar    1  UNL1        0.0577
     12 C          50.2738   10.4309  -25.0516 C.ar    1  UNL1        0.1231
     13 N          51.5614   10.5734  -24.6892 N.ar    1  UNL1       -0.1676
     14 N          51.8436   11.8675  -24.6722 N.ar    1  UNL1       -0.2488
     15 C          53.1800   12.3677  -24.3655 C.3     1  UNL1        0.1537
     16 C          50.7407   12.5828  -25.0073 C.ar    1  UNL1        0.0809
     17 C          50.6832   14.0559  -25.2008 C.ar    1  UNL1        0.0174
     18 C          50.9752   14.9338  -24.1441 C.ar    1  UNL1        0.0012
     19 C          50.8900   16.3171  -24.3228 C.ar    1  UNL1       -0.0042
     20 C          50.5277   16.8485  -25.5679 C.ar    1  UNL1       -0.0218
     21 C          50.3885   18.3312  -25.7456 C.3     1  UNL1        0.0310
     22 C          50.2324   15.9786  -26.6261 C.ar    1  UNL1       -0.0042
     23 C          50.3206   14.5955  -26.4477 C.ar    1  UNL1        0.0012
     24 C          48.4422   12.2361  -21.6109 C.3     1  UNL1        0.2081
     25 C          49.5204   11.3387  -20.9413 C.3     1  UNL1        0.1064
     26 C          49.2472    9.9236  -21.4914 C.3     1  UNL1        0.0418
     27 C          48.3814   10.0927  -22.7207 C.3     1  UNL1        0.0959
     28 N          47.7410   11.3811  -22.5651 N.pl3   1  UNL1       -0.2703
     29 N          49.4674   11.3756  -19.4492 N.3     1  UNL1       -0.2703
     30 C          48.1300   11.8054  -18.9690 C.3     1  UNL1        0.0722
     31 C          48.0535   11.7305  -17.4400 C.3     1  UNL1        0.0174
     32 C          49.1281   12.6109  -16.8049 C.3     1  UNL1        0.0029
     33 C          50.5026   12.2595  -17.3713 C.3     1  UNL1        0.0174
     34 C          50.4827   12.3140  -18.9028 C.3     1  UNL1        0.0722
     35 C          48.9022   14.5300  -21.6596 C.3     1  UNL1        0.1761
     36 O          49.0915   13.2907  -22.3074 O.3     1  UNL1       -0.3337
@<TRIPOS>BOND
     1    35    36    1
     2    36    24    1
     3    24    25    1
     4    25    29    1
     5    29    30    1
     6    30    31    1
     7    31    32    1
     8    32    33    1
     9    33    34    1
    10    25    26    1
    11    26    27    1
    12    27    28    1
    13    28     1    1
    14     1     2   ar
    15     2     3   ar
    16     3     4   ar
    17     4     5   ar
    18     5     6   ar
    19     6     7   ar
    20     7    11    1
    21    11    12   ar
    22    12    13   ar
    23    13    14   ar
    24    14    15    1
    25    14    16   ar
    26    16    17    1
    27    17    18   ar
    28    18    19   ar
    29    19    20   ar
    30    20    21    1
    31    20    22   ar
    32    22    23   ar
    33     7     8   ar
    34     8     9   ar
    35     9    10    1
    36    28    24    1
    37     6     1   ar
    38    16    11   ar
    39    23    17   ar
    40    34    29    1
    41     9     5   ar
@<TRIPOS>MOLECULE
*****
 36 41 0 0 0
SMALL
GASTEIGER

@<TRIPOS>ATOM
      1 C          50.4091   13.3950  -24.7098 C.ar    1  UNL1        0.1395
      2 N          51.7509   13.6260  -24.8372 N.ar    1  UNL1       -0.2088
      3 C          52.6629   12.6064  -24.8787 C.ar    1  UNL1        0.2014
      4 N          52.2512   11.3084  -24.8090 N.ar    1  UNL1       -0.2050
      5 C          50.9263   11.0645  -24.6725 C.ar    1  UNL1        0.1654
      6 C          49.9961   12.0595  -24.5867 C.ar    1  UNL1        0.0866
      7 C          48.7923   11.3793  -24.4043 C.ar    1  UNL1        0.1095
      8 N          49.0348   10.0449  -24.4127 N.ar    1  UNL1       -0.1677
      9 N          50.3368    9.8630  -24.5878 N.ar    1  UNL1       -0.2319
     10 C          50.9936    8.5628  -24.5759 C.3     1  UNL1        0.1554
     11 C          47.4585   11.9260  -24.1301 C.ar    1  UNL1        0.0577
     12 C          47.0080   12.3448  -22.8955 C.ar    1  UNL1        0.1231
     13 N          45.7548   12.8183  -23.0177 N.ar    1  UNL1       -0.1676
     14 N          45.4047   12.7328  -24.2924 N.ar    1  UNL1       -0.2488
     15 C          44.1143   13.2116  -24.7779 C.3     1  UNL1        0.1537
     16 C          46.4181   12.1887  -25.0117 C.ar    1  UNL1        0.0809
     17 C          46.4484   12.0263  -26.4894 C.ar    1  UNL1        0.0174
     18 C          46.4186   13.1448  -27.3383 C.ar    1  UNL1        0.0012
     19 C          46.4163   12.9857  -28.7266 C.ar    1  UNL1       -0.0042
     20 C          46.4614   11.7042  -29.2918 C.ar    1  UNL1       -0.0218
     21 C          46.4091   11.5321  -30.7808 C.3     1  UNL1        0.0310
     22 C          46.4885   10.5834  -28.4510 C.ar    1  UNL1       -0.0042
     23 C          46.4938   10.7431  -27.0628 C.ar    1  UNL1        0.0012
     24 C          49.3830   15.4257  -25.8765 C.3     1  UNL1        0.2081
     25 C          48.5204   16.6166  -25.3727 C.3     1  UNL1        0.1064
     26 C          48.0648   16.1982  -23.9595 C.3     1  UNL1        0.0418
     27 C          48.9737   15.0699  -23.5239 C.3     1  UNL1        0.0959
     28 N          49.4991   14.5054  -24.7484 N.pl3   1  UNL1       -0.2703
     29 N          47.3612   16.9176  -26.2649 N.3     1  UNL1       -0.2703
     30 C          46.1224   16.2607  -25.7773 C.3     1  UNL1        0.0722
     31 C          44.9194   16.6681  -26.6352 C.3     1  UNL1        0.0174
     32 C          45.1512   16.2931  -28.0976 C.3     1  UNL1        0.0029
     33 C          46.4796   16.8670  -28.5868 C.3     1  UNL1        0.0174
     34 C          47.6212   16.4514  -27.6523 C.3     1  UNL1        0.0722
     35 C          50.7571   17.3096  -26.0740 C.3     1  UNL1        0.1761
     36 O          50.6718   15.9095  -26.2281 O.3     1  UNL1       -0.3337
@<TRIPOS>BOND
     1    35    36    1
     2    36    24    1
     3    24    25    1
     4    25    29    1
     5    29    30    1
     6    30    31    1
     7    31    32    1
     8    32    33    1
     9    33    34    1
    10    25    26    1
    11    26    27    1
    12    27    28    1
    13    28     1    1
    14     1     2   ar
    15     2     3   ar
    16     3     4   ar
    17     4     5   ar
    18     5     6   ar
    19     6     7   ar
    20     7    11    1
    21    11    12   ar
    22    12    13   ar
    23    13    14   ar
    24    14    15    1
    25    14    16   ar
    26    16    17    1
    27    17    18   ar
    28    18    19   ar
    29    19    20   ar
    30    20    21    1
    31    20    22   ar
    32    22    23   ar
    33     7     8   ar
    34     8     9   ar
    35     9    10    1
    36    28    24    1
    37     6     1   ar
    38    16    11   ar
    39    23    17   ar
    40    34    29    1
    41     9     5   ar
@<TRIPOS>MOLECULE
*****
 36 41 0 0 0
SMALL
GASTEIGER

@<TRIPOS>ATOM
      1 C          46.4743   13.6638  -28.1244 C.ar    1  UNL1        0.1395
      2 N          45.9064   14.2684  -29.2117 N.ar    1  UNL1       -0.2088
      3 C          45.6443   13.5854  -30.3683 C.ar    1  UNL1        0.2014
      4 N          45.9322   12.2562  -30.4658 N.ar    1  UNL1       -0.2050
      5 C          46.5042   11.6463  -29.4008 C.ar    1  UNL1        0.1654
      6 C          46.8157   12.3084  -28.2487 C.ar    1  UNL1        0.0866
      7 C          47.4222   11.3348  -27.4552 C.ar    1  UNL1        0.1095
      8 N          47.4285   10.1581  -28.1296 N.ar    1  UNL1       -0.1677
      9 N          46.8568   10.3557  -29.3100 N.ar    1  UNL1       -0.2319
     10 C          46.7467    9.3412  -30.3495 C.3     1  UNL1        0.1554
     11 C          48.0724   11.4863  -26.1486 C.ar    1  UNL1        0.0577
     12 C          47.4321   11.8266  -24.9751 C.ar    1  UNL1        0.1231
     13 N          48.3262   11.8415  -23.9701 N.ar    1  UNL1       -0.1676
     14 N          49.5071   11.5014  -24.4643 N.ar    1  UNL1       -0.2488
     15 C          50.6934   11.3718  -23.6239 C.3     1  UNL1        0.1537
     16 C          49.3997   11.2767  -25.7979 C.ar    1  UNL1        0.0809
     17 C          50.4810   10.7749  -26.6867 C.ar    1  UNL1        0.0174
     18 C          51.6607   11.5137  -26.8747 C.ar    1  UNL1        0.0012
     19 C          52.6606   11.0524  -27.7348 C.ar    1  UNL1       -0.0042
     20 C          52.5064    9.8342  -28.4101 C.ar    1  UNL1       -0.0218
     21 C          53.5577    9.3636  -29.3707 C.3     1  UNL1        0.0310
     22 C          51.3309    9.0930  -28.2295 C.ar    1  UNL1       -0.0042
     23 C          50.3325    9.5532  -27.3670 C.ar    1  UNL1        0.0012
     24 C          47.8775   15.1421  -26.5806 C.3     1  UNL1        0.2081
     25 C          47.7408   15.5484  -25.0865 C.3     1  UNL1        0.1064
     26 C          46.3093   15.1260  -24.6964 C.3     1  UNL1        0.0418
     27 C          45.8406   14.1467  -25.7502 C.3     1  UNL1        0.0959
     28 N          46.6539   14.4186  -26.9159 N.pl3   1  UNL1       -0.2703
     29 N          47.9746   17.0048  -24.8528 N.3     1  UNL1       -0.2703
     30 C          46.7375   17.6799  -24.3858 C.3     1  UNL1        0.0722
     31 C          47.0178   19.1470  -24.0419 C.3     1  UNL1        0.0174
     32 C          47.5721   19.8870  -25.2578 C.3     1  UNL1        0.0029
     33 C          48.7815   19.1445  -25.8229 C.3     1  UNL1        0.0174
     34 C          48.4317   17.6777  -26.0970 C.3     1  UNL1        0.0722
     35 C          50.0980   14.7303  -25.9677 C.3     1  UNL1        0.1761
     36 O          48.9943   14.2748  -26.7196 O.3     1  UNL1       -0.3337
@<TRIPOS>BOND
     1    35    36    1
     2    36    24    1
     3    24    25    1
     4    25    29    1
     5    29    30    1
     6    30    31    1
     7    31    32    1
     8    32    33    1
     9    33    34    1
    10    25    26    1
    11    26    27    1
    12    27    28    1
    13    28     1    1
    14     1     2   ar
    15     2     3   ar
    16     3     4   ar
    17     4     5   ar
    18     5     6   ar
    19     6     7   ar
    20     7    11    1
    21    11    12   ar
    22    12    13   ar
    23    13    14   ar
    24    14    15    1
    25    14    16   ar
    26    16    17    1
    27    17    18   ar
    28    18    19   ar
    29    19    20   ar
    30    20    21    1
    31    20    22   ar
    32    22    23   ar
    33     7     8   ar
    34     8     9   ar
    35     9    10    1
    36    28    24    1
    37     6     1   ar
    38    16    11   ar
    39    23    17   ar
    40    34    29    1
    41     9     5   ar
