@<TRIPOS>MOLECULE
*****
 46 51 0 0 0
SMALL
GASTEIGER

@<TRIPOS>ATOM
      1 C         -63.6019  -51.6127  -24.3475 C.ar    1  UNL1        0.0702
      2 C         -63.0767  -52.4183  -23.3304 C.ar    1  UNL1        0.0191
      3 C         -63.8763  -53.3781  -22.7081 C.ar    1  UNL1        0.0356
      4 C         -65.2112  -53.5415  -23.1168 C.ar    1  UNL1        0.1318
      5 N         -65.6909  -52.7641  -24.1282 N.ar    1  UNL1       -0.2279
      6 C         -64.9317  -51.8213  -24.7462 C.ar    1  UNL1        0.1149
      7 N         -66.0714  -54.5238  -22.4985 N.pl3   1  UNL1       -0.2932
      8 C         -67.5114  -54.2531  -22.3675 C.3     1  UNL1        0.0923
      9 C         -68.3055  -55.5583  -22.4797 C.3     1  UNL1        0.0252
     10 C         -67.8597  -56.6258  -21.4433 C.3     1  UNL1        0.0472
     11 C         -66.4535  -56.3467  -20.8601 C.3     1  UNL1        0.0252
     12 C         -65.5064  -55.7482  -21.9056 C.3     1  UNL1        0.0923
     13 C         -68.8950  -56.7638  -20.3147 C.3     1  UNL1        0.2054
     14 O         -68.8019  -55.6500  -19.4283 O.3     1  UNL1       -0.4755
     15 C         -68.6623  -55.7524  -18.0365 C.ar    1  UNL1        0.1388
     16 C         -69.7202  -56.1535  -17.2000 C.ar    1  UNL1        0.0369
     17 C         -69.5294  -56.2388  -15.8194 C.ar    1  UNL1        0.0033
     18 C         -68.2883  -55.9269  -15.2597 C.ar    1  UNL1        0.0066
     19 C         -67.2197  -55.5245  -16.0800 C.ar    1  UNL1        0.0785
     20 C         -67.4200  -55.4412  -17.4696 C.ar    1  UNL1        0.0433
     21 C         -65.9023  -55.1924  -15.4939 C.2     1  UNL1        0.3381
     22 O         -65.7978  -54.2734  -14.6369 O.2     1  UNL1       -0.2451
     23 O         -64.7636  -55.8929  -15.8837 O.3     1  UNL1       -0.4771
     24 H         -63.8569  -55.6736  -15.4887 H       1  UNL1        0.2954
     25 C         -62.9170  -49.2241  -24.8517 C.2     1  UNL1        0.2839
     26 O         -63.4812  -48.7519  -23.8284 O.2     1  UNL1       -0.2665
     27 N         -62.7600  -50.6437  -24.9958 N.am    1  UNL1       -0.2766
     28 H         -61.9253  -50.9899  -25.5205 H       1  UNL1        0.1553
     29 C         -61.8204  -46.4731  -28.8927 C.ar    1  UNL1        0.1413
     30 C         -60.7421  -45.5706  -29.1087 C.ar    1  UNL1        0.0342
     31 C         -59.7808  -45.3729  -28.0836 C.ar    1  UNL1        0.0061
     32 C         -59.8905  -46.0400  -26.8533 C.ar    1  UNL1        0.0377
     33 C         -60.9710  -46.8934  -26.6665 C.ar    1  UNL1        0.1481
     34 O         -61.2413  -47.6041  -25.5997 O.2     1  UNL1       -0.4491
     35 C         -62.3420  -48.2926  -25.8376 C.ar    1  UNL1        0.1947
     36 C         -62.8286  -47.9923  -27.1160 C.ar    1  UNL1        0.0231
     37 C         -64.0750  -48.5051  -27.7750 C.3     1  UNL1        0.0346
     38 C         -61.9119  -47.0969  -27.6420 C.ar    1  UNL1        0.0676
     39 C         -60.6224  -44.7996  -30.3687 C.ar    1  UNL1        0.0029
     40 C         -59.5288  -45.0084  -31.2278 C.ar    1  UNL1        0.0001
     41 C         -59.4160  -44.2807  -32.4166 C.ar    1  UNL1        0.0000
     42 C         -60.3884  -43.3364  -32.7551 C.ar    1  UNL1        0.0000
     43 C         -61.4744  -43.1158  -31.9043 C.ar    1  UNL1        0.0000
     44 C         -61.5916  -43.8408  -30.7146 C.ar    1  UNL1        0.0001
     45 C         -64.0060  -46.0716  -29.9610 C.3     1  UNL1        0.2525
     46 O         -62.7602  -46.7543  -29.8878 O.3     1  UNL1       -0.4713
@<TRIPOS>BOND
     1    45    46    1
     2    46    29    1
     3    29    30   ar
     4    30    39    1
     5    39    40   ar
     6    40    41   ar
     7    41    42   ar
     8    42    43   ar
     9    43    44   ar
    10    30    31   ar
    11    31    32   ar
    12    32    33   ar
    13    33    34   ar
    14    34    35   ar
    15    35    25    1
    16    25    26    2
    17    25    27   am
    18    27     1    1
    19     1     2   ar
    20     2     3   ar
    21     3     4   ar
    22     4     7    1
    23     7     8    1
    24     8     9    1
    25     9    10    1
    26    10    13    1
    27    13    14    1
    28    14    15    1
    29    15    16   ar
    30    16    17   ar
    31    17    18   ar
    32    18    19   ar
    33    19    21    1
    34    21    22    2
    35    21    23    1
    36    19    20   ar
    37    10    11    1
    38    11    12    1
    39     4     5   ar
    40     5     6   ar
    41    35    36   ar
    42    36    37    1
    43    36    38   ar
    44    38    29   ar
    45    44    39   ar
    46    38    33   ar
    47     6     1   ar
    48    12     7    1
    49    20    15   ar
    50    27    28    1
    51    23    24    1
@<TRIPOS>MOLECULE
*****
 46 51 0 0 0
SMALL
GASTEIGER

@<TRIPOS>ATOM
      1 C         -63.5550  -51.5897  -24.3472 C.ar    1  UNL1        0.0702
      2 C         -63.0186  -52.3868  -23.3293 C.ar    1  UNL1        0.0191
      3 C         -63.7949  -53.3784  -22.7279 C.ar    1  UNL1        0.0356
      4 C         -65.1173  -53.5825  -23.1587 C.ar    1  UNL1        0.1318
      5 N         -65.6073  -52.8123  -24.1706 N.ar    1  UNL1       -0.2279
      6 C         -64.8708  -51.8389  -24.7684 C.ar    1  UNL1        0.1149
      7 N         -65.9533  -54.5988  -22.5626 N.pl3   1  UNL1       -0.2932
      8 C         -67.4105  -54.4048  -22.5078 C.3     1  UNL1        0.0923
      9 C         -68.1268  -55.7532  -22.6310 C.3     1  UNL1        0.0252
     10 C         -67.6768  -56.7754  -21.5517 C.3     1  UNL1        0.0472
     11 C         -66.3185  -56.4091  -20.9065 C.3     1  UNL1        0.0252
     12 C         -65.3538  -55.7793  -21.9169 C.3     1  UNL1        0.0923
     13 C         -68.7583  -56.9488  -20.4724 C.3     1  UNL1        0.2054
     14 O         -68.5175  -56.0496  -19.3915 O.3     1  UNL1       -0.4755
     15 C         -69.5022  -55.5959  -18.5018 C.ar    1  UNL1        0.1388
     16 C         -69.5156  -55.9593  -17.1425 C.ar    1  UNL1        0.0369
     17 C         -70.5192  -55.4805  -16.2981 C.ar    1  UNL1        0.0033
     18 C         -71.5160  -54.6384  -16.7962 C.ar    1  UNL1        0.0066
     19 C         -71.5186  -54.2645  -18.1515 C.ar    1  UNL1        0.0785
     20 C         -70.5042  -54.7509  -18.9955 C.ar    1  UNL1        0.0433
     21 C         -72.5715  -53.3728  -18.6861 C.2     1  UNL1        0.3381
     22 O         -73.7487  -53.7966  -18.8423 O.2     1  UNL1       -0.2451
     23 O         -72.2717  -52.0550  -19.0220 O.3     1  UNL1       -0.4771
     24 H         -72.9851  -51.4363  -19.3887 H       1  UNL1        0.2954
     25 C         -63.0040  -49.1785  -24.9050 C.2     1  UNL1        0.2839
     26 O         -63.6774  -48.7098  -23.9483 O.2     1  UNL1       -0.2665
     27 N         -62.7363  -50.5872  -24.9738 N.am    1  UNL1       -0.2766
     28 H         -61.8412  -50.8909  -25.4193 H       1  UNL1        0.1553
     29 C         -61.8694  -46.4351  -28.9407 C.ar    1  UNL1        0.1413
     30 C         -60.7958  -45.5241  -29.1441 C.ar    1  UNL1        0.0342
     31 C         -59.8521  -45.3136  -28.1052 C.ar    1  UNL1        0.0061
     32 C         -59.9749  -45.9764  -26.8739 C.ar    1  UNL1        0.0377
     33 C         -61.0507  -46.8385  -26.6999 C.ar    1  UNL1        0.1481
     34 O         -61.3311  -47.5470  -25.6343 O.2     1  UNL1       -0.4491
     35 C         -62.4221  -48.2462  -25.8861 C.ar    1  UNL1        0.1947
     36 C         -62.8915  -47.9556  -27.1731 C.ar    1  UNL1        0.0231
     37 C         -64.1232  -48.4821  -27.8489 C.3     1  UNL1        0.0346
     38 C         -61.9747  -47.0544  -27.6889 C.ar    1  UNL1        0.0676
     39 C         -60.6635  -44.7574  -30.4055 C.ar    1  UNL1        0.0029
     40 C         -59.5755  -44.9883  -31.2660 C.ar    1  UNL1        0.0001
     41 C         -59.4508  -44.2647  -32.4561 C.ar    1  UNL1        0.0000
     42 C         -60.4055  -43.3025  -32.7945 C.ar    1  UNL1        0.0000
     43 C         -61.4857  -43.0600  -31.9423 C.ar    1  UNL1        0.0000
     44 C         -61.6148  -43.7808  -30.7513 C.ar    1  UNL1        0.0001
     45 C         -64.0364  -46.0485  -30.0516 C.3     1  UNL1        0.2525
     46 O         -62.7913  -46.7288  -29.9488 O.3     1  UNL1       -0.4713
@<TRIPOS>BOND
     1    45    46    1
     2    46    29    1
     3    29    30   ar
     4    30    39    1
     5    39    40   ar
     6    40    41   ar
     7    41    42   ar
     8    42    43   ar
     9    43    44   ar
    10    30    31   ar
    11    31    32   ar
    12    32    33   ar
    13    33    34   ar
    14    34    35   ar
    15    35    25    1
    16    25    26    2
    17    25    27   am
    18    27     1    1
    19     1     2   ar
    20     2     3   ar
    21     3     4   ar
    22     4     7    1
    23     7     8    1
    24     8     9    1
    25     9    10    1
    26    10    13    1
    27    13    14    1
    28    14    15    1
    29    15    16   ar
    30    16    17   ar
    31    17    18   ar
    32    18    19   ar
    33    19    21    1
    34    21    22    2
    35    21    23    1
    36    19    20   ar
    37    10    11    1
    38    11    12    1
    39     4     5   ar
    40     5     6   ar
    41    35    36   ar
    42    36    37    1
    43    36    38   ar
    44    38    29   ar
    45    44    39   ar
    46    38    33   ar
    47     6     1   ar
    48    12     7    1
    49    20    15   ar
    50    27    28    1
    51    23    24    1
@<TRIPOS>MOLECULE
*****
 46 51 0 0 0
SMALL
GASTEIGER

@<TRIPOS>ATOM
      1 C         -61.5739  -44.7347  -22.7082 C.ar    1  UNL1        0.0702
      2 C         -61.8763  -45.3689  -23.9188 C.ar    1  UNL1        0.0191
      3 C         -61.7093  -46.7479  -24.0528 C.ar    1  UNL1        0.0356
      4 C         -61.2470  -47.5014  -22.9600 C.ar    1  UNL1        0.1318
      5 N         -60.9861  -46.8649  -21.7834 N.ar    1  UNL1       -0.2279
      6 C         -61.1384  -45.5229  -21.6311 C.ar    1  UNL1        0.1149
      7 N         -61.0613  -48.9308  -23.0576 N.pl3   1  UNL1       -0.2932
      8 C         -61.3466  -49.6184  -24.3264 C.3     1  UNL1        0.0923
      9 C         -60.4001  -50.8095  -24.5049 C.3     1  UNL1        0.0252
     10 C         -60.4636  -51.8124  -23.3206 C.3     1  UNL1        0.0472
     11 C         -61.0776  -51.1937  -22.0416 C.3     1  UNL1        0.0252
     12 C         -60.6885  -49.7213  -21.8719 C.3     1  UNL1        0.0923
     13 C         -61.2212  -53.0895  -23.7202 C.3     1  UNL1        0.2054
     14 O         -62.1749  -53.4261  -22.7143 O.3     1  UNL1       -0.4755
     15 C         -63.5357  -53.6626  -22.9576 C.ar    1  UNL1        0.1388
     16 C         -64.2735  -52.9212  -23.8989 C.ar    1  UNL1        0.0369
     17 C         -65.6271  -53.1959  -24.1033 C.ar    1  UNL1        0.0033
     18 C         -66.2577  -54.2077  -23.3755 C.ar    1  UNL1        0.0066
     19 C         -65.5365  -54.9589  -22.4310 C.ar    1  UNL1        0.0785
     20 C         -64.1734  -54.6760  -22.2311 C.ar    1  UNL1        0.0433
     21 C         -66.1982  -56.0321  -21.6564 C.2     1  UNL1        0.3381
     22 O         -66.7366  -57.0073  -22.2472 O.2     1  UNL1       -0.2451
     23 O         -66.2324  -55.9751  -20.2654 O.3     1  UNL1       -0.4771
     24 H         -66.6827  -56.7045  -19.7256 H       1  UNL1        0.2954
     25 C         -61.0963  -42.5003  -21.6092 C.2     1  UNL1        0.2839
     26 O         -59.9870  -42.8684  -21.1377 O.2     1  UNL1       -0.2665
     27 N         -61.7728  -43.3166  -22.5770 N.am    1  UNL1       -0.2766
     28 H         -62.3658  -42.8350  -23.2900 H       1  UNL1        0.1553
     29 C         -63.7853  -38.6590  -19.8448 C.ar    1  UNL1        0.1413
     30 C         -63.5563  -37.2604  -19.9686 C.ar    1  UNL1        0.0342
     31 C         -62.4290  -36.7991  -20.6969 C.ar    1  UNL1        0.0061
     32 C         -61.5269  -37.7034  -21.2791 C.ar    1  UNL1        0.0377
     33 C         -61.7662  -39.0623  -21.1154 C.ar    1  UNL1        0.1481
     34 O         -61.0488  -40.0530  -21.5844 O.2     1  UNL1       -0.4491
     35 C         -61.6287  -41.1823  -21.2225 C.ar    1  UNL1        0.1947
     36 C         -62.7675  -40.9116  -20.4538 C.ar    1  UNL1        0.0231
     37 C         -63.6942  -41.8918  -19.7969 C.3     1  UNL1        0.0346
     38 C         -62.8472  -39.5293  -20.4141 C.ar    1  UNL1        0.0676
     39 C         -64.4489  -36.2722  -19.3181 C.ar    1  UNL1        0.0029
     40 C         -65.7541  -36.0687  -19.8005 C.ar    1  UNL1        0.0001
     41 C         -66.5961  -35.1361  -19.1867 C.ar    1  UNL1        0.0000
     42 C         -66.1423  -34.3961  -18.0920 C.ar    1  UNL1        0.0000
     43 C         -64.8446  -34.5851  -17.6104 C.ar    1  UNL1        0.0000
     44 C         -63.9989  -35.5163  -18.2207 C.ar    1  UNL1        0.0001
     45 C         -64.8718  -39.5803  -17.8322 C.3     1  UNL1        0.2525
     46 O         -64.9114  -39.1693  -19.1936 O.3     1  UNL1       -0.4713
@<TRIPOS>BOND
     1    45    46    1
     2    46    29    1
     3    29    30   ar
     4    30    39    1
     5    39    40   ar
     6    40    41   ar
     7    41    42   ar
     8    42    43   ar
     9    43    44   ar
    10    30    31   ar
    11    31    32   ar
    12    32    33   ar
    13    33    34   ar
    14    34    35   ar
    15    35    25    1
    16    25    26    2
    17    25    27   am
    18    27     1    1
    19     1     2   ar
    20     2     3   ar
    21     3     4   ar
    22     4     7    1
    23     7     8    1
    24     8     9    1
    25     9    10    1
    26    10    13    1
    27    13    14    1
    28    14    15    1
    29    15    16   ar
    30    16    17   ar
    31    17    18   ar
    32    18    19   ar
    33    19    21    1
    34    21    22    2
    35    21    23    1
    36    19    20   ar
    37    10    11    1
    38    11    12    1
    39     4     5   ar
    40     5     6   ar
    41    35    36   ar
    42    36    37    1
    43    36    38   ar
    44    38    29   ar
    45    44    39   ar
    46    38    33   ar
    47     6     1   ar
    48    12     7    1
    49    20    15   ar
    50    27    28    1
    51    23    24    1
@<TRIPOS>MOLECULE
*****
 46 51 0 0 0
SMALL
GASTEIGER

@<TRIPOS>ATOM
      1 C         -64.1470  -52.4100  -24.1044 C.ar    1  UNL1        0.0702
      2 C         -65.4789  -52.5223  -24.5200 C.ar    1  UNL1        0.0191
      3 C         -66.3420  -53.4169  -23.8857 C.ar    1  UNL1        0.0356
      4 C         -65.8703  -54.1978  -22.8164 C.ar    1  UNL1        0.1318
      5 N         -64.5771  -54.0500  -22.4122 N.ar    1  UNL1       -0.2279
      6 C         -63.7182  -53.1876  -23.0170 C.ar    1  UNL1        0.1149
      7 N         -66.7317  -55.1350  -22.1331 N.pl3   1  UNL1       -0.2932
      8 C         -68.1438  -54.7932  -21.9026 C.3     1  UNL1        0.0923
      9 C         -69.0069  -56.0580  -21.9507 C.3     1  UNL1        0.0252
     10 C         -68.5419  -57.1434  -20.9418 C.3     1  UNL1        0.0472
     11 C         -67.0860  -56.9325  -20.4608 C.3     1  UNL1        0.0252
     12 C         -66.1869  -56.3842  -21.5740 C.3     1  UNL1        0.0923
     13 C         -69.5003  -57.2273  -19.7422 C.3     1  UNL1        0.2054
     14 O         -70.2146  -56.0006  -19.6017 O.3     1  UNL1       -0.4755
     15 C         -70.7101  -55.5050  -18.3868 C.ar    1  UNL1        0.1388
     16 C         -71.7580  -54.5678  -18.3259 C.ar    1  UNL1        0.0369
     17 C         -72.2145  -54.1051  -17.0901 C.ar    1  UNL1        0.0033
     18 C         -71.6349  -54.5689  -15.9070 C.ar    1  UNL1        0.0066
     19 C         -70.5872  -55.5055  -15.9484 C.ar    1  UNL1        0.0785
     20 C         -70.1331  -55.9666  -17.1970 C.ar    1  UNL1        0.0433
     21 C         -69.9684  -56.0010  -14.6989 C.2     1  UNL1        0.3381
     22 O         -69.7536  -57.2329  -14.5374 O.2     1  UNL1       -0.2451
     23 O         -69.6167  -55.1099  -13.6882 O.3     1  UNL1       -0.4771
     24 H         -69.1926  -55.4386  -12.8290 H       1  UNL1        0.2954
     25 C         -62.9456  -50.1798  -24.2095 C.2     1  UNL1        0.2839
     26 O         -63.0201  -49.9800  -22.9673 O.2     1  UNL1       -0.2665
     27 N         -63.2752  -51.4674  -24.7518 N.am    1  UNL1       -0.2766
     28 H         -62.7731  -51.7744  -25.6153 H       1  UNL1        0.1553
     29 C         -61.9138  -46.9837  -27.9271 C.ar    1  UNL1        0.1413
     30 C         -60.9515  -45.9373  -27.9812 C.ar    1  UNL1        0.0342
     31 C         -60.1075  -45.7063  -26.8639 C.ar    1  UNL1        0.0061
     32 C         -60.2227  -46.4826  -25.7000 C.ar    1  UNL1        0.0377
     33 C         -61.1915  -47.4782  -25.6715 C.ar    1  UNL1        0.1481
     34 O         -61.4469  -48.3042  -24.6872 O.2     1  UNL1       -0.4491
     35 C         -62.4247  -49.1039  -25.0705 C.ar    1  UNL1        0.1947
     36 C         -62.8461  -48.7615  -26.3614 C.ar    1  UNL1        0.0231
     37 C         -63.9585  -49.3706  -27.1630 C.3     1  UNL1        0.0346
     38 C         -62.0185  -47.7166  -26.7382 C.ar    1  UNL1        0.0676
     39 C         -60.8379  -45.0547  -29.1663 C.ar    1  UNL1        0.0029
     40 C         -61.6286  -43.8962  -29.2673 C.ar    1  UNL1        0.0001
     41 C         -61.5214  -43.0636  -30.3856 C.ar    1  UNL1        0.0000
     42 C         -60.6300  -43.3819  -31.4133 C.ar    1  UNL1        0.0000
     43 C         -59.8458  -44.5349  -31.3261 C.ar    1  UNL1        0.0000
     44 C         -59.9495  -45.3705  -30.2100 C.ar    1  UNL1        0.0001
     45 C         -63.8848  -46.5336  -29.3387 C.3     1  UNL1        0.2525
     46 O         -62.7279  -47.2971  -29.0188 O.3     1  UNL1       -0.4713
@<TRIPOS>BOND
     1    45    46    1
     2    46    29    1
     3    29    30   ar
     4    30    39    1
     5    39    40   ar
     6    40    41   ar
     7    41    42   ar
     8    42    43   ar
     9    43    44   ar
    10    30    31   ar
    11    31    32   ar
    12    32    33   ar
    13    33    34   ar
    14    34    35   ar
    15    35    25    1
    16    25    26    2
    17    25    27   am
    18    27     1    1
    19     1     2   ar
    20     2     3   ar
    21     3     4   ar
    22     4     7    1
    23     7     8    1
    24     8     9    1
    25     9    10    1
    26    10    13    1
    27    13    14    1
    28    14    15    1
    29    15    16   ar
    30    16    17   ar
    31    17    18   ar
    32    18    19   ar
    33    19    21    1
    34    21    22    2
    35    21    23    1
    36    19    20   ar
    37    10    11    1
    38    11    12    1
    39     4     5   ar
    40     5     6   ar
    41    35    36   ar
    42    36    37    1
    43    36    38   ar
    44    38    29   ar
    45    44    39   ar
    46    38    33   ar
    47     6     1   ar
    48    12     7    1
    49    20    15   ar
    50    27    28    1
    51    23    24    1
@<TRIPOS>MOLECULE
*****
 46 51 0 0 0
SMALL
GASTEIGER

@<TRIPOS>ATOM
      1 C         -63.5738  -50.6722  -24.6279 C.ar    1  UNL1        0.0702
      2 C         -62.8422  -51.4597  -23.7314 C.ar    1  UNL1        0.0191
      3 C         -63.3967  -52.6265  -23.2037 C.ar    1  UNL1        0.0356
      4 C         -64.6919  -53.0156  -23.5872 C.ar    1  UNL1        0.1318
      5 N         -65.3731  -52.2469  -24.4830 N.ar    1  UNL1       -0.2279
      6 C         -64.8543  -51.1053  -25.0072 C.ar    1  UNL1        0.1149
      7 N         -65.3014  -54.2165  -23.0643 N.pl3   1  UNL1       -0.2932
      8 C         -66.7289  -54.4755  -23.3080 C.3     1  UNL1        0.0923
      9 C         -66.9776  -55.9819  -23.4322 C.3     1  UNL1        0.0252
     10 C         -66.4880  -56.7777  -22.1915 C.3     1  UNL1        0.0472
     11 C         -65.4644  -55.9906  -21.3383 C.3     1  UNL1        0.0252
     12 C         -64.5344  -55.1330  -22.2031 C.3     1  UNL1        0.0923
     13 C         -67.6746  -57.2343  -21.3265 C.3     1  UNL1        0.2054
     14 O         -68.8161  -56.4225  -21.5964 O.3     1  UNL1       -0.4755
     15 C         -69.4869  -55.6513  -20.6360 C.ar    1  UNL1        0.1388
     16 C         -70.1779  -54.4707  -20.9655 C.ar    1  UNL1        0.0369
     17 C         -70.8295  -53.7384  -19.9711 C.ar    1  UNL1        0.0033
     18 C         -70.8000  -54.1722  -18.6438 C.ar    1  UNL1        0.0066
     19 C         -70.1147  -55.3496  -18.2960 C.ar    1  UNL1        0.0785
     20 C         -69.4611  -56.0815  -19.3034 C.ar    1  UNL1        0.0433
     21 C         -70.0792  -55.8150  -16.8919 C.2     1  UNL1        0.3381
     22 O         -69.7794  -57.0097  -16.6223 O.2     1  UNL1       -0.2451
     23 O         -70.3769  -54.9364  -15.8532 O.3     1  UNL1       -0.4771
     24 H         -70.3555  -55.2448  -14.8885 H       1  UNL1        0.2954
     25 C         -63.4681  -48.1574  -24.9331 C.2     1  UNL1        0.2839
     26 O         -64.1310  -47.9132  -23.8895 O.2     1  UNL1       -0.2665
     27 N         -62.9811  -49.4847  -25.1817 N.am    1  UNL1       -0.2766
     28 H         -62.0866  -49.5831  -25.7127 H       1  UNL1        0.1553
     29 C         -62.2052  -43.7638  -26.9828 C.ar    1  UNL1        0.1413
     30 C         -62.1087  -43.3984  -28.3543 C.ar    1  UNL1        0.0342
     31 C         -62.4125  -44.3572  -29.3555 C.ar    1  UNL1        0.0061
     32 C         -62.7872  -45.6656  -29.0114 C.ar    1  UNL1        0.0377
     33 C         -62.8448  -45.9959  -27.6630 C.ar    1  UNL1        0.1481
     34 O         -63.1766  -47.1531  -27.1464 O.2     1  UNL1       -0.4491
     35 C         -63.1248  -47.0419  -25.8321 C.ar    1  UNL1        0.1947
     36 C         -62.7102  -45.7526  -25.4760 C.ar    1  UNL1        0.0231
     37 C         -62.4676  -45.2064  -24.0998 C.3     1  UNL1        0.0346
     38 C         -62.5532  -45.0862  -26.6801 C.ar    1  UNL1        0.0676
     39 C         -61.6579  -42.0469  -28.7625 C.ar    1  UNL1        0.0029
     40 C         -60.4525  -41.5201  -28.2654 C.ar    1  UNL1        0.0001
     41 C         -60.0274  -40.2449  -28.6505 C.ar    1  UNL1        0.0000
     42 C         -60.8024  -39.4834  -29.5288 C.ar    1  UNL1        0.0000
     43 C         -62.0055  -39.9945  -30.0219 C.ar    1  UNL1        0.0000
     44 C         -62.4349  -41.2690  -29.6397 C.ar    1  UNL1        0.0001
     45 C         -63.0182  -42.0203  -25.4404 C.3     1  UNL1        0.2525
     46 O         -61.9792  -42.8446  -25.9548 O.3     1  UNL1       -0.4713
@<TRIPOS>BOND
     1    45    46    1
     2    46    29    1
     3    29    30   ar
     4    30    39    1
     5    39    40   ar
     6    40    41   ar
     7    41    42   ar
     8    42    43   ar
     9    43    44   ar
    10    30    31   ar
    11    31    32   ar
    12    32    33   ar
    13    33    34   ar
    14    34    35   ar
    15    35    25    1
    16    25    26    2
    17    25    27   am
    18    27     1    1
    19     1     2   ar
    20     2     3   ar
    21     3     4   ar
    22     4     7    1
    23     7     8    1
    24     8     9    1
    25     9    10    1
    26    10    13    1
    27    13    14    1
    28    14    15    1
    29    15    16   ar
    30    16    17   ar
    31    17    18   ar
    32    18    19   ar
    33    19    21    1
    34    21    22    2
    35    21    23    1
    36    19    20   ar
    37    10    11    1
    38    11    12    1
    39     4     5   ar
    40     5     6   ar
    41    35    36   ar
    42    36    37    1
    43    36    38   ar
    44    38    29   ar
    45    44    39   ar
    46    38    33   ar
    47     6     1   ar
    48    12     7    1
    49    20    15   ar
    50    27    28    1
    51    23    24    1
