@<TRIPOS>MOLECULE
*****
 59 63 0 0 0
SMALL
GASTEIGER

@<TRIPOS>ATOM
      1 C          47.8097   14.6087  -25.3969 C.ar    1  UNL1        0.0548
      2 C          46.7328   14.6467  -24.4948 C.ar    1  UNL1        0.0077
      3 C          46.3853   13.5114  -23.7574 C.ar    1  UNL1        0.0390
      4 C          47.1083   12.3221  -23.8932 C.ar    1  UNL1        0.1598
      5 C          48.2250   12.2904  -24.7612 C.ar    1  UNL1        0.0993
      6 C          48.5429   13.4191  -25.5263 C.ar    1  UNL1        0.0235
      7 N          48.1414   17.1262  -25.5584 N.am    1  UNL1       -0.3040
      8 C          48.2246   15.8158  -26.1518 C.2     1  UNL1        0.2458
      9 O          48.6460   15.6828  -27.3327 O.2     1  UNL1       -0.2701
     10 H          47.5501   17.2270  -24.7025 H       1  UNL1        0.1496
     11 C          48.2447   19.5764  -25.3885 C.3     1  UNL1        0.0196
     12 C          48.8340   18.3250  -26.0716 C.3     1  UNL1        0.0572
     13 C          50.3383   18.2516  -25.7431 C.3     1  UNL1        0.0196
     14 C          48.6246   18.4543  -27.5933 C.3     1  UNL1        0.0196
     15 N          49.1003   11.1608  -24.8036 N.pl3   1  UNL1       -0.2120
     16 H          48.7077   10.2008  -24.9101 H       1  UNL1        0.1738
     17 S          50.8159   11.3770  -24.8673 S.O2    1  UNL1        0.0745
     18 O          51.4352   10.7425  -23.6539 O.2     1  UNL1       -0.1499
     19 O          51.1462   12.8425  -24.8421 O.2     1  UNL1       -0.1499
     20 C          51.4458   10.5942  -26.3239 C.ar    1  UNL1        0.1356
     21 C          50.6253    9.6793  -26.9962 C.ar    1  UNL1        0.0207
     22 C          51.0271    9.1200  -28.2098 C.ar    1  UNL1       -0.0028
     23 C          52.2566    9.4657  -28.7878 C.ar    1  UNL1       -0.0208
     24 C          53.0870   10.3816  -28.1090 C.ar    1  UNL1        0.0085
     25 C          52.6908   10.9447  -26.8900 C.ar    1  UNL1        0.0762
     26 CL         53.7669   12.1269  -26.1511 Cl      1  UNL1       -0.0809
     27 C          52.6048    8.8435  -30.1299 C.3     1  UNL1        0.0328
     28 C          53.6921    7.7764  -30.1240 C.3     1  UNL1        0.0159
     29 C          52.2367    7.3814  -30.3550 C.3     1  UNL1        0.0572
     30 I          51.7853    6.9032  -32.3922 I       1  UNL1       -0.0750
     31 O          46.7037   11.2089  -23.1373 O.3     1  UNL1       -0.4513
     32 C          46.9906   11.0560  -21.7772 C.ar    1  UNL1        0.1580
     33 C          46.2958   11.8346  -20.8465 C.ar    1  UNL1        0.0677
     34 C          46.6831   11.8406  -19.5041 C.ar    1  UNL1        0.1398
     35 F          46.0572   12.6764  -18.6371 F       1  UNL1       -0.2044
     36 C          47.7520   11.0341  -19.0741 C.ar    1  UNL1        0.0175
     37 C          48.3875   10.1852  -19.9941 C.ar    1  UNL1        0.0130
     38 C          48.0003   10.1795  -21.3370 C.ar    1  UNL1        0.0919
     39 CL         48.8147    9.0917  -22.4524 Cl      1  UNL1       -0.0791
     40 C          48.3068   11.1798  -17.6829 C.3     1  UNL1        0.1382
     41 C          49.6337   11.8739  -17.7378 C.2     1  UNL1        0.3234
     42 O          50.5046   11.6242  -16.8610 O.2     1  UNL1       -0.2497
     43 O          49.8893   12.7941  -18.7638 O.3     1  UNL1       -0.4215
     44 C          51.0941   13.5533  -18.8760 C.3     1  UNL1        0.3207
     45 O          50.8484   14.7198  -19.6562 O.3     1  UNL1       -0.3070
     46 C          50.9771   14.5363  -21.0594 C.3     1  UNL1        0.2456
     47 C          52.3915   14.0315  -21.4802 C.3     1  UNL1        0.1781
     48 O          53.1171   15.0456  -22.1325 O.3     1  UNL1       -0.3790
     49 C          53.1912   13.4984  -20.2792 C.3     1  UNL1        0.1733
     50 O          54.2544   12.7073  -20.7466 O.3     1  UNL1       -0.3793
     51 C          52.2648   12.6701  -19.3865 C.3     1  UNL1        0.2106
     52 O          52.9983   12.1675  -18.2976 O.3     1  UNL1       -0.3766
     53 H          53.2089   15.8054  -21.4991 H       1  UNL1        0.2106
     54 H          54.9382   12.6861  -20.0271 H       1  UNL1        0.2105
     55 H          52.6133   11.2817  -18.0695 H       1  UNL1        0.2107
     56 C          49.8478   13.7125  -21.6334 C.2     1  UNL1        0.3439
     57 O          48.6533   14.1072  -21.5561 O.2     1  UNL1       -0.2475
     58 O          50.1314   12.5008  -22.2559 O.3     1  UNL1       -0.4785
     59 H          49.3904   11.9276  -22.6398 H       1  UNL1        0.2951
@<TRIPOS>BOND
     1    11    12    1
     2    12    13    1
     3    12    14    1
     4    12     7    1
     5     7     8   am
     6     8     9    2
     7     8     1    1
     8     1     2   ar
     9     2     3   ar
    10     3     4   ar
    11     4    31    1
    12    31    32    1
    13    32    33   ar
    14    33    34   ar
    15    34    35    1
    16    34    36   ar
    17    36    40    1
    18    40    41    1
    19    41    42    2
    20    41    43    1
    21    43    44    1
    22    44    45    1
    23    45    46    1
    24    46    56    1
    25    56    57    2
    26    56    58    1
    27    46    47    1
    28    47    48    1
    29    47    49    1
    30    49    50    1
    31    49    51    1
    32    51    52    1
    33    36    37   ar
    34    37    38   ar
    35    38    39    1
    36     4     5   ar
    37     5    15    1
    38    15    17    1
    39    17    18    2
    40    17    19    2
    41    17    20    1
    42    20    21   ar
    43    21    22   ar
    44    22    23   ar
    45    23    27    1
    46    27    28    1
    47    28    29    1
    48    29    30    1
    49    23    24   ar
    50    24    25   ar
    51    25    26    1
    52     5     6   ar
    53     6     1   ar
    54    38    32   ar
    55    25    20   ar
    56    51    44    1
    57    29    27    1
    58     7    10    1
    59    58    59    1
    60    48    53    1
    61    50    54    1
    62    52    55    1
    63    15    16    1
@<TRIPOS>MOLECULE
*****
 59 63 0 0 0
SMALL
GASTEIGER

@<TRIPOS>ATOM
      1 C          49.8481   12.2964  -17.8959 C.ar    1  UNL1        0.0548
      2 C          51.1005   12.8618  -18.1901 C.ar    1  UNL1        0.0077
      3 C          51.5453   12.9508  -19.5120 C.ar    1  UNL1        0.0390
      4 C          50.7495   12.4915  -20.5663 C.ar    1  UNL1        0.1598
      5 C          49.4663   11.9675  -20.2827 C.ar    1  UNL1        0.0993
      6 C          49.0438   11.8447  -18.9536 C.ar    1  UNL1        0.0235
      7 N          49.9096   11.3299  -15.5430 N.am    1  UNL1       -0.3040
      8 C          49.3375   12.2375  -16.5048 C.2     1  UNL1        0.2458
      9 O          48.3825   12.9905  -16.1724 O.2     1  UNL1       -0.2701
     10 H          50.4995   10.5503  -15.9128 H       1  UNL1        0.1496
     11 C          50.5599   10.3312  -13.3929 C.3     1  UNL1        0.0196
     12 C          49.7238   11.4298  -14.0815 C.3     1  UNL1        0.0572
     13 C          50.2097   12.8026  -13.5763 C.3     1  UNL1        0.0196
     14 C          48.2417   11.2186  -13.7144 C.3     1  UNL1        0.0196
     15 N          48.5465   11.6497  -21.3300 N.pl3   1  UNL1       -0.2120
     16 H          48.0035   12.4085  -21.7950 H       1  UNL1        0.1738
     17 S          48.4559   10.0431  -21.9662 S.O2    1  UNL1        0.0745
     18 O          47.0132    9.6314  -22.0542 O.2     1  UNL1       -0.1499
     19 O          49.1535    9.0879  -21.0396 O.2     1  UNL1       -0.1499
     20 C          49.1720   10.0182  -23.5841 C.ar    1  UNL1        0.1356
     21 C          48.9949   11.1371  -24.4081 C.ar    1  UNL1        0.0207
     22 C          49.6320   11.2175  -25.6469 C.ar    1  UNL1       -0.0028
     23 C          50.4692   10.1850  -26.0923 C.ar    1  UNL1       -0.0208
     24 C          50.6435    9.0547  -25.2669 C.ar    1  UNL1        0.0085
     25 C          50.0054    8.9669  -24.0239 C.ar    1  UNL1        0.0762
     26 CL         50.3360    7.5458  -23.0375 Cl      1  UNL1       -0.0809
     27 C          51.1576   10.3648  -27.4352 C.3     1  UNL1        0.0328
     28 C          52.4220   11.2147  -27.4439 C.3     1  UNL1        0.0159
     29 C          52.5168    9.7039  -27.6338 C.3     1  UNL1        0.0572
     30 I          52.9075    9.1110  -29.6534 I       1  UNL1       -0.0750
     31 O          51.2552   12.5931  -21.8733 O.3     1  UNL1       -0.4513
     32 C          50.9935   13.6762  -22.7183 C.ar    1  UNL1        0.1580
     33 C          50.1260   14.6821  -22.2815 C.ar    1  UNL1        0.0677
     34 C          49.7011   15.6781  -23.1643 C.ar    1  UNL1        0.1398
     35 F          48.7844   16.5876  -22.7465 F       1  UNL1       -0.2044
     36 C          50.1733   15.6958  -24.4889 C.ar    1  UNL1        0.0175
     37 C          51.1146   14.7376  -24.8972 C.ar    1  UNL1        0.0130
     38 C          51.5394   13.7411  -24.0142 C.ar    1  UNL1        0.0919
     39 CL         52.7290   12.5689  -24.5632 Cl      1  UNL1       -0.0791
     40 C          49.5745   16.6354  -25.5004 C.3     1  UNL1        0.1382
     41 C          48.5623   15.9064  -26.3308 C.2     1  UNL1        0.3234
     42 O          48.7746   15.7317  -27.5612 O.2     1  UNL1       -0.2497
     43 O          47.3904   15.4287  -25.7284 O.3     1  UNL1       -0.4215
     44 C          46.3427   14.7612  -26.4336 C.3     1  UNL1        0.3207
     45 O          45.2015   14.6449  -25.5887 O.3     1  UNL1       -0.3070
     46 C          45.1979   13.5006  -24.7461 C.3     1  UNL1        0.2456
     47 C          45.2801   12.1603  -25.5393 C.3     1  UNL1        0.1781
     48 O          44.0523   11.4737  -25.5007 O.3     1  UNL1       -0.3790
     49 C          45.7157   12.3825  -26.9978 C.3     1  UNL1        0.1733
     50 O          46.1573   11.1631  -27.5388 O.3     1  UNL1       -0.3793
     51 C          46.8411   13.4186  -27.0337 C.3     1  UNL1        0.2106
     52 O          47.2525   13.6098  -28.3643 O.3     1  UNL1       -0.3766
     53 H          43.3649   12.0623  -25.9106 H       1  UNL1        0.2106
     54 H          46.0796   11.2387  -28.5257 H       1  UNL1        0.2105
     55 H          48.2258   13.8021  -28.3448 H       1  UNL1        0.2107
     56 C          46.2165   13.6066  -23.6350 C.2     1  UNL1        0.3439
     57 O          46.6743   12.5746  -23.0746 O.2     1  UNL1       -0.2475
     58 O          46.6550   14.8620  -23.2249 O.3     1  UNL1       -0.4785
     59 H          47.3300   14.9579  -22.4765 H       1  UNL1        0.2951
@<TRIPOS>BOND
     1    11    12    1
     2    12    13    1
     3    12    14    1
     4    12     7    1
     5     7     8   am
     6     8     9    2
     7     8     1    1
     8     1     2   ar
     9     2     3   ar
    10     3     4   ar
    11     4    31    1
    12    31    32    1
    13    32    33   ar
    14    33    34   ar
    15    34    35    1
    16    34    36   ar
    17    36    40    1
    18    40    41    1
    19    41    42    2
    20    41    43    1
    21    43    44    1
    22    44    45    1
    23    45    46    1
    24    46    56    1
    25    56    57    2
    26    56    58    1
    27    46    47    1
    28    47    48    1
    29    47    49    1
    30    49    50    1
    31    49    51    1
    32    51    52    1
    33    36    37   ar
    34    37    38   ar
    35    38    39    1
    36     4     5   ar
    37     5    15    1
    38    15    17    1
    39    17    18    2
    40    17    19    2
    41    17    20    1
    42    20    21   ar
    43    21    22   ar
    44    22    23   ar
    45    23    27    1
    46    27    28    1
    47    28    29    1
    48    29    30    1
    49    23    24   ar
    50    24    25   ar
    51    25    26    1
    52     5     6   ar
    53     6     1   ar
    54    38    32   ar
    55    25    20   ar
    56    51    44    1
    57    29    27    1
    58     7    10    1
    59    58    59    1
    60    48    53    1
    61    50    54    1
    62    52    55    1
    63    15    16    1
@<TRIPOS>MOLECULE
*****
 59 63 0 0 0
SMALL
GASTEIGER

@<TRIPOS>ATOM
      1 C          49.5804   14.6966  -26.0798 C.ar    1  UNL1        0.0548
      2 C          48.3076   14.1083  -26.1725 C.ar    1  UNL1        0.0077
      3 C          48.0998   12.7961  -25.7386 C.ar    1  UNL1        0.0390
      4 C          49.1488   12.0489  -25.1936 C.ar    1  UNL1        0.1598
      5 C          50.4210   12.6511  -25.0501 C.ar    1  UNL1        0.0993
      6 C          50.6317   13.9519  -25.5232 C.ar    1  UNL1        0.0235
      7 N          48.9402   17.1587  -26.0355 N.am    1  UNL1       -0.3040
      8 C          49.8100   16.1033  -26.4891 C.2     1  UNL1        0.2458
      9 O          50.7778   16.3670  -27.2529 O.2     1  UNL1       -0.2701
     10 H          48.0156   16.8784  -25.6368 H       1  UNL1        0.1496
     11 C          50.6838   18.8130  -25.5192 C.3     1  UNL1        0.0196
     12 C          49.2673   18.5976  -26.0911 C.3     1  UNL1        0.0572
     13 C          49.2496   19.0909  -27.5514 C.3     1  UNL1        0.0196
     14 C          48.2684   19.4071  -25.2409 C.3     1  UNL1        0.0196
     15 N          51.4760   11.9967  -24.3412 N.pl3   1  UNL1       -0.2120
     16 H          51.4688   11.9751  -23.2989 H       1  UNL1        0.1738
     17 S          52.6709   11.0775  -25.1907 S.O2    1  UNL1        0.0745
     18 O          53.3882   10.1865  -24.2159 O.2     1  UNL1       -0.1499
     19 O          53.6842   12.0020  -25.8039 O.2     1  UNL1       -0.1499
     20 C          51.8737   10.0820  -26.4173 C.ar    1  UNL1        0.1356
     21 C          50.9895    9.0822  -25.9920 C.ar    1  UNL1        0.0207
     22 C          50.2490    8.3455  -26.9172 C.ar    1  UNL1       -0.0028
     23 C          50.3669    8.5932  -28.2919 C.ar    1  UNL1       -0.0208
     24 C          51.2617    9.5949  -28.7224 C.ar    1  UNL1        0.0085
     25 C          52.0091   10.3362  -27.7994 C.ar    1  UNL1        0.0762
     26 CL         53.0508   11.6086  -28.4298 Cl      1  UNL1       -0.0809
     27 C          49.4979    7.7754  -29.2331 C.3     1  UNL1        0.0328
     28 C          48.3837    8.5236  -29.9539 C.3     1  UNL1        0.0159
     29 C          49.6105    8.0512  -30.7281 C.3     1  UNL1        0.0572
     30 I          49.2475    6.3366  -31.9574 I       1  UNL1       -0.0750
     31 O          48.8842   10.7298  -24.7883 O.3     1  UNL1       -0.4513
     32 C          48.4538   10.3912  -23.5016 C.ar    1  UNL1        0.1580
     33 C          47.3373   11.0419  -22.9675 C.ar    1  UNL1        0.0677
     34 C          46.9924   10.8621  -21.6256 C.ar    1  UNL1        0.1398
     35 F          45.9639   11.5776  -21.1037 F       1  UNL1       -0.2044
     36 C          47.7454    9.9958  -20.8130 C.ar    1  UNL1        0.0175
     37 C          48.8098    9.2746  -21.3767 C.ar    1  UNL1        0.0130
     38 C          49.1551    9.4546  -22.7190 C.ar    1  UNL1        0.0919
     39 CL         50.4869    8.5217  -23.3871 Cl      1  UNL1       -0.0791
     40 C          47.5113    9.9465  -19.3273 C.3     1  UNL1        0.1382
     41 C          47.4920   11.3382  -18.7721 C.2     1  UNL1        0.3234
     42 O          46.7078   11.6213  -17.8264 O.2     1  UNL1       -0.2497
     43 O          48.3462   12.3090  -19.3130 O.3     1  UNL1       -0.4215
     44 C          49.3397   13.0087  -18.5621 C.3     1  UNL1        0.3207
     45 O          49.7132   14.1940  -19.2589 O.3     1  UNL1       -0.3070
     46 C          50.7407   14.0190  -20.2247 C.3     1  UNL1        0.2456
     47 C          52.0584   13.4491  -19.6152 C.3     1  UNL1        0.1781
     48 O          53.0640   14.4328  -19.5753 O.3     1  UNL1       -0.3790
     49 C          51.8347   12.8647  -18.2099 C.3     1  UNL1        0.1733
     50 O          52.9138   12.0269  -17.8810 O.3     1  UNL1       -0.3793
     51 C          50.5248   12.0740  -18.1973 C.3     1  UNL1        0.2106
     52 O          50.3277   11.5245  -16.9185 O.3     1  UNL1       -0.3766
     53 H          52.7318   15.1805  -19.0118 H       1  UNL1        0.2106
     54 H          52.9410   11.9644  -16.8905 H       1  UNL1        0.2105
     55 H          49.8626   10.6565  -17.0415 H       1  UNL1        0.2107
     56 C          50.2598   13.2580  -21.4384 C.2     1  UNL1        0.3439
     57 O          49.3612   13.7304  -22.1855 O.2     1  UNL1       -0.2475
     58 O          50.8174   12.0181  -21.7350 O.3     1  UNL1       -0.4785
     59 H          50.5048   11.4862  -22.5377 H       1  UNL1        0.2951
@<TRIPOS>BOND
     1    11    12    1
     2    12    13    1
     3    12    14    1
     4    12     7    1
     5     7     8   am
     6     8     9    2
     7     8     1    1
     8     1     2   ar
     9     2     3   ar
    10     3     4   ar
    11     4    31    1
    12    31    32    1
    13    32    33   ar
    14    33    34   ar
    15    34    35    1
    16    34    36   ar
    17    36    40    1
    18    40    41    1
    19    41    42    2
    20    41    43    1
    21    43    44    1
    22    44    45    1
    23    45    46    1
    24    46    56    1
    25    56    57    2
    26    56    58    1
    27    46    47    1
    28    47    48    1
    29    47    49    1
    30    49    50    1
    31    49    51    1
    32    51    52    1
    33    36    37   ar
    34    37    38   ar
    35    38    39    1
    36     4     5   ar
    37     5    15    1
    38    15    17    1
    39    17    18    2
    40    17    19    2
    41    17    20    1
    42    20    21   ar
    43    21    22   ar
    44    22    23   ar
    45    23    27    1
    46    27    28    1
    47    28    29    1
    48    29    30    1
    49    23    24   ar
    50    24    25   ar
    51    25    26    1
    52     5     6   ar
    53     6     1   ar
    54    38    32   ar
    55    25    20   ar
    56    51    44    1
    57    29    27    1
    58     7    10    1
    59    58    59    1
    60    48    53    1
    61    50    54    1
    62    52    55    1
    63    15    16    1
@<TRIPOS>MOLECULE
*****
 59 63 0 0 0
SMALL
GASTEIGER

@<TRIPOS>ATOM
      1 C          48.6886   11.6596  -17.7293 C.ar    1  UNL1        0.0548
      2 C          47.3882   11.4610  -18.2233 C.ar    1  UNL1        0.0077
      3 C          47.1388   11.4978  -19.5981 C.ar    1  UNL1        0.0390
      4 C          48.1780   11.7200  -20.5072 C.ar    1  UNL1        0.1598
      5 C          49.4980   11.8703  -20.0208 C.ar    1  UNL1        0.0993
      6 C          49.7343   11.8721  -18.6408 C.ar    1  UNL1        0.0235
      7 N          50.2111   12.0996  -15.7387 N.am    1  UNL1       -0.3040
      8 C          48.9820   11.5757  -16.2780 C.2     1  UNL1        0.2458
      9 O          48.1408   11.0275  -15.5155 O.2     1  UNL1       -0.2701
     10 H          50.9842   12.2968  -16.4140 H       1  UNL1        0.1496
     11 C          51.8404   13.0230  -14.1461 C.3     1  UNL1        0.0196
     12 C          50.4479   12.3790  -14.3082 C.3     1  UNL1        0.0572
     13 C          49.3887   13.3646  -13.7765 C.3     1  UNL1        0.0196
     14 C          50.4168   11.0701  -13.4946 C.3     1  UNL1        0.0196
     15 N          50.6154   11.9223  -20.9110 N.pl3   1  UNL1       -0.2120
     16 H          50.8353   11.1052  -21.5201 H       1  UNL1        0.1738
     17 S          51.5011   13.3928  -21.1290 S.O2    1  UNL1        0.0745
     18 O          52.9694   13.0773  -21.1827 O.2     1  UNL1       -0.1499
     19 O          51.2671   14.3067  -19.9595 O.2     1  UNL1       -0.1499
     20 C          51.0077   14.1473  -22.6516 C.ar    1  UNL1        0.1356
     21 C          50.1526   15.2556  -22.5994 C.ar    1  UNL1        0.0207
     22 C          49.8239   15.9571  -23.7600 C.ar    1  UNL1       -0.0028
     23 C          50.3470   15.5743  -25.0030 C.ar    1  UNL1       -0.0208
     24 C          51.2029   14.4546  -25.0585 C.ar    1  UNL1        0.0085
     25 C          51.5348   13.7452  -23.8981 C.ar    1  UNL1        0.0762
     26 CL         52.6616   12.4013  -24.0596 Cl      1  UNL1       -0.0809
     27 C          49.9728   16.4125  -26.2141 C.3     1  UNL1        0.0328
     28 C          48.6547   16.0710  -26.8975 C.3     1  UNL1        0.0159
     29 C          48.7832   17.3573  -26.0874 C.3     1  UNL1        0.0572
     30 I          48.9435   19.1217  -27.2892 I       1  UNL1       -0.0750
     31 O          47.8650   11.7614  -21.8764 O.3     1  UNL1       -0.4513
     32 C          48.5636   11.0382  -22.8483 C.ar    1  UNL1        0.1580
     33 C          49.1314    9.8088  -22.5002 C.ar    1  UNL1        0.0677
     34 C          49.9860    9.1510  -23.3884 C.ar    1  UNL1        0.1398
     35 F          50.6017    8.0080  -22.9925 F       1  UNL1       -0.2044
     36 C          50.2511    9.7044  -24.6538 C.ar    1  UNL1        0.0175
     37 C          49.6072   10.8925  -25.0343 C.ar    1  UNL1        0.0130
     38 C          48.7525   11.5507  -24.1457 C.ar    1  UNL1        0.0919
     39 CL         47.9573   13.0290  -24.6680 Cl      1  UNL1       -0.0791
     40 C          51.3183    9.1155  -25.5363 C.3     1  UNL1        0.1382
     41 C          51.4956    9.9700  -26.7544 C.2     1  UNL1        0.3234
     42 O          52.0089   11.1161  -26.6426 O.2     1  UNL1       -0.2497
     43 O          51.0864    9.4841  -28.0038 O.3     1  UNL1       -0.4215
     44 C          49.9062    8.7071  -28.2130 C.3     1  UNL1        0.3207
     45 O          50.2700    7.3998  -28.6471 O.3     1  UNL1       -0.3070
     46 C          50.4582    7.2683  -30.0495 C.3     1  UNL1        0.2456
     47 C          49.1910    7.6542  -30.8726 C.3     1  UNL1        0.1781
     48 O          48.5858    6.5143  -31.4336 O.3     1  UNL1       -0.3790
     49 C          48.1700    8.4309  -30.0238 C.3     1  UNL1        0.1733
     50 O          47.2667    9.0892  -30.8756 O.3     1  UNL1       -0.3793
     51 C          48.9111    9.4446  -29.1495 C.3     1  UNL1        0.2106
     52 O          47.9780   10.1676  -28.3860 O.3     1  UNL1       -0.3766
     53 H          48.3279    5.9118  -30.6870 H       1  UNL1        0.2106
     54 H          46.4436    9.2617  -30.3478 H       1  UNL1        0.2105
     55 H          48.3386   11.0856  -28.2759 H       1  UNL1        0.2107
     56 C          51.7172    7.9565  -30.5234 C.2     1  UNL1        0.3439
     57 O          51.8091    8.4023  -31.6988 O.2     1  UNL1       -0.2475
     58 O          52.7904    8.0997  -29.6493 O.3     1  UNL1       -0.4785
     59 H          53.6472    8.5492  -29.9473 H       1  UNL1        0.2951
@<TRIPOS>BOND
     1    11    12    1
     2    12    13    1
     3    12    14    1
     4    12     7    1
     5     7     8   am
     6     8     9    2
     7     8     1    1
     8     1     2   ar
     9     2     3   ar
    10     3     4   ar
    11     4    31    1
    12    31    32    1
    13    32    33   ar
    14    33    34   ar
    15    34    35    1
    16    34    36   ar
    17    36    40    1
    18    40    41    1
    19    41    42    2
    20    41    43    1
    21    43    44    1
    22    44    45    1
    23    45    46    1
    24    46    56    1
    25    56    57    2
    26    56    58    1
    27    46    47    1
    28    47    48    1
    29    47    49    1
    30    49    50    1
    31    49    51    1
    32    51    52    1
    33    36    37   ar
    34    37    38   ar
    35    38    39    1
    36     4     5   ar
    37     5    15    1
    38    15    17    1
    39    17    18    2
    40    17    19    2
    41    17    20    1
    42    20    21   ar
    43    21    22   ar
    44    22    23   ar
    45    23    27    1
    46    27    28    1
    47    28    29    1
    48    29    30    1
    49    23    24   ar
    50    24    25   ar
    51    25    26    1
    52     5     6   ar
    53     6     1   ar
    54    38    32   ar
    55    25    20   ar
    56    51    44    1
    57    29    27    1
    58     7    10    1
    59    58    59    1
    60    48    53    1
    61    50    54    1
    62    52    55    1
    63    15    16    1
@<TRIPOS>MOLECULE
*****
 59 63 0 0 0
SMALL
GASTEIGER

@<TRIPOS>ATOM
      1 C          51.0937   12.5773  -17.6718 C.ar    1  UNL1        0.0548
      2 C          52.0943   13.2241  -18.4170 C.ar    1  UNL1        0.0077
      3 C          52.0910   13.1608  -19.8132 C.ar    1  UNL1        0.0390
      4 C          51.0875   12.4648  -20.4947 C.ar    1  UNL1        0.1598
      5 C          50.0486   11.8538  -19.7539 C.ar    1  UNL1        0.0993
      6 C          50.0800   11.8874  -18.3545 C.ar    1  UNL1        0.0235
      7 N          49.8080   12.8913  -15.4987 N.am    1  UNL1       -0.3040
      8 C          51.0519   12.6735  -16.1925 C.2     1  UNL1        0.2458
      9 O          52.1278   12.5712  -15.5431 O.2     1  UNL1       -0.2701
     10 H          48.9984   13.2336  -16.0642 H       1  UNL1        0.1496
     11 C          50.9634   12.3679  -13.3929 C.3     1  UNL1        0.0196
     12 C          49.6010   12.6604  -14.0550 C.3     1  UNL1        0.0572
     13 C          48.9974   13.9167  -13.3967 C.3     1  UNL1        0.0196
     14 C          48.6789   11.4451  -13.8339 C.3     1  UNL1        0.0196
     15 N          48.9095   11.2846  -20.4037 N.pl3   1  UNL1       -0.2120
     16 H          48.0916   11.8852  -20.6431 H       1  UNL1        0.1738
     17 S          48.9422    9.6489  -20.9674 S.O2    1  UNL1        0.0745
     18 O          47.5462    9.0930  -20.9398 O.2     1  UNL1       -0.1499
     19 O          49.7914    8.8117  -20.0534 O.2     1  UNL1       -0.1499
     20 C          49.5519    9.6195  -22.6283 C.ar    1  UNL1        0.1356
     21 C          50.4603    8.6151  -22.9867 C.ar    1  UNL1        0.0207
     22 C          50.8844    8.4769  -24.3088 C.ar    1  UNL1       -0.0028
     23 C          50.4063    9.3340  -25.3097 C.ar    1  UNL1       -0.0208
     24 C          49.4967   10.3501  -24.9497 C.ar    1  UNL1        0.0085
     25 C          49.0689   10.4956  -23.6246 C.ar    1  UNL1        0.0762
     26 CL         47.8829   11.7524  -23.2852 Cl      1  UNL1       -0.0809
     27 C          50.8856    9.0943  -26.7319 C.3     1  UNL1        0.0328
     28 C          50.0528    9.7173  -27.8452 C.3     1  UNL1        0.0159
     29 C          51.4285   10.2863  -27.5118 C.3     1  UNL1        0.0572
     30 I          52.9422    9.7752  -28.9368 I       1  UNL1       -0.0750
     31 O          51.1442   12.4228  -21.8981 O.3     1  UNL1       -0.4513
     32 C          50.8505   13.5199  -22.7139 C.ar    1  UNL1        0.1580
     33 C          50.0100   14.5236  -22.2227 C.ar    1  UNL1        0.0677
     34 C          49.5510   15.5352  -23.0702 C.ar    1  UNL1        0.1398
     35 F          48.6599   16.4431  -22.5971 F       1  UNL1       -0.2044
     36 C          49.9620   15.5704  -24.4147 C.ar    1  UNL1        0.0175
     37 C          50.8779   14.6136  -24.8800 C.ar    1  UNL1        0.0130
     38 C          51.3368   13.6015  -24.0324 C.ar    1  UNL1        0.0919
     39 CL         52.4929   12.4315  -24.6529 Cl      1  UNL1       -0.0791
     40 C          49.3231   16.5284  -25.3835 C.3     1  UNL1        0.1382
     41 C          49.0313   15.8237  -26.6733 C.2     1  UNL1        0.3234
     42 O          49.8416   15.9214  -27.6342 O.2     1  UNL1       -0.2497
     43 O          47.8589   15.0654  -26.7955 O.3     1  UNL1       -0.4215
     44 C          47.4271   14.0990  -25.8363 C.3     1  UNL1        0.3207
     45 O          47.5684   12.7914  -26.3841 O.3     1  UNL1       -0.3070
     46 C          46.4600   12.3443  -27.1528 C.3     1  UNL1        0.2456
     47 C          45.1262   12.3267  -26.3447 C.3     1  UNL1        0.1781
     48 O          44.7218   11.0082  -26.0648 O.3     1  UNL1       -0.3790
     49 C          45.2351   13.1343  -25.0400 C.3     1  UNL1        0.1733
     50 O          43.9440   13.4229  -24.5664 O.3     1  UNL1       -0.3793
     51 C          46.0028   14.4293  -25.3134 C.3     1  UNL1        0.2106
     52 O          46.0880   15.1769  -24.1259 O.3     1  UNL1       -0.3766
     53 H          45.4412   10.5794  -25.5305 H       1  UNL1        0.2106
     54 H          44.0252   13.6006  -23.5929 H       1  UNL1        0.2105
     55 H          46.0654   16.1355  -24.3815 H       1  UNL1        0.2107
     56 C          46.3537   13.0672  -28.4754 C.2     1  UNL1        0.3439
     57 O          46.5804   12.4688  -29.5613 O.2     1  UNL1       -0.2475
     58 O          46.0006   14.4131  -28.4942 O.3     1  UNL1       -0.4785
     59 H          45.9319   14.9203  -29.3677 H       1  UNL1        0.2951
@<TRIPOS>BOND
     1    11    12    1
     2    12    13    1
     3    12    14    1
     4    12     7    1
     5     7     8   am
     6     8     9    2
     7     8     1    1
     8     1     2   ar
     9     2     3   ar
    10     3     4   ar
    11     4    31    1
    12    31    32    1
    13    32    33   ar
    14    33    34   ar
    15    34    35    1
    16    34    36   ar
    17    36    40    1
    18    40    41    1
    19    41    42    2
    20    41    43    1
    21    43    44    1
    22    44    45    1
    23    45    46    1
    24    46    56    1
    25    56    57    2
    26    56    58    1
    27    46    47    1
    28    47    48    1
    29    47    49    1
    30    49    50    1
    31    49    51    1
    32    51    52    1
    33    36    37   ar
    34    37    38   ar
    35    38    39    1
    36     4     5   ar
    37     5    15    1
    38    15    17    1
    39    17    18    2
    40    17    19    2
    41    17    20    1
    42    20    21   ar
    43    21    22   ar
    44    22    23   ar
    45    23    27    1
    46    27    28    1
    47    28    29    1
    48    29    30    1
    49    23    24   ar
    50    24    25   ar
    51    25    26    1
    52     5     6   ar
    53     6     1   ar
    54    38    32   ar
    55    25    20   ar
    56    51    44    1
    57    29    27    1
    58     7    10    1
    59    58    59    1
    60    48    53    1
    61    50    54    1
    62    52    55    1
    63    15    16    1
@<TRIPOS>MOLECULE
*****
 59 63 0 0 0
SMALL
GASTEIGER

@<TRIPOS>ATOM
      1 C          48.7269   13.6144  -25.8269 C.ar    1  UNL1        0.0548
      2 C          49.0758   14.9640  -25.6494 C.ar    1  UNL1        0.0077
      3 C          50.1315   15.3181  -24.8047 C.ar    1  UNL1        0.0390
      4 C          50.8674   14.3381  -24.1311 C.ar    1  UNL1        0.1598
      5 C          50.5552   12.9748  -24.3440 C.ar    1  UNL1        0.0993
      6 C          49.4713   12.6291  -25.1600 C.ar    1  UNL1        0.0235
      7 N          47.7848   12.0645  -27.6113 N.am    1  UNL1       -0.3040
      8 C          47.6423   13.2154  -26.7563 C.2     1  UNL1        0.2458
      9 O          46.5883   13.9060  -26.7973 O.2     1  UNL1       -0.2701
     10 H          48.7494   11.6848  -27.7457 H       1  UNL1        0.1496
     11 C          47.1866   10.0800  -28.9332 C.3     1  UNL1        0.0196
     12 C          46.6679   11.3880  -28.3007 C.3     1  UNL1        0.0572
     13 C          45.5559   11.0361  -27.2928 C.3     1  UNL1        0.0196
     14 C          46.1087   12.2854  -29.4223 C.3     1  UNL1        0.0196
     15 N          51.3840   11.9334  -23.8222 N.pl3   1  UNL1       -0.2120
     16 H          51.1115   11.4403  -22.9449 H       1  UNL1        0.1738
     17 S          52.7402   11.3503  -24.7251 S.O2    1  UNL1        0.0745
     18 O          53.4571   10.3076  -23.9143 O.2     1  UNL1       -0.1499
     19 O          53.7014   12.4756  -24.9847 O.2     1  UNL1       -0.1499
     20 C          52.1650   10.6262  -26.2337 C.ar    1  UNL1        0.1356
     21 C          52.7999   10.9859  -27.4295 C.ar    1  UNL1        0.0207
     22 C          52.4629   10.3611  -28.6309 C.ar    1  UNL1       -0.0028
     23 C          51.4876    9.3549  -28.6681 C.ar    1  UNL1       -0.0208
     24 C          50.8426    8.9961  -27.4662 C.ar    1  UNL1        0.0085
     25 C          51.1745    9.6205  -26.2580 C.ar    1  UNL1        0.0762
     26 CL         50.3603    9.0592  -24.8007 Cl      1  UNL1       -0.0809
     27 C          51.2049    8.6958  -30.0080 C.3     1  UNL1        0.0328
     28 C          52.1296    7.5553  -30.4143 C.3     1  UNL1        0.0159
     29 C          50.6905    7.2609  -30.0024 C.3     1  UNL1        0.0572
     30 I          49.4008    6.7941  -31.6461 I       1  UNL1       -0.0750
     31 O          51.9080   14.7543  -23.2835 O.3     1  UNL1       -0.4513
     32 C          52.0076   14.3732  -21.9417 C.ar    1  UNL1        0.1580
     33 C          53.2126   13.8372  -21.4774 C.ar    1  UNL1        0.0677
     34 C          53.2891   13.2796  -20.1986 C.ar    1  UNL1        0.1398
     35 F          54.4406   12.6788  -19.8049 F       1  UNL1       -0.2044
     36 C          52.1628   13.2877  -19.3564 C.ar    1  UNL1        0.0175
     37 C          50.9815   13.9084  -19.7923 C.ar    1  UNL1        0.0130
     38 C          50.9049   14.4660  -21.0716 C.ar    1  UNL1        0.0919
     39 CL         49.4103   15.2445  -21.5720 Cl      1  UNL1       -0.0791
     40 C          52.1709   12.5178  -18.0634 C.3     1  UNL1        0.1382
     41 C          50.7789   12.0740  -17.7306 C.2     1  UNL1        0.3234
     42 O          50.1709   12.6032  -16.7611 O.2     1  UNL1       -0.2497
     43 O          50.1704   11.0738  -18.5013 O.3     1  UNL1       -0.4215
     44 C          48.7572   10.9144  -18.6342 C.3     1  UNL1        0.3207
     45 O          48.4785    9.6758  -19.2808 O.3     1  UNL1       -0.3070
     46 C          48.4833    9.7304  -20.7007 C.3     1  UNL1        0.2456
     47 C          47.4539   10.7522  -21.2741 C.3     1  UNL1        0.1781
     48 O          46.3705   10.0914  -21.8824 O.3     1  UNL1       -0.3790
     49 C          46.9431   11.7200  -20.1930 C.3     1  UNL1        0.1733
     50 O          46.3568   12.8367  -20.8125 O.3     1  UNL1       -0.3793
     51 C          48.1168   12.1553  -19.3133 C.3     1  UNL1        0.2106
     52 O          47.6548   13.0537  -18.3356 O.3     1  UNL1       -0.3766
     53 H          45.9326    9.5299  -21.1897 H       1  UNL1        0.2106
     54 H          45.7348   13.2410  -20.1527 H       1  UNL1        0.2105
     55 H          48.3877   13.7000  -18.1625 H       1  UNL1        0.2107
     56 C          49.8764    9.8997  -21.2609 C.2     1  UNL1        0.3439
     57 O          50.5572    8.9010  -21.6182 O.2     1  UNL1       -0.2475
     58 O          50.4149   11.1769  -21.3836 O.3     1  UNL1       -0.4785
     59 H          51.3496   11.3142  -21.7477 H       1  UNL1        0.2951
@<TRIPOS>BOND
     1    11    12    1
     2    12    13    1
     3    12    14    1
     4    12     7    1
     5     7     8   am
     6     8     9    2
     7     8     1    1
     8     1     2   ar
     9     2     3   ar
    10     3     4   ar
    11     4    31    1
    12    31    32    1
    13    32    33   ar
    14    33    34   ar
    15    34    35    1
    16    34    36   ar
    17    36    40    1
    18    40    41    1
    19    41    42    2
    20    41    43    1
    21    43    44    1
    22    44    45    1
    23    45    46    1
    24    46    56    1
    25    56    57    2
    26    56    58    1
    27    46    47    1
    28    47    48    1
    29    47    49    1
    30    49    50    1
    31    49    51    1
    32    51    52    1
    33    36    37   ar
    34    37    38   ar
    35    38    39    1
    36     4     5   ar
    37     5    15    1
    38    15    17    1
    39    17    18    2
    40    17    19    2
    41    17    20    1
    42    20    21   ar
    43    21    22   ar
    44    22    23   ar
    45    23    27    1
    46    27    28    1
    47    28    29    1
    48    29    30    1
    49    23    24   ar
    50    24    25   ar
    51    25    26    1
    52     5     6   ar
    53     6     1   ar
    54    38    32   ar
    55    25    20   ar
    56    51    44    1
    57    29    27    1
    58     7    10    1
    59    58    59    1
    60    48    53    1
    61    50    54    1
    62    52    55    1
    63    15    16    1
@<TRIPOS>MOLECULE
*****
 59 63 0 0 0
SMALL
GASTEIGER

@<TRIPOS>ATOM
      1 C          49.5418    9.3285  -27.7602 C.ar    1  UNL1        0.0548
      2 C          48.4695   10.2163  -27.9516 C.ar    1  UNL1        0.0077
      3 C          48.1942   11.2094  -27.0075 C.ar    1  UNL1        0.0390
      4 C          48.9860   11.3466  -25.8630 C.ar    1  UNL1        0.1598
      5 C          50.0978   10.4894  -25.6881 C.ar    1  UNL1        0.0993
      6 C          50.3439    9.4717  -26.6175 C.ar    1  UNL1        0.0235
      7 N          50.5485    8.6582  -29.9988 N.am    1  UNL1       -0.3040
      8 C          49.8801    8.3000  -28.7737 C.2     1  UNL1        0.2458
      9 O          49.5651    7.0991  -28.5539 O.2     1  UNL1       -0.2701
     10 H          50.5515    9.6692  -30.2642 H       1  UNL1        0.1496
     11 C          51.8431    8.4727  -32.0804 C.3     1  UNL1        0.0196
     12 C          51.2283    7.7010  -30.8944 C.3     1  UNL1        0.0572
     13 C          52.3628    6.9802  -30.1397 C.3     1  UNL1        0.0196
     14 C          50.2189    6.6762  -31.4484 C.3     1  UNL1        0.0196
     15 N          51.0385   10.7002  -24.6324 N.pl3   1  UNL1       -0.2120
     16 H          51.0226   10.0865  -23.7897 H       1  UNL1        0.1738
     17 S          52.3259   11.8421  -24.8137 S.O2    1  UNL1        0.0745
     18 O          52.9778   11.6373  -26.1522 O.2     1  UNL1       -0.1499
     19 O          53.3649   11.6114  -23.7533 O.2     1  UNL1       -0.1499
     20 C          51.6642   13.4811  -24.7289 C.ar    1  UNL1        0.1356
     21 C          51.1808   14.0660  -25.9064 C.ar    1  UNL1        0.0207
     22 C          50.5462   15.3083  -25.8763 C.ar    1  UNL1       -0.0028
     23 C          50.3709   15.9961  -24.6674 C.ar    1  UNL1       -0.0208
     24 C          50.8628   15.4118  -23.4817 C.ar    1  UNL1        0.0085
     25 C          51.5025   14.1667  -23.5054 C.ar    1  UNL1        0.0762
     26 CL         52.0246   13.4901  -21.9655 Cl      1  UNL1       -0.0809
     27 C          49.6354   17.3252  -24.7123 C.3     1  UNL1        0.0328
     28 C          49.9863   18.2590  -25.8639 C.3     1  UNL1        0.0159
     29 C          48.6360   17.5493  -25.8414 C.3     1  UNL1        0.0572
     30 I          46.9998   18.8245  -25.3126 I       1  UNL1       -0.0750
     31 O          48.6524   12.3535  -24.9414 O.3     1  UNL1       -0.4513
     32 C          48.1489   12.0917  -23.6633 C.ar    1  UNL1        0.1580
     33 C          48.2392   10.7933  -23.1524 C.ar    1  UNL1        0.0677
     34 C          47.5869   10.4572  -21.9635 C.ar    1  UNL1        0.1398
     35 F          47.6077    9.1689  -21.5370 F       1  UNL1       -0.2044
     36 C          46.8653   11.4336  -21.2537 C.ar    1  UNL1        0.0175
     37 C          46.8532   12.7570  -21.7223 C.ar    1  UNL1        0.0130
     38 C          47.5056   13.0931  -22.9117 C.ar    1  UNL1        0.0919
     39 CL         47.4756   14.7647  -23.4551 Cl      1  UNL1       -0.0791
     40 C          45.9971   11.0442  -20.0879 C.3     1  UNL1        0.1382
     41 C          46.3640   11.8637  -18.8883 C.2     1  UNL1        0.3234
     42 O          45.6171   12.8142  -18.5304 O.2     1  UNL1       -0.2497
     43 O          47.5354   11.5635  -18.1794 O.3     1  UNL1       -0.4215
     44 C          48.3588   12.5420  -17.5432 C.3     1  UNL1        0.3207
     45 O          49.2485   13.1082  -18.5011 O.3     1  UNL1       -0.3070
     46 C          50.4593   12.3883  -18.6886 C.3     1  UNL1        0.2456
     47 C          51.2866   12.2362  -17.3752 C.3     1  UNL1        0.1781
     48 O          52.4400   13.0418  -17.4079 O.3     1  UNL1       -0.3790
     49 C          50.4483   12.5639  -16.1278 C.3     1  UNL1        0.1733
     50 O          51.0859   12.0375  -14.9915 O.3     1  UNL1       -0.3793
     51 C          49.0538   11.9541  -16.2852 C.3     1  UNL1        0.2106
     52 O          48.2921   12.2376  -15.1382 O.3     1  UNL1       -0.3766
     53 H          52.1458   13.9852  -17.5095 H       1  UNL1        0.2106
     54 H          50.7542   12.5508  -14.2090 H       1  UNL1        0.2105
     55 H          47.6849   11.4663  -14.9923 H       1  UNL1        0.2107
     56 C          50.2402   11.0829  -19.4173 C.2     1  UNL1        0.3439
     57 O          50.4608   10.9863  -20.6546 O.2     1  UNL1       -0.2475
     58 O          49.7884    9.9718  -18.7119 O.3     1  UNL1       -0.4785
     59 H          49.6260    9.0892  -19.1807 H       1  UNL1        0.2951
@<TRIPOS>BOND
     1    11    12    1
     2    12    13    1
     3    12    14    1
     4    12     7    1
     5     7     8   am
     6     8     9    2
     7     8     1    1
     8     1     2   ar
     9     2     3   ar
    10     3     4   ar
    11     4    31    1
    12    31    32    1
    13    32    33   ar
    14    33    34   ar
    15    34    35    1
    16    34    36   ar
    17    36    40    1
    18    40    41    1
    19    41    42    2
    20    41    43    1
    21    43    44    1
    22    44    45    1
    23    45    46    1
    24    46    56    1
    25    56    57    2
    26    56    58    1
    27    46    47    1
    28    47    48    1
    29    47    49    1
    30    49    50    1
    31    49    51    1
    32    51    52    1
    33    36    37   ar
    34    37    38   ar
    35    38    39    1
    36     4     5   ar
    37     5    15    1
    38    15    17    1
    39    17    18    2
    40    17    19    2
    41    17    20    1
    42    20    21   ar
    43    21    22   ar
    44    22    23   ar
    45    23    27    1
    46    27    28    1
    47    28    29    1
    48    29    30    1
    49    23    24   ar
    50    24    25   ar
    51    25    26    1
    52     5     6   ar
    53     6     1   ar
    54    38    32   ar
    55    25    20   ar
    56    51    44    1
    57    29    27    1
    58     7    10    1
    59    58    59    1
    60    48    53    1
    61    50    54    1
    62    52    55    1
    63    15    16    1
@<TRIPOS>MOLECULE
*****
 59 63 0 0 0
SMALL
GASTEIGER

@<TRIPOS>ATOM
      1 C          49.2788   14.5578  -25.7669 C.ar    1  UNL1        0.0548
      2 C          47.9573   14.0847  -25.6992 C.ar    1  UNL1        0.0077
      3 C          47.6786   12.8390  -25.1302 C.ar    1  UNL1        0.0390
      4 C          48.7052   12.0464  -24.6071 C.ar    1  UNL1        0.1598
      5 C          50.0318   12.5376  -24.6257 C.ar    1  UNL1        0.0993
      6 C          50.3089   13.7684  -25.2329 C.ar    1  UNL1        0.0235
      7 N          48.8698   17.0664  -25.8843 N.am    1  UNL1       -0.3040
      8 C          49.5894   15.8974  -26.3221 C.2     1  UNL1        0.2458
      9 O          50.4919   16.0020  -27.1964 O.2     1  UNL1       -0.2701
     10 H          47.9705   16.9115  -25.3746 H       1  UNL1        0.1496
     11 C          50.8012   18.5758  -25.6981 C.3     1  UNL1        0.0196
     12 C          49.3168   18.4569  -26.1012 C.3     1  UNL1        0.0572
     13 C          49.1832   18.8323  -27.5903 C.3     1  UNL1        0.0196
     14 C          48.4943   19.4261  -25.2293 C.3     1  UNL1        0.0196
     15 N          51.0871   11.8503  -23.9492 N.pl3   1  UNL1       -0.2120
     16 H          50.9049   11.3884  -23.0324 H       1  UNL1        0.1738
     17 S          52.6194   11.6135  -24.7174 S.O2    1  UNL1        0.0745
     18 O          53.4604   10.7060  -23.8643 O.2     1  UNL1       -0.1499
     19 O          53.3365   12.9281  -24.8403 O.2     1  UNL1       -0.1499
     20 C          52.3657   10.8618  -26.2991 C.ar    1  UNL1        0.1356
     21 C          53.0345   11.3987  -27.4067 C.ar    1  UNL1        0.0207
     22 C          52.9601   10.7773  -28.6538 C.ar    1  UNL1       -0.0028
     23 C          52.2213    9.5984  -28.8259 C.ar    1  UNL1       -0.0208
     24 C          51.5418    9.0600  -27.7134 C.ar    1  UNL1        0.0085
     25 C          51.6106    9.6797  -26.4599 C.ar    1  UNL1        0.0762
     26 CL         50.7814    8.8968  -25.1178 Cl      1  UNL1       -0.0809
     27 C          52.2213    8.9610  -30.2055 C.3     1  UNL1        0.0328
     28 C          53.3478    7.9791  -30.5019 C.3     1  UNL1        0.0159
     29 C          51.9241    7.4690  -30.3016 C.3     1  UNL1        0.0572
     30 I          50.9503    6.8926  -32.1189 I       1  UNL1       -0.0750
     31 O          48.3669   10.7967  -24.0611 O.3     1  UNL1       -0.4513
     32 C          47.9720   10.6186  -22.7315 C.ar    1  UNL1        0.1580
     33 C          46.8279   11.2770  -22.2705 C.ar    1  UNL1        0.0677
     34 C          46.5103   11.2684  -20.9100 C.ar    1  UNL1        0.1398
     35 F          45.4501   11.9938  -20.4719 F       1  UNL1       -0.2044
     36 C          47.3203   10.5654  -20.0004 C.ar    1  UNL1        0.0175
     37 C          48.4161    9.8303  -20.4797 C.ar    1  UNL1        0.0130
     38 C          48.7340    9.8392  -21.8407 C.ar    1  UNL1        0.0919
     39 CL         50.1072    8.8945  -22.3995 Cl      1  UNL1       -0.0791
     40 C          47.1079   10.7117  -18.5178 C.3     1  UNL1        0.1382
     41 C          47.6987   12.0060  -18.0476 C.2     1  UNL1        0.3234
     42 O          47.8276   12.9633  -18.8580 O.2     1  UNL1       -0.2497
     43 O          48.1024   12.1355  -16.7117 O.3     1  UNL1       -0.4215
     44 C          49.3326   11.6259  -16.1944 C.3     1  UNL1        0.3207
     45 O          49.2727   11.5972  -14.7712 O.3     1  UNL1       -0.3070
     46 C          49.6483   12.8106  -14.1342 C.3     1  UNL1        0.2456
     47 C          51.0978   13.2623  -14.4914 C.3     1  UNL1        0.1781
     48 O          51.9640   13.0964  -13.3948 O.3     1  UNL1       -0.3790
     49 C          51.6470   12.5121  -15.7169 C.3     1  UNL1        0.1733
     50 O          52.7500   13.2139  -16.2320 O.3     1  UNL1       -0.3793
     51 C          50.5460   12.4024  -16.7738 C.3     1  UNL1        0.2106
     52 O          51.0515   11.7325  -17.9016 O.3     1  UNL1       -0.3766
     53 H          51.9647   12.1325  -13.1545 H       1  UNL1        0.2106
     54 H          53.2903   12.5634  -16.7523 H       1  UNL1        0.2105
     55 H          50.6017   12.1188  -18.6974 H       1  UNL1        0.2107
     56 C          48.6152   13.8972  -14.3214 C.2     1  UNL1        0.3439
     57 O          47.8093   14.1914  -13.3979 O.2     1  UNL1       -0.2475
     58 O          48.5530   14.5825  -15.5309 O.3     1  UNL1       -0.4785
     59 H          47.8634   15.3081  -15.6823 H       1  UNL1        0.2951
@<TRIPOS>BOND
     1    11    12    1
     2    12    13    1
     3    12    14    1
     4    12     7    1
     5     7     8   am
     6     8     9    2
     7     8     1    1
     8     1     2   ar
     9     2     3   ar
    10     3     4   ar
    11     4    31    1
    12    31    32    1
    13    32    33   ar
    14    33    34   ar
    15    34    35    1
    16    34    36   ar
    17    36    40    1
    18    40    41    1
    19    41    42    2
    20    41    43    1
    21    43    44    1
    22    44    45    1
    23    45    46    1
    24    46    56    1
    25    56    57    2
    26    56    58    1
    27    46    47    1
    28    47    48    1
    29    47    49    1
    30    49    50    1
    31    49    51    1
    32    51    52    1
    33    36    37   ar
    34    37    38   ar
    35    38    39    1
    36     4     5   ar
    37     5    15    1
    38    15    17    1
    39    17    18    2
    40    17    19    2
    41    17    20    1
    42    20    21   ar
    43    21    22   ar
    44    22    23   ar
    45    23    27    1
    46    27    28    1
    47    28    29    1
    48    29    30    1
    49    23    24   ar
    50    24    25   ar
    51    25    26    1
    52     5     6   ar
    53     6     1   ar
    54    38    32   ar
    55    25    20   ar
    56    51    44    1
    57    29    27    1
    58     7    10    1
    59    58    59    1
    60    48    53    1
    61    50    54    1
    62    52    55    1
    63    15    16    1
@<TRIPOS>MOLECULE
*****
 59 63 0 0 0
SMALL
GASTEIGER

@<TRIPOS>ATOM
      1 C          51.0044    7.9862  -30.1235 C.ar    1  UNL1        0.0548
      2 C          49.8098    7.7846  -30.8355 C.ar    1  UNL1        0.0077
      3 C          48.5980    8.2742  -30.3402 C.ar    1  UNL1        0.0390
      4 C          48.5525    8.9832  -29.1356 C.ar    1  UNL1        0.1598
      5 C          49.7578    9.2341  -28.4385 C.ar    1  UNL1        0.0993
      6 C          50.9620    8.7067  -28.9199 C.ar    1  UNL1        0.0235
      7 N          53.5398    8.1491  -30.2609 N.am    1  UNL1       -0.3040
      8 C          52.3066    7.5174  -30.6562 C.2     1  UNL1        0.2458
      9 O          52.3224    6.5575  -31.4735 O.2     1  UNL1       -0.2701
     10 H          53.4723    9.0885  -29.8074 H       1  UNL1        0.1496
     11 C          55.0803    6.4283  -29.4190 C.3     1  UNL1        0.0196
     12 C          54.8812    7.5608  -30.4475 C.3     1  UNL1        0.0572
     13 C          55.0077    6.9633  -31.8629 C.3     1  UNL1        0.0196
     14 C          55.9704    8.6270  -30.2177 C.3     1  UNL1        0.0196
     15 N          49.7909   10.1003  -27.3016 N.pl3   1  UNL1       -0.2120
     16 H          49.2944   11.0166  -27.3296 H       1  UNL1        0.1738
     17 S          50.4886    9.5700  -25.8095 S.O2    1  UNL1        0.0745
     18 O          51.9727    9.8024  -25.8524 O.2     1  UNL1       -0.1499
     19 O          50.2563    8.0960  -25.6338 O.2     1  UNL1       -0.1499
     20 C          49.7880   10.5011  -24.4779 C.ar    1  UNL1        0.1356
     21 C          49.1343    9.8072  -23.4514 C.ar    1  UNL1        0.0207
     22 C          48.6642   10.4805  -22.3233 C.ar    1  UNL1       -0.0028
     23 C          48.8415   11.8644  -22.1872 C.ar    1  UNL1       -0.0208
     24 C          49.4935   12.5659  -23.2226 C.ar    1  UNL1        0.0085
     25 C          49.9655   11.8966  -24.3581 C.ar    1  UNL1        0.0762
     26 CL         50.8232   12.8484  -25.5665 Cl      1  UNL1       -0.0809
     27 C          48.3361   12.5182  -20.9117 C.3     1  UNL1        0.0328
     28 C          46.9549   12.0929  -20.4297 C.3     1  UNL1        0.0159
     29 C          48.1995   11.6457  -19.6691 C.3     1  UNL1        0.0572
     30 I          48.5116   12.6974  -17.8308 I       1  UNL1       -0.0750
     31 O          47.3038    9.4383  -28.6796 O.3     1  UNL1       -0.4513
     32 C          47.0440   10.7721  -28.3492 C.ar    1  UNL1        0.1580
     33 C          47.2041   11.1850  -27.0229 C.ar    1  UNL1        0.0677
     34 C          46.7799   12.4553  -26.6247 C.ar    1  UNL1        0.1398
     35 F          46.8560   12.7991  -25.3139 F       1  UNL1       -0.2044
     36 C          46.2227   13.3405  -27.5648 C.ar    1  UNL1        0.0175
     37 C          46.1480   12.9557  -28.9128 C.ar    1  UNL1        0.0130
     38 C          46.5720   11.6849  -29.3112 C.ar    1  UNL1        0.0919
     39 CL         46.4722   11.2492  -31.0114 Cl      1  UNL1       -0.0791
     40 C          45.5812   14.6258  -27.1164 C.3     1  UNL1        0.1382
     41 C          46.2262   15.7836  -27.8156 C.2     1  UNL1        0.3234
     42 O          46.0144   15.9659  -29.0450 O.2     1  UNL1       -0.2497
     43 O          47.0589   16.6493  -27.0932 O.3     1  UNL1       -0.4215
     44 C          48.4810   16.5284  -27.0349 C.3     1  UNL1        0.3207
     45 O          48.8291   15.4178  -26.2131 O.3     1  UNL1       -0.3070
     46 C          48.9186   15.7083  -24.8250 C.3     1  UNL1        0.2456
     47 C          49.9619   16.8217  -24.5021 C.3     1  UNL1        0.1781
     48 O          51.0977   16.2826  -23.8700 O.3     1  UNL1       -0.3790
     49 C          50.3780   17.6008  -25.7616 C.3     1  UNL1        0.1733
     50 O          50.9804   18.8110  -25.3781 O.3     1  UNL1       -0.3793
     51 C          49.1387   17.8716  -26.6171 C.3     1  UNL1        0.2106
     52 O          49.5145   18.5989  -27.7599 O.3     1  UNL1       -0.3766
     53 H          51.5000   15.6178  -24.4890 H       1  UNL1        0.2106
     54 H          51.5478   19.1059  -26.1376 H       1  UNL1        0.2105
     55 H          48.7578   19.1999  -27.9861 H       1  UNL1        0.2107
     56 C          47.5629   15.9547  -24.2047 C.2     1  UNL1        0.3439
     57 O          46.9264   15.0212  -23.6461 O.2     1  UNL1       -0.2475
     58 O          47.0098   17.2307  -24.2513 O.3     1  UNL1       -0.4785
     59 H          46.0991   17.4175  -23.8504 H       1  UNL1        0.2951
@<TRIPOS>BOND
     1    11    12    1
     2    12    13    1
     3    12    14    1
     4    12     7    1
     5     7     8   am
     6     8     9    2
     7     8     1    1
     8     1     2   ar
     9     2     3   ar
    10     3     4   ar
    11     4    31    1
    12    31    32    1
    13    32    33   ar
    14    33    34   ar
    15    34    35    1
    16    34    36   ar
    17    36    40    1
    18    40    41    1
    19    41    42    2
    20    41    43    1
    21    43    44    1
    22    44    45    1
    23    45    46    1
    24    46    56    1
    25    56    57    2
    26    56    58    1
    27    46    47    1
    28    47    48    1
    29    47    49    1
    30    49    50    1
    31    49    51    1
    32    51    52    1
    33    36    37   ar
    34    37    38   ar
    35    38    39    1
    36     4     5   ar
    37     5    15    1
    38    15    17    1
    39    17    18    2
    40    17    19    2
    41    17    20    1
    42    20    21   ar
    43    21    22   ar
    44    22    23   ar
    45    23    27    1
    46    27    28    1
    47    28    29    1
    48    29    30    1
    49    23    24   ar
    50    24    25   ar
    51    25    26    1
    52     5     6   ar
    53     6     1   ar
    54    38    32   ar
    55    25    20   ar
    56    51    44    1
    57    29    27    1
    58     7    10    1
    59    58    59    1
    60    48    53    1
    61    50    54    1
    62    52    55    1
    63    15    16    1
