@<TRIPOS>MOLECULE
*****
 45 50 0 0 0
SMALL
GASTEIGER

@<TRIPOS>ATOM
      1 C          13.3752   83.1254   24.8150 C.ar    1  UNL1        0.0702
      2 C          13.2645   84.0650   23.7841 C.ar    1  UNL1        0.0191
      3 C          13.6560   85.3884   23.9916 C.ar    1  UNL1        0.0356
      4 C          14.1478   85.7799   25.2498 C.ar    1  UNL1        0.1317
      5 N          14.2186   84.8512   26.2448 N.ar    1  UNL1       -0.2279
      6 C          13.8467   83.5567   26.0645 C.ar    1  UNL1        0.1149
      7 N          14.5762   87.1392   25.5026 N.pl3   1  UNL1       -0.2949
      8 C          14.0975   88.2299   24.6324 C.3     1  UNL1        0.0922
      9 C          14.9730   89.4872   24.7307 C.3     1  UNL1        0.0252
     10 C          16.4419   89.1391   25.0112 C.3     1  UNL1        0.0471
     11 C          16.5679   88.4147   26.3705 C.3     1  UNL1        0.0235
     12 C          15.4003   87.4393   26.6920 C.3     1  UNL1        0.0743
     13 C          14.5022   87.9696   27.8166 C.3     1  UNL1        0.0215
     14 C          17.0689   88.3279   23.8600 C.3     1  UNL1        0.2054
     15 O          16.6623   88.8735   22.6066 O.3     1  UNL1       -0.4755
     16 C          15.8175   88.2235   21.6949 C.ar    1  UNL1        0.1388
     17 C          14.9124   88.9227   20.8757 C.ar    1  UNL1        0.0369
     18 C          14.0997   88.2291   19.9775 C.ar    1  UNL1        0.0033
     19 C          14.1759   86.8376   19.8901 C.ar    1  UNL1        0.0066
     20 C          15.0645   86.1192   20.7093 C.ar    1  UNL1        0.0785
     21 C          15.8886   86.8275   21.6036 C.ar    1  UNL1        0.0433
     22 C          15.1370   84.6413   20.6047 C.2     1  UNL1        0.3381
     23 O          15.6355   83.9718   21.5485 O.2     1  UNL1       -0.2451
     24 O          14.6805   83.9610   19.4761 O.3     1  UNL1       -0.4771
     25 H          14.3663   84.4383   18.6414 H       1  UNL1        0.2954
     26 C          11.6118   81.2996   24.8307 C.2     1  UNL1        0.2839
     27 O          10.8000   82.0012   25.4921 O.2     1  UNL1       -0.2665
     28 N          12.9482   81.7705   24.5925 N.am    1  UNL1       -0.2766
     29 H          13.6746   81.0689   24.3227 H       1  UNL1        0.1553
     30 C          13.2342   78.5509   25.1234 C.3     1  UNL1        0.0345
     31 C          11.9079   78.7697   24.4597 C.ar    1  UNL1        0.0202
     32 C          11.2032   79.9721   24.3333 C.ar    1  UNL1        0.1946
     33 O          10.0700   79.7660   23.6858 O.2     1  UNL1       -0.4492
     34 C          10.0038   78.4921   23.3852 C.ar    1  UNL1        0.1452
     35 C           8.9826   77.8373   22.7058 C.ar    1  UNL1        0.0375
     36 C           9.1138   76.4546   22.4900 C.ar    1  UNL1        0.0031
     37 C          10.2576   75.7501   22.9538 C.ar    1  UNL1        0.0002
     38 C          11.2750   76.4548   23.6410 C.ar    1  UNL1        0.0028
     39 C          11.1119   77.8271   23.8374 C.ar    1  UNL1        0.0337
     40 C          10.3851   74.2892   22.7202 C.ar    1  UNL1        0.0000
     41 C          11.6466   73.6653   22.7606 C.ar    1  UNL1        0.0000
     42 C          11.7638   72.2897   22.5391 C.ar    1  UNL1        0.0000
     43 C          10.6268   71.5224   22.2764 C.ar    1  UNL1        0.0000
     44 C           9.3696   72.1295   22.2339 C.ar    1  UNL1        0.0000
     45 C           9.2467   73.5048   22.4536 C.ar    1  UNL1        0.0000
@<TRIPOS>BOND
     1    30    31    1
     2    31    32   ar
     3    32    26    1
     4    26    27    2
     5    26    28   am
     6    28     1    1
     7     1     2   ar
     8     2     3   ar
     9     3     4   ar
    10     4     7    1
    11     7     8    1
    12     8     9    1
    13     9    10    1
    14    10    14    1
    15    14    15    1
    16    15    16    1
    17    16    17   ar
    18    17    18   ar
    19    18    19   ar
    20    19    20   ar
    21    20    22    1
    22    22    23    2
    23    22    24    1
    24    20    21   ar
    25    10    11    1
    26    11    12    1
    27    12    13    1
    28     4     5   ar
    29     5     6   ar
    30    32    33   ar
    31    33    34   ar
    32    34    35   ar
    33    35    36   ar
    34    36    37   ar
    35    37    40    1
    36    40    41   ar
    37    41    42   ar
    38    42    43   ar
    39    43    44   ar
    40    44    45   ar
    41    37    38   ar
    42    38    39   ar
    43    39    31   ar
    44     6     1   ar
    45    39    34   ar
    46    12     7    1
    47    45    40   ar
    48    21    16   ar
    49    28    29    1
    50    24    25    1
@<TRIPOS>MOLECULE
*****
 45 50 0 0 0
SMALL
GASTEIGER

@<TRIPOS>ATOM
      1 C          13.5999   82.9735   24.9168 C.ar    1  UNL1        0.0702
      2 C          13.4901   83.7761   23.7760 C.ar    1  UNL1        0.0191
      3 C          13.7162   85.1509   23.8570 C.ar    1  UNL1        0.0356
      4 C          14.0391   85.7316   25.0967 C.ar    1  UNL1        0.1317
      5 N          14.1117   84.9311   26.1973 N.ar    1  UNL1       -0.2279
      6 C          13.8992   83.5900   26.1414 C.ar    1  UNL1        0.1149
      7 N          14.2935   87.1510   25.2214 N.pl3   1  UNL1       -0.2949
      8 C          13.3519   88.1172   24.6248 C.3     1  UNL1        0.0922
      9 C          13.9760   89.5074   24.4386 C.3     1  UNL1        0.0252
     10 C          15.4816   89.4229   24.1496 C.3     1  UNL1        0.0471
     11 C          16.2177   88.7726   25.3428 C.3     1  UNL1        0.0235
     12 C          15.4325   87.6232   26.0359 C.3     1  UNL1        0.0743
     13 C          14.9332   88.0274   27.4287 C.3     1  UNL1        0.0215
     14 C          15.7707   88.6951   22.8218 C.3     1  UNL1        0.2054
     15 O          14.7631   89.0165   21.8650 O.3     1  UNL1       -0.4755
     16 C          14.0392   88.0690   21.1264 C.ar    1  UNL1        0.1388
     17 C          12.7000   88.2728   20.7463 C.ar    1  UNL1        0.0369
     18 C          12.0266   87.3019   20.0032 C.ar    1  UNL1        0.0033
     19 C          12.6753   86.1210   19.6371 C.ar    1  UNL1        0.0066
     20 C          14.0092   85.8923   20.0182 C.ar    1  UNL1        0.0785
     21 C          14.6843   86.8817   20.7573 C.ar    1  UNL1        0.0433
     22 C          14.6873   84.6343   19.6207 C.2     1  UNL1        0.3381
     23 O          14.7434   84.3122   18.4039 O.2     1  UNL1       -0.2451
     24 O          15.2580   83.7779   20.5618 O.3     1  UNL1       -0.4771
     25 H          15.1597   83.9194   21.5586 H       1  UNL1        0.2954
     26 C          12.0294   80.9880   24.7297 C.2     1  UNL1        0.2839
     27 O          11.0121   81.6879   24.9825 O.2     1  UNL1       -0.2665
     28 N          13.3435   81.5618   24.8218 N.am    1  UNL1       -0.2766
     29 H          14.1573   80.9118   24.9106 H       1  UNL1        0.1553
     30 C           9.3198   79.4950   23.8917 C.3     1  UNL1        0.0345
     31 C          10.6943   78.9082   24.0103 C.ar    1  UNL1        0.0202
     32 C          11.8749   79.5637   24.3774 C.ar    1  UNL1        0.1946
     33 O          12.8860   78.7132   24.3673 O.2     1  UNL1       -0.4492
     34 C          12.4219   77.5399   24.0132 C.ar    1  UNL1        0.1452
     35 C          13.1384   76.3567   23.8713 C.ar    1  UNL1        0.0375
     36 C          12.4378   75.2039   23.4766 C.ar    1  UNL1        0.0031
     37 C          11.0388   75.2499   23.2309 C.ar    1  UNL1        0.0002
     38 C          10.3468   76.4750   23.3874 C.ar    1  UNL1        0.0028
     39 C          11.0740   77.5996   23.7807 C.ar    1  UNL1        0.0337
     40 C          10.3093   74.0255   22.8142 C.ar    1  UNL1        0.0000
     41 C          10.9941   72.8072   22.6441 C.ar    1  UNL1        0.0000
     42 C          10.3047   71.6561   22.2506 C.ar    1  UNL1        0.0000
     43 C           8.9276   71.7068   22.0237 C.ar    1  UNL1        0.0000
     44 C           8.2367   72.9092   22.1892 C.ar    1  UNL1        0.0000
     45 C           8.9211   74.0636   22.5816 C.ar    1  UNL1        0.0000
@<TRIPOS>BOND
     1    30    31    1
     2    31    32   ar
     3    32    26    1
     4    26    27    2
     5    26    28   am
     6    28     1    1
     7     1     2   ar
     8     2     3   ar
     9     3     4   ar
    10     4     7    1
    11     7     8    1
    12     8     9    1
    13     9    10    1
    14    10    14    1
    15    14    15    1
    16    15    16    1
    17    16    17   ar
    18    17    18   ar
    19    18    19   ar
    20    19    20   ar
    21    20    22    1
    22    22    23    2
    23    22    24    1
    24    20    21   ar
    25    10    11    1
    26    11    12    1
    27    12    13    1
    28     4     5   ar
    29     5     6   ar
    30    32    33   ar
    31    33    34   ar
    32    34    35   ar
    33    35    36   ar
    34    36    37   ar
    35    37    40    1
    36    40    41   ar
    37    41    42   ar
    38    42    43   ar
    39    43    44   ar
    40    44    45   ar
    41    37    38   ar
    42    38    39   ar
    43    39    31   ar
    44     6     1   ar
    45    39    34   ar
    46    12     7    1
    47    45    40   ar
    48    21    16   ar
    49    28    29    1
    50    24    25    1
@<TRIPOS>MOLECULE
*****
 45 50 0 0 0
SMALL
GASTEIGER

@<TRIPOS>ATOM
      1 C           8.0905   77.6886   22.6541 C.ar    1  UNL1        0.0702
      2 C           7.2942   76.7047   23.2506 C.ar    1  UNL1        0.0191
      3 C           6.3697   75.9887   22.4888 C.ar    1  UNL1        0.0356
      4 C           6.2283   76.2721   21.1184 C.ar    1  UNL1        0.1317
      5 N           6.9962   77.2547   20.5688 N.ar    1  UNL1       -0.2279
      6 C           7.9052   77.9620   21.2902 C.ar    1  UNL1        0.1149
      7 N           5.2905   75.5441   20.2905 N.pl3   1  UNL1       -0.2949
      8 C           4.7869   76.1555   19.0460 C.3     1  UNL1        0.0922
      9 C           3.4974   75.4903   18.5445 C.3     1  UNL1        0.0252
     10 C           2.6356   74.9701   19.7038 C.3     1  UNL1        0.0471
     11 C           3.4037   73.8872   20.4949 C.3     1  UNL1        0.0235
     12 C           4.9288   74.1545   20.6398 C.3     1  UNL1        0.0743
     13 C           5.7647   73.1812   19.7994 C.3     1  UNL1        0.0215
     14 C           2.1448   76.1149   20.6121 C.3     1  UNL1        0.2054
     15 O           2.3434   75.7654   21.9804 O.3     1  UNL1       -0.4755
     16 C           2.5025   76.6924   23.0210 C.ar    1  UNL1        0.1388
     17 C           1.9528   77.9864   22.9682 C.ar    1  UNL1        0.0369
     18 C           2.1323   78.8684   24.0350 C.ar    1  UNL1        0.0033
     19 C           2.8623   78.4746   25.1582 C.ar    1  UNL1        0.0066
     20 C           3.4309   77.1904   25.2249 C.ar    1  UNL1        0.0785
     21 C           3.2349   76.3034   24.1499 C.ar    1  UNL1        0.0433
     22 C           4.2022   76.7839   26.4249 C.2     1  UNL1        0.3381
     23 O           3.8418   77.1832   27.5643 O.2     1  UNL1       -0.2451
     24 O           5.3362   75.9776   26.3314 O.3     1  UNL1       -0.4771
     25 H           5.7422   75.7077   25.4450 H       1  UNL1        0.2954
     26 C          10.4511   78.2984   23.3607 C.2     1  UNL1        0.2839
     27 O          10.9570   77.3278   22.7357 O.2     1  UNL1       -0.2665
     28 N           9.0237   78.4325   23.4562 N.am    1  UNL1       -0.2766
     29 H           8.6380   79.0437   24.2114 H       1  UNL1        0.1553
     30 C           9.6119   81.1884   24.4638 C.3     1  UNL1        0.0345
     31 C          10.9631   80.5411   24.5154 C.ar    1  UNL1        0.0202
     32 C          11.3256   79.2790   24.0316 C.ar    1  UNL1        0.1946
     33 O          12.6077   79.0579   24.2618 O.2     1  UNL1       -0.4492
     34 C          13.0956   80.1116   24.8693 C.ar    1  UNL1        0.1452
     35 C          14.4034   80.3081   25.2985 C.ar    1  UNL1        0.0375
     36 C          14.7138   81.5221   25.9355 C.ar    1  UNL1        0.0031
     37 C          13.7181   82.5166   26.1331 C.ar    1  UNL1        0.0002
     38 C          12.3985   82.2768   25.6803 C.ar    1  UNL1        0.0028
     39 C          12.1258   81.0606   25.0518 C.ar    1  UNL1        0.0337
     40 C          14.0578   83.7952   26.8075 C.ar    1  UNL1        0.0000
     41 C          14.1325   84.9941   26.0731 C.ar    1  UNL1        0.0000
     42 C          14.4537   86.1964   26.7106 C.ar    1  UNL1        0.0000
     43 C          14.7024   86.2167   28.0847 C.ar    1  UNL1        0.0000
     44 C          14.6312   85.0342   28.8245 C.ar    1  UNL1        0.0000
     45 C          14.3115   83.8289   28.1920 C.ar    1  UNL1        0.0000
@<TRIPOS>BOND
     1    30    31    1
     2    31    32   ar
     3    32    26    1
     4    26    27    2
     5    26    28   am
     6    28     1    1
     7     1     2   ar
     8     2     3   ar
     9     3     4   ar
    10     4     7    1
    11     7     8    1
    12     8     9    1
    13     9    10    1
    14    10    14    1
    15    14    15    1
    16    15    16    1
    17    16    17   ar
    18    17    18   ar
    19    18    19   ar
    20    19    20   ar
    21    20    22    1
    22    22    23    2
    23    22    24    1
    24    20    21   ar
    25    10    11    1
    26    11    12    1
    27    12    13    1
    28     4     5   ar
    29     5     6   ar
    30    32    33   ar
    31    33    34   ar
    32    34    35   ar
    33    35    36   ar
    34    36    37   ar
    35    37    40    1
    36    40    41   ar
    37    41    42   ar
    38    42    43   ar
    39    43    44   ar
    40    44    45   ar
    41    37    38   ar
    42    38    39   ar
    43    39    31   ar
    44     6     1   ar
    45    39    34   ar
    46    12     7    1
    47    45    40   ar
    48    21    16   ar
    49    28    29    1
    50    24    25    1
@<TRIPOS>MOLECULE
*****
 45 50 0 0 0
SMALL
GASTEIGER

@<TRIPOS>ATOM
      1 C          13.4427   83.0752   25.0519 C.ar    1  UNL1        0.0702
      2 C          13.4386   83.7954   23.8522 C.ar    1  UNL1        0.0191
      3 C          13.8158   85.1390   23.8356 C.ar    1  UNL1        0.0356
      4 C          14.1847   85.7736   25.0354 C.ar    1  UNL1        0.1317
      5 N          14.1526   85.0565   26.1939 N.ar    1  UNL1       -0.2279
      6 C          13.7925   83.7467   26.2334 C.ar    1  UNL1        0.1149
      7 N          14.5944   87.1616   25.0596 N.pl3   1  UNL1       -0.2949
      8 C          13.7370   88.1873   24.4360 C.3     1  UNL1        0.0922
      9 C          14.4976   89.4874   24.1388 C.3     1  UNL1        0.0252
     10 C          15.9719   89.2217   23.8025 C.3     1  UNL1        0.0471
     11 C          16.6842   88.5676   25.0080 C.3     1  UNL1        0.0235
     12 C          15.8107   87.5545   25.8010 C.3     1  UNL1        0.0743
     13 C          15.4169   88.0937   27.1818 C.3     1  UNL1        0.0215
     14 C          16.1252   88.3884   22.5147 C.3     1  UNL1        0.2054
     15 O          15.2669   88.9050   21.4996 O.3     1  UNL1       -0.4755
     16 C          14.3159   88.1454   20.8023 C.ar    1  UNL1        0.1388
     17 C          14.3637   86.7403   20.7517 C.ar    1  UNL1        0.0369
     18 C          13.3872   86.0303   20.0513 C.ar    1  UNL1        0.0033
     19 C          12.3606   86.7097   19.3923 C.ar    1  UNL1        0.0066
     20 C          12.3024   88.1142   19.4198 C.ar    1  UNL1        0.0785
     21 C          13.2843   88.8214   20.1383 C.ar    1  UNL1        0.0433
     22 C          11.2051   88.8233   18.7174 C.2     1  UNL1        0.3381
     23 O          11.4596   89.5065   17.6898 O.2     1  UNL1       -0.2451
     24 O           9.8874   88.7711   19.1710 O.3     1  UNL1       -0.4771
     25 H           9.6279   88.3305   20.0438 H       1  UNL1        0.2954
     26 C          11.6895   81.2599   25.3255 C.2     1  UNL1        0.2839
     27 O          10.8497   82.0574   25.8229 O.2     1  UNL1       -0.2665
     28 N          13.0315   81.6972   25.0566 N.am    1  UNL1       -0.2766
     29 H          13.7712   80.9677   24.9413 H       1  UNL1        0.1553
     30 C           9.7493   80.2087   23.0010 C.3     1  UNL1        0.0345
     31 C          10.4611   79.3976   24.0416 C.ar    1  UNL1        0.0202
     32 C          11.3070   79.8608   25.0556 C.ar    1  UNL1        0.1946
     33 O          11.7468   78.8447   25.7766 O.2     1  UNL1       -0.4492
     34 C          11.2294   77.7465   25.2829 C.ar    1  UNL1        0.1452
     35 C          11.4248   76.4453   25.7322 C.ar    1  UNL1        0.0375
     36 C          10.7696   75.4058   25.0497 C.ar    1  UNL1        0.0031
     37 C           9.9331   75.6803   23.9342 C.ar    1  UNL1        0.0002
     38 C           9.7605   77.0196   23.5093 C.ar    1  UNL1        0.0028
     39 C          10.4259   78.0266   24.2102 C.ar    1  UNL1        0.0337
     40 C           9.2461   74.5738   23.2209 C.ar    1  UNL1        0.0000
     41 C           9.9427   73.3971   22.8851 C.ar    1  UNL1        0.0000
     42 C           9.2935   72.3573   22.2125 C.ar    1  UNL1        0.0000
     43 C           7.9453   72.4785   21.8688 C.ar    1  UNL1        0.0000
     44 C           7.2432   73.6405   22.1965 C.ar    1  UNL1        0.0000
     45 C           7.8875   74.6839   22.8682 C.ar    1  UNL1        0.0000
@<TRIPOS>BOND
     1    30    31    1
     2    31    32   ar
     3    32    26    1
     4    26    27    2
     5    26    28   am
     6    28     1    1
     7     1     2   ar
     8     2     3   ar
     9     3     4   ar
    10     4     7    1
    11     7     8    1
    12     8     9    1
    13     9    10    1
    14    10    14    1
    15    14    15    1
    16    15    16    1
    17    16    17   ar
    18    17    18   ar
    19    18    19   ar
    20    19    20   ar
    21    20    22    1
    22    22    23    2
    23    22    24    1
    24    20    21   ar
    25    10    11    1
    26    11    12    1
    27    12    13    1
    28     4     5   ar
    29     5     6   ar
    30    32    33   ar
    31    33    34   ar
    32    34    35   ar
    33    35    36   ar
    34    36    37   ar
    35    37    40    1
    36    40    41   ar
    37    41    42   ar
    38    42    43   ar
    39    43    44   ar
    40    44    45   ar
    41    37    38   ar
    42    38    39   ar
    43    39    31   ar
    44     6     1   ar
    45    39    34   ar
    46    12     7    1
    47    45    40   ar
    48    21    16   ar
    49    28    29    1
    50    24    25    1
@<TRIPOS>MOLECULE
*****
 45 50 0 0 0
SMALL
GASTEIGER

@<TRIPOS>ATOM
      1 C          13.3569   83.3869   24.2192 C.ar    1  UNL1        0.0702
      2 C          13.8801   83.6967   22.9589 C.ar    1  UNL1        0.0191
      3 C          14.5933   84.8802   22.7633 C.ar    1  UNL1        0.0356
      4 C          14.7704   85.7719   23.8366 C.ar    1  UNL1        0.1317
      5 N          14.2263   85.4592   25.0463 N.ar    1  UNL1       -0.2279
      6 C          13.5314   84.3111   25.2607 C.ar    1  UNL1        0.1149
      7 N          15.5142   87.0035   23.6790 N.pl3   1  UNL1       -0.2949
      8 C          15.0019   88.2486   24.2819 C.3     1  UNL1        0.0922
      9 C          15.6256   89.5042   23.6562 C.3     1  UNL1        0.0252
     10 C          15.9625   89.2954   22.1729 C.3     1  UNL1        0.0471
     11 C          17.0076   88.1677   22.0173 C.3     1  UNL1        0.0235
     12 C          16.8320   86.9841   23.0106 C.3     1  UNL1        0.0743
     13 C          17.9423   86.9527   24.0683 C.3     1  UNL1        0.0215
     14 C          14.6988   89.0371   21.3287 C.3     1  UNL1        0.2054
     15 O          15.0489   88.3392   20.1352 O.3     1  UNL1       -0.4755
     16 C          14.4147   87.1727   19.6832 C.ar    1  UNL1        0.1388
     17 C          13.0146   87.0550   19.6127 C.ar    1  UNL1        0.0369
     18 C          12.4327   85.8750   19.1465 C.ar    1  UNL1        0.0033
     19 C          13.2356   84.8028   18.7525 C.ar    1  UNL1        0.0066
     20 C          14.6365   84.8955   18.8276 C.ar    1  UNL1        0.0785
     21 C          15.2150   86.0932   19.2876 C.ar    1  UNL1        0.0433
     22 C          15.4779   83.7497   18.4036 C.2     1  UNL1        0.3381
     23 O          15.6735   83.5382   17.1771 O.2     1  UNL1       -0.2451
     24 O          16.0538   82.8790   19.3283 O.3     1  UNL1       -0.4771
     25 H          15.8549   82.9257   20.3190 H       1  UNL1        0.2954
     26 C          13.1943   80.9088   24.7445 C.2     1  UNL1        0.2839
     27 O          14.4409   80.7440   24.6588 O.2     1  UNL1       -0.2665
     28 N          12.6064   82.1738   24.4002 N.am    1  UNL1       -0.2766
     29 H          11.5837   82.1970   24.1852 H       1  UNL1        0.1553
     30 C          10.1531   80.3967   23.8715 C.3     1  UNL1        0.0345
     31 C          11.0021   79.5603   24.7810 C.ar    1  UNL1        0.0202
     32 C          12.3297   79.7880   25.1603 C.ar    1  UNL1        0.1946
     33 O          12.7381   78.8300   25.9735 O.2     1  UNL1       -0.4492
     34 C          11.7437   77.9931   26.1415 C.ar    1  UNL1        0.1452
     35 C          11.7337   76.8394   26.9175 C.ar    1  UNL1        0.0375
     36 C          10.5517   76.0797   26.9556 C.ar    1  UNL1        0.0031
     37 C           9.4031   76.4818   26.2217 C.ar    1  UNL1        0.0002
     38 C           9.4553   77.6637   25.4442 C.ar    1  UNL1        0.0028
     39 C          10.6449   78.3937   25.4297 C.ar    1  UNL1        0.0337
     40 C           8.1600   75.6710   26.2695 C.ar    1  UNL1        0.0000
     41 C           7.8293   74.9350   27.4233 C.ar    1  UNL1        0.0000
     42 C           6.6587   74.1715   27.4650 C.ar    1  UNL1        0.0000
     43 C           5.8060   74.1343   26.3595 C.ar    1  UNL1        0.0000
     44 C           6.1227   74.8603   25.2091 C.ar    1  UNL1        0.0000
     45 C           7.2925   75.6246   25.1614 C.ar    1  UNL1        0.0000
@<TRIPOS>BOND
     1    30    31    1
     2    31    32   ar
     3    32    26    1
     4    26    27    2
     5    26    28   am
     6    28     1    1
     7     1     2   ar
     8     2     3   ar
     9     3     4   ar
    10     4     7    1
    11     7     8    1
    12     8     9    1
    13     9    10    1
    14    10    14    1
    15    14    15    1
    16    15    16    1
    17    16    17   ar
    18    17    18   ar
    19    18    19   ar
    20    19    20   ar
    21    20    22    1
    22    22    23    2
    23    22    24    1
    24    20    21   ar
    25    10    11    1
    26    11    12    1
    27    12    13    1
    28     4     5   ar
    29     5     6   ar
    30    32    33   ar
    31    33    34   ar
    32    34    35   ar
    33    35    36   ar
    34    36    37   ar
    35    37    40    1
    36    40    41   ar
    37    41    42   ar
    38    42    43   ar
    39    43    44   ar
    40    44    45   ar
    41    37    38   ar
    42    38    39   ar
    43    39    31   ar
    44     6     1   ar
    45    39    34   ar
    46    12     7    1
    47    45    40   ar
    48    21    16   ar
    49    28    29    1
    50    24    25    1
@<TRIPOS>MOLECULE
*****
 45 50 0 0 0
SMALL
GASTEIGER

@<TRIPOS>ATOM
      1 C          13.6824   83.0208   25.7290 C.ar    1  UNL1        0.0702
      2 C          14.0298   83.4801   27.0043 C.ar    1  UNL1        0.0191
      3 C          14.3146   84.8302   27.2137 C.ar    1  UNL1        0.0356
      4 C          14.2679   85.7277   26.1317 C.ar    1  UNL1        0.1317
      5 N          13.9544   85.2488   24.8949 N.ar    1  UNL1       -0.2279
      6 C          13.6699   83.9395   24.6683 C.ar    1  UNL1        0.1149
      7 N          14.5439   87.1375   26.3087 N.pl3   1  UNL1       -0.2949
      8 C          13.7332   88.1368   25.5874 C.3     1  UNL1        0.0922
      9 C          14.4205   89.5076   25.5124 C.3     1  UNL1        0.0252
     10 C          15.9491   89.3768   25.4528 C.3     1  UNL1        0.0471
     11 C          16.4765   88.6961   26.7361 C.3     1  UNL1        0.0235
     12 C          15.5608   87.5682   27.2906 C.3     1  UNL1        0.0743
     13 C          14.8696   87.9797   28.5965 C.3     1  UNL1        0.0215
     14 C          16.4130   88.6483   24.1759 C.3     1  UNL1        0.2054
     15 O          16.2219   89.4915   23.0417 O.3     1  UNL1       -0.4755
     16 C          15.4643   89.1444   21.9135 C.ar    1  UNL1        0.1388
     17 C          15.8582   89.4862   20.6068 C.ar    1  UNL1        0.0369
     18 C          15.0729   89.1087   19.5164 C.ar    1  UNL1        0.0033
     19 C          13.8896   88.3947   19.7155 C.ar    1  UNL1        0.0066
     20 C          13.4716   88.0547   21.0141 C.ar    1  UNL1        0.0785
     21 C          14.2756   88.4291   22.1070 C.ar    1  UNL1        0.0433
     22 C          12.2135   87.2940   21.2114 C.2     1  UNL1        0.3381
     23 O          12.0026   86.7085   22.3069 O.2     1  UNL1       -0.2451
     24 O          11.2518   87.1910   20.2069 O.3     1  UNL1       -0.4771
     25 H          11.4000   87.5455   19.2711 H       1  UNL1        0.2954
     26 C          12.1693   81.1109   25.0175 C.2     1  UNL1        0.2839
     27 O          11.1523   81.8533   24.9613 O.2     1  UNL1       -0.2665
     28 N          13.4121   81.6233   25.5246 N.am    1  UNL1       -0.2766
     29 H          14.1321   80.9361   25.8441 H       1  UNL1        0.1553
     30 C           9.4895   79.4419   24.4641 C.3     1  UNL1        0.0345
     31 C          10.9074   78.9671   24.3562 C.ar    1  UNL1        0.0202
     32 C          12.0749   79.6991   24.5996 C.ar    1  UNL1        0.1946
     33 O          13.1360   78.9381   24.3974 O.2     1  UNL1       -0.4492
     34 C          12.7167   77.7502   24.0360 C.ar    1  UNL1        0.1452
     35 C          13.4935   76.6404   23.7226 C.ar    1  UNL1        0.0375
     36 C          12.8335   75.4552   23.3547 C.ar    1  UNL1        0.0031
     37 C          11.4144   75.3966   23.3057 C.ar    1  UNL1        0.0002
     38 C          10.6607   76.5493   23.6330 C.ar    1  UNL1        0.0028
     39 C          11.3489   77.7088   23.9941 C.ar    1  UNL1        0.0337
     40 C          10.7282   74.1389   22.9155 C.ar    1  UNL1        0.0000
     41 C          11.4590   72.9473   22.7469 C.ar    1  UNL1        0.0000
     42 C          10.8102   71.7647   22.3783 C.ar    1  UNL1        0.0000
     43 C           9.4285   71.7570   22.1751 C.ar    1  UNL1        0.0000
     44 C           8.6923   72.9324   22.3394 C.ar    1  UNL1        0.0000
     45 C           9.3359   74.1181   22.7069 C.ar    1  UNL1        0.0000
@<TRIPOS>BOND
     1    30    31    1
     2    31    32   ar
     3    32    26    1
     4    26    27    2
     5    26    28   am
     6    28     1    1
     7     1     2   ar
     8     2     3   ar
     9     3     4   ar
    10     4     7    1
    11     7     8    1
    12     8     9    1
    13     9    10    1
    14    10    14    1
    15    14    15    1
    16    15    16    1
    17    16    17   ar
    18    17    18   ar
    19    18    19   ar
    20    19    20   ar
    21    20    22    1
    22    22    23    2
    23    22    24    1
    24    20    21   ar
    25    10    11    1
    26    11    12    1
    27    12    13    1
    28     4     5   ar
    29     5     6   ar
    30    32    33   ar
    31    33    34   ar
    32    34    35   ar
    33    35    36   ar
    34    36    37   ar
    35    37    40    1
    36    40    41   ar
    37    41    42   ar
    38    42    43   ar
    39    43    44   ar
    40    44    45   ar
    41    37    38   ar
    42    38    39   ar
    43    39    31   ar
    44     6     1   ar
    45    39    34   ar
    46    12     7    1
    47    45    40   ar
    48    21    16   ar
    49    28    29    1
    50    24    25    1
@<TRIPOS>MOLECULE
*****
 45 50 0 0 0
SMALL
GASTEIGER

@<TRIPOS>ATOM
      1 C           9.6129   79.6750   24.7810 C.ar    1  UNL1        0.0702
      2 C           9.1791   78.9488   25.8956 C.ar    1  UNL1        0.0191
      3 C           8.3729   77.8215   25.7322 C.ar    1  UNL1        0.0356
      4 C           7.9823   77.4261   24.4401 C.ar    1  UNL1        0.1317
      5 N           8.3955   78.1676   23.3739 N.ar    1  UNL1       -0.2279
      6 C           9.1836   79.2664   23.5089 C.ar    1  UNL1        0.1149
      7 N           7.1575   76.2561   24.2264 N.pl3   1  UNL1       -0.2949
      8 C           7.6670   74.9242   24.6038 C.3     1  UNL1        0.0922
      9 C           6.9048   73.7856   23.9112 C.3     1  UNL1        0.0252
     10 C           6.4073   74.1968   22.5181 C.3     1  UNL1        0.0471
     11 C           5.4157   75.3765   22.6328 C.3     1  UNL1        0.0235
     12 C           5.7732   76.4146   23.7341 C.3     1  UNL1        0.0743
     13 C           4.7990   76.3548   24.9173 C.3     1  UNL1        0.0215
     14 C           7.5749   74.5099   21.5616 C.3     1  UNL1        0.2054
     15 O           8.4906   73.4166   21.5423 O.3     1  UNL1       -0.4755
     16 C           9.7927   73.4629   22.0619 C.ar    1  UNL1        0.1388
     17 C          10.5760   72.3074   22.2363 C.ar    1  UNL1        0.0369
     18 C          11.8702   72.4086   22.7491 C.ar    1  UNL1        0.0033
     19 C          12.3935   73.6555   23.0971 C.ar    1  UNL1        0.0066
     20 C          11.6221   74.8208   22.9428 C.ar    1  UNL1        0.0785
     21 C          10.3225   74.7109   22.4140 C.ar    1  UNL1        0.0433
     22 C          12.1910   76.1394   23.3144 C.2     1  UNL1        0.3381
     23 O          13.4265   76.3470   23.1807 O.2     1  UNL1       -0.2451
     24 O          11.3966   77.1643   23.8277 O.3     1  UNL1       -0.4771
     25 H          10.4204   77.0342   24.0589 H       1  UNL1        0.2954
     26 C          11.8515   80.8716   24.7899 C.2     1  UNL1        0.2839
     27 O          12.4997   79.7940   24.7055 O.2     1  UNL1       -0.2665
     28 N          10.4258   80.8465   24.9665 N.am    1  UNL1       -0.2766
     29 H           9.9619   81.7082   25.3338 H       1  UNL1        0.1553
     30 C          13.0463   82.4929   27.2833 C.3     1  UNL1        0.0345
     31 C          13.0857   82.8746   25.8341 C.ar    1  UNL1        0.0202
     32 C          12.5619   82.1640   24.7483 C.ar    1  UNL1        0.1946
     33 O          12.7938   82.8196   23.6249 O.2     1  UNL1       -0.4492
     34 C          13.4404   83.9190   23.9261 C.ar    1  UNL1        0.1452
     35 C          13.8857   84.9030   23.0504 C.ar    1  UNL1        0.0375
     36 C          14.5659   86.0083   23.5902 C.ar    1  UNL1        0.0031
     37 C          14.7899   86.1137   24.9896 C.ar    1  UNL1        0.0002
     38 C          14.3195   85.0898   25.8465 C.ar    1  UNL1        0.0028
     39 C          13.6480   84.0070   25.2765 C.ar    1  UNL1        0.0337
     40 C          15.5100   87.2860   25.5482 C.ar    1  UNL1        0.0000
     41 C          15.2853   87.6982   26.8756 C.ar    1  UNL1        0.0000
     42 C          15.9640   88.8032   27.3987 C.ar    1  UNL1        0.0000
     43 C          16.8729   89.5074   26.6060 C.ar    1  UNL1        0.0000
     44 C          17.1048   89.1084   25.2877 C.ar    1  UNL1        0.0000
     45 C          16.4282   88.0048   24.7592 C.ar    1  UNL1        0.0000
@<TRIPOS>BOND
     1    30    31    1
     2    31    32   ar
     3    32    26    1
     4    26    27    2
     5    26    28   am
     6    28     1    1
     7     1     2   ar
     8     2     3   ar
     9     3     4   ar
    10     4     7    1
    11     7     8    1
    12     8     9    1
    13     9    10    1
    14    10    14    1
    15    14    15    1
    16    15    16    1
    17    16    17   ar
    18    17    18   ar
    19    18    19   ar
    20    19    20   ar
    21    20    22    1
    22    22    23    2
    23    22    24    1
    24    20    21   ar
    25    10    11    1
    26    11    12    1
    27    12    13    1
    28     4     5   ar
    29     5     6   ar
    30    32    33   ar
    31    33    34   ar
    32    34    35   ar
    33    35    36   ar
    34    36    37   ar
    35    37    40    1
    36    40    41   ar
    37    41    42   ar
    38    42    43   ar
    39    43    44   ar
    40    44    45   ar
    41    37    38   ar
    42    38    39   ar
    43    39    31   ar
    44     6     1   ar
    45    39    34   ar
    46    12     7    1
    47    45    40   ar
    48    21    16   ar
    49    28    29    1
    50    24    25    1
