@<TRIPOS>MOLECULE
*****
 48 53 0 0 0
SMALL
GASTEIGER

@<TRIPOS>ATOM
      1 C         -64.2764  -51.2262  -24.3123 C.ar    1  UNL1        0.0702
      2 C         -63.0751  -51.6833  -23.7581 C.ar    1  UNL1        0.0191
      3 C         -61.9930  -50.8150  -23.6080 C.ar    1  UNL1        0.0356
      4 C         -62.1083  -49.4811  -24.0357 C.ar    1  UNL1        0.1318
      5 N         -63.2814  -49.0653  -24.5910 N.ar    1  UNL1       -0.2279
      6 C         -64.3496  -49.8920  -24.7425 C.ar    1  UNL1        0.1149
      7 N         -61.0135  -48.5496  -23.8958 N.pl3   1  UNL1       -0.2932
      8 C         -60.2536  -48.4634  -22.6365 C.3     1  UNL1        0.0923
      9 C         -58.8430  -47.9121  -22.8777 C.3     1  UNL1        0.0252
     10 C         -58.8521  -46.5462  -23.6093 C.3     1  UNL1        0.0472
     11 C         -60.0612  -46.3834  -24.5662 C.3     1  UNL1        0.0252
     12 C         -60.6052  -47.7304  -25.0474 C.3     1  UNL1        0.0923
     13 C         -58.7910  -45.3809  -22.5998 C.3     1  UNL1        0.2054
     14 O         -59.0705  -44.1314  -23.2345 O.3     1  UNL1       -0.4755
     15 C         -60.1260  -43.2635  -22.9086 C.ar    1  UNL1        0.1390
     16 C         -61.0839  -43.0001  -23.8928 C.ar    1  UNL1        0.0433
     17 C         -62.1643  -42.1391  -23.6382 C.ar    1  UNL1        0.0787
     18 C         -62.2858  -41.5560  -22.3655 C.ar    1  UNL1        0.0131
     19 C         -61.3359  -41.8118  -21.3616 C.ar    1  UNL1        0.0787
     20 C         -60.2577  -42.6671  -21.6408 C.ar    1  UNL1        0.0433
     21 C         -63.1810  -41.8587  -24.6816 C.2     1  UNL1        0.3381
     22 O         -63.9491  -40.8679  -24.5561 O.2     1  UNL1       -0.2451
     23 O         -63.3061  -42.6569  -25.8182 O.3     1  UNL1       -0.4771
     24 H         -62.6576  -43.4025  -26.0348 H       1  UNL1        0.2954
     25 C         -61.4667  -41.1889  -20.0244 C.2     1  UNL1        0.3381
     26 O         -62.0021  -40.0544  -19.8974 O.2     1  UNL1       -0.2451
     27 O         -60.9984  -41.8508  -18.8921 O.3     1  UNL1       -0.4771
     28 H         -61.0828  -41.4331  -17.9730 H       1  UNL1        0.2954
     29 C         -65.6670  -53.2208  -23.5819 C.2     1  UNL1        0.2839
     30 O         -64.8147  -53.5834  -22.7272 O.2     1  UNL1       -0.2665
     31 N         -65.3752  -52.1384  -24.4808 N.am    1  UNL1       -0.2766
     32 H         -65.9437  -52.0597  -25.3544 H       1  UNL1        0.1553
     33 C         -68.0583  -53.2105  -21.4477 C.3     1  UNL1        0.0345
     34 C         -68.0001  -53.9326  -22.7601 C.ar    1  UNL1        0.0202
     35 C         -66.9533  -53.9352  -23.6889 C.ar    1  UNL1        0.1946
     36 O         -67.2717  -54.6886  -24.7266 O.2     1  UNL1       -0.4492
     37 C         -68.4706  -55.1754  -24.5184 C.ar    1  UNL1        0.1452
     38 C         -69.1963  -56.0173  -25.3538 C.ar    1  UNL1        0.0375
     39 C         -70.4754  -56.4214  -24.9340 C.ar    1  UNL1        0.0031
     40 C         -71.0078  -55.9808  -23.6922 C.ar    1  UNL1        0.0002
     41 C         -70.2356  -55.1242  -22.8711 C.ar    1  UNL1        0.0028
     42 C         -68.9698  -54.7432  -23.3190 C.ar    1  UNL1        0.0337
     43 C         -72.3605  -56.4141  -23.2594 C.ar    1  UNL1        0.0000
     44 C         -72.6880  -56.4783  -21.8915 C.ar    1  UNL1        0.0000
     45 C         -73.9626  -56.8867  -21.4868 C.ar    1  UNL1        0.0000
     46 C         -74.9229  -57.2339  -22.4395 C.ar    1  UNL1        0.0000
     47 C         -74.6107  -57.1738  -23.7994 C.ar    1  UNL1        0.0000
     48 C         -73.3375  -56.7670  -24.2099 C.ar    1  UNL1        0.0000
@<TRIPOS>BOND
     1    33    34    1
     2    34    35   ar
     3    35    29    1
     4    29    30    2
     5    29    31   am
     6    31     1    1
     7     1     2   ar
     8     2     3   ar
     9     3     4   ar
    10     4     7    1
    11     7     8    1
    12     8     9    1
    13     9    10    1
    14    10    13    1
    15    13    14    1
    16    14    15    1
    17    15    16   ar
    18    16    17   ar
    19    17    21    1
    20    21    22    2
    21    21    23    1
    22    17    18   ar
    23    18    19   ar
    24    19    25    1
    25    25    26    2
    26    25    27    1
    27    19    20   ar
    28    10    11    1
    29    11    12    1
    30     4     5   ar
    31     5     6   ar
    32    35    36   ar
    33    36    37   ar
    34    37    38   ar
    35    38    39   ar
    36    39    40   ar
    37    40    43    1
    38    43    44   ar
    39    44    45   ar
    40    45    46   ar
    41    46    47   ar
    42    47    48   ar
    43    40    41   ar
    44    41    42   ar
    45    42    34   ar
    46     6     1   ar
    47    42    37   ar
    48    12     7    1
    49    48    43   ar
    50    20    15   ar
    51    31    32    1
    52    23    24    1
    53    27    28    1
@<TRIPOS>MOLECULE
*****
 48 53 0 0 0
SMALL
GASTEIGER

@<TRIPOS>ATOM
      1 C         -62.4562  -40.5133  -20.6263 C.ar    1  UNL1        0.0702
      2 C         -61.4842  -41.2003  -19.8899 C.ar    1  UNL1        0.0191
      3 C         -60.7550  -42.2346  -20.4781 C.ar    1  UNL1        0.0356
      4 C         -61.0160  -42.5980  -21.8106 C.ar    1  UNL1        0.1318
      5 N         -61.9816  -41.9277  -22.5002 N.ar    1  UNL1       -0.2279
      6 C         -62.7005  -40.9142  -21.9493 C.ar    1  UNL1        0.1149
      7 N         -60.2822  -43.6605  -22.4575 N.pl3   1  UNL1       -0.2932
      8 C         -60.9890  -44.7388  -23.1707 C.3     1  UNL1        0.0923
      9 C         -60.0939  -45.3732  -24.2422 C.3     1  UNL1        0.0252
     10 C         -58.7467  -45.8826  -23.6707 C.3     1  UNL1        0.0472
     11 C         -58.2536  -45.0509  -22.4586 C.3     1  UNL1        0.0252
     12 C         -58.8116  -43.6260  -22.4676 C.3     1  UNL1        0.0923
     13 C         -58.8335  -47.3801  -23.3092 C.3     1  UNL1        0.2054
     14 O         -60.0791  -47.6892  -22.6805 O.3     1  UNL1       -0.4755
     15 C         -60.9835  -48.6812  -23.0948 C.ar    1  UNL1        0.1390
     16 C         -60.7813  -49.9852  -22.6319 C.ar    1  UNL1        0.0433
     17 C         -61.6439  -51.0280  -23.0085 C.ar    1  UNL1        0.0787
     18 C         -62.7351  -50.7409  -23.8461 C.ar    1  UNL1        0.0131
     19 C         -62.9579  -49.4359  -24.3182 C.ar    1  UNL1        0.0787
     20 C         -62.0770  -48.4105  -23.9382 C.ar    1  UNL1        0.0433
     21 C         -61.4304  -52.4118  -22.5183 C.2     1  UNL1        0.3381
     22 O         -60.2597  -52.8267  -22.3068 O.2     1  UNL1       -0.2451
     23 O         -62.4968  -53.2743  -22.2664 O.3     1  UNL1       -0.4771
     24 H         -63.4622  -52.9757  -22.3134 H       1  UNL1        0.2954
     25 C         -64.1062  -49.1417  -25.2058 C.2     1  UNL1        0.3381
     26 O         -63.9158  -48.7767  -26.3976 O.2     1  UNL1       -0.2451
     27 O         -65.4100  -49.2649  -24.7321 O.3     1  UNL1       -0.4771
     28 H         -66.2024  -49.0656  -25.3311 H       1  UNL1        0.2954
     29 C         -63.0748  -38.0703  -20.3181 C.2     1  UNL1        0.2839
     30 O         -62.0883  -37.6691  -20.9922 O.2     1  UNL1       -0.2665
     31 N         -63.2147  -39.4645  -19.9997 N.am    1  UNL1       -0.2766
     32 H         -63.8437  -39.7257  -19.2068 H       1  UNL1        0.1553
     33 C         -66.2565  -38.2197  -20.6751 C.3     1  UNL1        0.0345
     34 C         -65.4587  -37.1636  -19.9713 C.ar    1  UNL1        0.0202
     35 C         -64.0690  -37.1017  -19.8185 C.ar    1  UNL1        0.1946
     36 O         -63.7371  -36.0199  -19.1363 O.2     1  UNL1       -0.4492
     37 C         -64.8398  -35.3767  -18.8394 C.ar    1  UNL1        0.1452
     38 C         -64.9577  -34.1877  -18.1284 C.ar    1  UNL1        0.0375
     39 C         -66.2471  -33.6683  -17.9199 C.ar    1  UNL1        0.0031
     40 C         -67.3936  -34.3410  -18.4225 C.ar    1  UNL1        0.0002
     41 C         -67.2294  -35.5492  -19.1418 C.ar    1  UNL1        0.0028
     42 C         -65.9348  -36.0357  -19.3303 C.ar    1  UNL1        0.0337
     43 C         -68.7508  -33.7829  -18.1958 C.ar    1  UNL1        0.0000
     44 C         -68.9288  -32.6332  -17.4025 C.ar    1  UNL1        0.0000
     45 C         -70.2080  -32.1098  -17.1908 C.ar    1  UNL1        0.0000
     46 C         -71.3213  -32.7250  -17.7673 C.ar    1  UNL1        0.0000
     47 C         -71.1581  -33.8655  -18.5567 C.ar    1  UNL1        0.0000
     48 C         -69.8814  -34.3938  -18.7711 C.ar    1  UNL1        0.0000
@<TRIPOS>BOND
     1    33    34    1
     2    34    35   ar
     3    35    29    1
     4    29    30    2
     5    29    31   am
     6    31     1    1
     7     1     2   ar
     8     2     3   ar
     9     3     4   ar
    10     4     7    1
    11     7     8    1
    12     8     9    1
    13     9    10    1
    14    10    13    1
    15    13    14    1
    16    14    15    1
    17    15    16   ar
    18    16    17   ar
    19    17    21    1
    20    21    22    2
    21    21    23    1
    22    17    18   ar
    23    18    19   ar
    24    19    25    1
    25    25    26    2
    26    25    27    1
    27    19    20   ar
    28    10    11    1
    29    11    12    1
    30     4     5   ar
    31     5     6   ar
    32    35    36   ar
    33    36    37   ar
    34    37    38   ar
    35    38    39   ar
    36    39    40   ar
    37    40    43    1
    38    43    44   ar
    39    44    45   ar
    40    45    46   ar
    41    46    47   ar
    42    47    48   ar
    43    40    41   ar
    44    41    42   ar
    45    42    34   ar
    46     6     1   ar
    47    42    37   ar
    48    12     7    1
    49    48    43   ar
    50    20    15   ar
    51    31    32    1
    52    23    24    1
    53    27    28    1
@<TRIPOS>MOLECULE
*****
 48 53 0 0 0
SMALL
GASTEIGER

@<TRIPOS>ATOM
      1 C         -62.4826  -40.5408  -20.6273 C.ar    1  UNL1        0.0702
      2 C         -61.4572  -41.1742  -19.9157 C.ar    1  UNL1        0.0191
      3 C         -60.7346  -42.2162  -20.4985 C.ar    1  UNL1        0.0356
      4 C         -61.0556  -42.6415  -21.7991 C.ar    1  UNL1        0.1318
      5 N         -62.0717  -42.0226  -22.4638 N.ar    1  UNL1       -0.2279
      6 C         -62.7855  -41.0029  -21.9178 C.ar    1  UNL1        0.1149
      7 N         -60.3307  -43.7141  -22.4396 N.pl3   1  UNL1       -0.2932
      8 C         -61.0476  -44.8212  -23.0962 C.3     1  UNL1        0.0923
      9 C         -60.1816  -45.4766  -24.1789 C.3     1  UNL1        0.0252
     10 C         -58.8093  -45.9530  -23.6395 C.3     1  UNL1        0.0472
     11 C         -58.2858  -45.0799  -22.4699 C.3     1  UNL1        0.0252
     12 C         -58.8619  -43.6625  -22.5014 C.3     1  UNL1        0.0923
     13 C         -58.8645  -47.4400  -23.2315 C.3     1  UNL1        0.2054
     14 O         -60.1205  -47.7658  -22.6327 O.3     1  UNL1       -0.4755
     15 C         -60.9713  -48.8117  -23.0278 C.ar    1  UNL1        0.1390
     16 C         -62.0395  -48.5012  -23.8752 C.ar    1  UNL1        0.0433
     17 C         -62.9323  -49.4959  -24.3073 C.ar    1  UNL1        0.0787
     18 C         -62.7271  -50.8227  -23.8926 C.ar    1  UNL1        0.0131
     19 C         -61.6567  -51.1557  -23.0447 C.ar    1  UNL1        0.0787
     20 C         -60.7824  -50.1439  -22.6158 C.ar    1  UNL1        0.0433
     21 C         -64.0661  -49.1677  -25.2061 C.2     1  UNL1        0.3381
     22 O         -63.8591  -48.9970  -26.4371 O.2     1  UNL1       -0.2451
     23 O         -65.3720  -49.0556  -24.7299 O.3     1  UNL1       -0.4771
     24 H         -65.6261  -49.2817  -23.7771 H       1  UNL1        0.2954
     25 C         -61.4500  -52.5550  -22.6064 C.2     1  UNL1        0.3381
     26 O         -60.2893  -53.0455  -22.5601 O.2     1  UNL1       -0.2451
     27 O         -62.5373  -53.3447  -22.2408 O.3     1  UNL1       -0.4771
     28 H         -62.4066  -54.3033  -21.9398 H       1  UNL1        0.2954
     29 C         -63.1048  -38.0948  -20.3520 C.2     1  UNL1        0.2839
     30 O         -62.1335  -37.7025  -21.0528 O.2     1  UNL1       -0.2665
     31 N         -63.2327  -39.4834  -20.0052 N.am    1  UNL1       -0.2766
     32 H         -63.8450  -39.7321  -19.1954 H       1  UNL1        0.1553
     33 C         -66.2890  -38.2349  -20.6901 C.3     1  UNL1        0.0345
     34 C         -65.4836  -37.1785  -19.9953 C.ar    1  UNL1        0.0202
     35 C         -64.0928  -37.1207  -19.8507 C.ar    1  UNL1        0.1946
     36 O         -63.7534  -36.0372  -19.1750 O.2     1  UNL1       -0.4492
     37 C         -64.8521  -35.3890  -18.8745 C.ar    1  UNL1        0.1452
     38 C         -64.9620  -34.1967  -18.1677 C.ar    1  UNL1        0.0375
     39 C         -66.2484  -33.6721  -17.9540 C.ar    1  UNL1        0.0031
     40 C         -67.4000  -34.3430  -18.4472 C.ar    1  UNL1        0.0002
     41 C         -67.2440  -35.5547  -19.1624 C.ar    1  UNL1        0.0028
     42 C         -65.9522  -36.0464  -19.3563 C.ar    1  UNL1        0.0337
     43 C         -68.7540  -33.7793  -18.2150 C.ar    1  UNL1        0.0000
     44 C         -69.8879  -34.3774  -18.7974 C.ar    1  UNL1        0.0000
     45 C         -71.1617  -33.8445  -18.5771 C.ar    1  UNL1        0.0000
     46 C         -71.3188  -32.7124  -17.7745 C.ar    1  UNL1        0.0000
     47 C         -70.2021  -32.1102  -17.1906 C.ar    1  UNL1        0.0000
     48 C         -68.9258  -32.6382  -17.4082 C.ar    1  UNL1        0.0000
@<TRIPOS>BOND
     1    33    34    1
     2    34    35   ar
     3    35    29    1
     4    29    30    2
     5    29    31   am
     6    31     1    1
     7     1     2   ar
     8     2     3   ar
     9     3     4   ar
    10     4     7    1
    11     7     8    1
    12     8     9    1
    13     9    10    1
    14    10    13    1
    15    13    14    1
    16    14    15    1
    17    15    16   ar
    18    16    17   ar
    19    17    21    1
    20    21    22    2
    21    21    23    1
    22    17    18   ar
    23    18    19   ar
    24    19    25    1
    25    25    26    2
    26    25    27    1
    27    19    20   ar
    28    10    11    1
    29    11    12    1
    30     4     5   ar
    31     5     6   ar
    32    35    36   ar
    33    36    37   ar
    34    37    38   ar
    35    38    39   ar
    36    39    40   ar
    37    40    43    1
    38    43    44   ar
    39    44    45   ar
    40    45    46   ar
    41    46    47   ar
    42    47    48   ar
    43    40    41   ar
    44    41    42   ar
    45    42    34   ar
    46     6     1   ar
    47    42    37   ar
    48    12     7    1
    49    48    43   ar
    50    20    15   ar
    51    31    32    1
    52    23    24    1
    53    27    28    1
@<TRIPOS>MOLECULE
*****
 48 53 0 0 0
SMALL
GASTEIGER

@<TRIPOS>ATOM
      1 C         -64.1491  -51.1365  -24.3078 C.ar    1  UNL1        0.0702
      2 C         -62.9316  -51.6035  -23.7992 C.ar    1  UNL1        0.0191
      3 C         -61.8571  -50.7293  -23.6298 C.ar    1  UNL1        0.0356
      4 C         -61.9968  -49.3785  -23.9923 C.ar    1  UNL1        0.1318
      5 N         -63.1857  -48.9524  -24.5044 N.ar    1  UNL1       -0.2279
      6 C         -64.2468  -49.7848  -24.6736 C.ar    1  UNL1        0.1149
      7 N         -60.9106  -48.4405  -23.8304 N.pl3   1  UNL1       -0.2932
      8 C         -60.2289  -48.2937  -22.5324 C.3     1  UNL1        0.0923
      9 C         -58.8050  -47.7535  -22.7130 C.3     1  UNL1        0.0252
     10 C         -58.7664  -46.4241  -23.5082 C.3     1  UNL1        0.0472
     11 C         -59.9144  -46.3082  -24.5439 C.3     1  UNL1        0.0252
     12 C         -60.4309  -47.6770  -24.9926 C.3     1  UNL1        0.0923
     13 C         -58.7646  -45.2119  -22.5537 C.3     1  UNL1        0.2054
     14 O         -59.0187  -43.9963  -23.2608 O.3     1  UNL1       -0.4755
     15 C         -60.1369  -43.1639  -23.0865 C.ar    1  UNL1        0.1390
     16 C         -60.2695  -42.4937  -21.8663 C.ar    1  UNL1        0.0433
     17 C         -61.3642  -41.6482  -21.6210 C.ar    1  UNL1        0.0787
     18 C         -62.3231  -41.4642  -22.6316 C.ar    1  UNL1        0.0131
     19 C         -62.2052  -42.1253  -23.8663 C.ar    1  UNL1        0.0787
     20 C         -61.1086  -42.9745  -24.0865 C.ar    1  UNL1        0.0433
     21 C         -61.5061  -40.9369  -20.3268 C.2     1  UNL1        0.3381
     22 O         -60.9242  -41.3816  -19.3017 O.2     1  UNL1       -0.2451
     23 O         -62.2595  -39.7693  -20.2095 O.3     1  UNL1       -0.4771
     24 H         -62.6656  -39.3000  -21.0085 H       1  UNL1        0.2954
     25 C         -63.2228  -41.9318  -24.9246 C.2     1  UNL1        0.3381
     26 O         -63.2292  -42.6688  -25.9477 O.2     1  UNL1       -0.2451
     27 O         -64.1841  -40.9318  -24.8007 O.3     1  UNL1       -0.4771
     28 H         -64.8843  -40.7909  -25.5192 H       1  UNL1        0.2954
     29 C         -65.5150  -53.1668  -23.6308 C.2     1  UNL1        0.2839
     30 O         -64.6531  -53.5474  -22.7937 O.2     1  UNL1       -0.2665
     31 N         -65.2401  -52.0540  -24.4973 N.am    1  UNL1       -0.2766
     32 H         -65.8156  -51.9536  -25.3641 H       1  UNL1        0.1553
     33 C         -67.9376  -53.1560  -21.5323 C.3     1  UNL1        0.0345
     34 C         -67.8554  -53.8875  -22.8382 C.ar    1  UNL1        0.0202
     35 C         -66.7950  -53.8902  -23.7514 C.ar    1  UNL1        0.1946
     36 O         -67.0932  -54.6534  -24.7880 O.2     1  UNL1       -0.4492
     37 C         -68.2920  -55.1463  -24.5938 C.ar    1  UNL1        0.1452
     38 C         -68.9999  -55.9990  -25.4334 C.ar    1  UNL1        0.0375
     39 C         -70.2825  -56.4083  -25.0296 C.ar    1  UNL1        0.0031
     40 C         -70.8359  -55.9620  -23.7991 C.ar    1  UNL1        0.0002
     41 C         -70.0814  -55.0943  -22.9731 C.ar    1  UNL1        0.0028
     42 C         -68.8115  -54.7085  -23.4052 C.ar    1  UNL1        0.0337
     43 C         -72.1921  -56.4009  -23.3830 C.ar    1  UNL1        0.0000
     44 C         -72.5282  -56.4907  -22.0186 C.ar    1  UNL1        0.0000
     45 C         -73.8060  -56.9042  -21.6296 C.ar    1  UNL1        0.0000
     46 C         -74.7611  -57.2310  -22.5947 C.ar    1  UNL1        0.0000
     47 C         -74.4404  -57.1455  -23.9513 C.ar    1  UNL1        0.0000
     48 C         -73.1638  -56.7334  -24.3461 C.ar    1  UNL1        0.0000
@<TRIPOS>BOND
     1    33    34    1
     2    34    35   ar
     3    35    29    1
     4    29    30    2
     5    29    31   am
     6    31     1    1
     7     1     2   ar
     8     2     3   ar
     9     3     4   ar
    10     4     7    1
    11     7     8    1
    12     8     9    1
    13     9    10    1
    14    10    13    1
    15    13    14    1
    16    14    15    1
    17    15    16   ar
    18    16    17   ar
    19    17    21    1
    20    21    22    2
    21    21    23    1
    22    17    18   ar
    23    18    19   ar
    24    19    25    1
    25    25    26    2
    26    25    27    1
    27    19    20   ar
    28    10    11    1
    29    11    12    1
    30     4     5   ar
    31     5     6   ar
    32    35    36   ar
    33    36    37   ar
    34    37    38   ar
    35    38    39   ar
    36    39    40   ar
    37    40    43    1
    38    43    44   ar
    39    44    45   ar
    40    45    46   ar
    41    46    47   ar
    42    47    48   ar
    43    40    41   ar
    44    41    42   ar
    45    42    34   ar
    46     6     1   ar
    47    42    37   ar
    48    12     7    1
    49    48    43   ar
    50    20    15   ar
    51    31    32    1
    52    23    24    1
    53    27    28    1
@<TRIPOS>MOLECULE
*****
 48 53 0 0 0
SMALL
GASTEIGER

@<TRIPOS>ATOM
      1 C         -64.4469  -52.1162  -24.9633 C.ar    1  UNL1        0.0702
      2 C         -64.0257  -52.2357  -23.6339 C.ar    1  UNL1        0.0191
      3 C         -64.5765  -53.2145  -22.8055 C.ar    1  UNL1        0.0356
      4 C         -65.5734  -54.0686  -23.3076 C.ar    1  UNL1        0.1318
      5 N         -65.9813  -53.9191  -24.5993 N.ar    1  UNL1       -0.2279
      6 C         -65.4555  -52.9763  -25.4253 C.ar    1  UNL1        0.1149
      7 N         -66.1671  -55.0963  -22.4846 N.pl3   1  UNL1       -0.2932
      8 C         -67.3241  -55.8718  -22.9651 C.3     1  UNL1        0.0923
      9 C         -67.4060  -57.2344  -22.2663 C.3     1  UNL1        0.0252
     10 C         -67.4280  -57.1135  -20.7216 C.3     1  UNL1        0.0472
     11 C         -66.6481  -55.8779  -20.2029 C.3     1  UNL1        0.0252
     12 C         -65.5645  -55.4229  -21.1830 C.3     1  UNL1        0.0923
     13 C         -68.8767  -57.1100  -20.1906 C.3     1  UNL1        0.2054
     14 O         -69.3447  -55.7774  -19.9727 O.3     1  UNL1       -0.4755
     15 C         -70.1176  -55.3472  -18.8813 C.ar    1  UNL1        0.1390
     16 C         -69.8142  -55.8679  -17.6194 C.ar    1  UNL1        0.0433
     17 C         -70.5478  -55.4855  -16.4840 C.ar    1  UNL1        0.0787
     18 C         -71.5858  -54.5492  -16.6269 C.ar    1  UNL1        0.0131
     19 C         -71.9031  -54.0109  -17.8859 C.ar    1  UNL1        0.0787
     20 C         -71.1641  -54.4152  -19.0095 C.ar    1  UNL1        0.0433
     21 C         -70.2272  -56.0374  -15.1448 C.2     1  UNL1        0.3381
     22 O         -70.9046  -56.9947  -14.6844 O.2     1  UNL1       -0.2451
     23 O         -69.1779  -55.5352  -14.3756 O.3     1  UNL1       -0.4771
     24 H         -68.5296  -54.8415  -14.7246 H       1  UNL1        0.2954
     25 C         -73.0025  -53.0293  -18.0302 C.2     1  UNL1        0.3381
     26 O         -74.0098  -53.2976  -18.7396 O.2     1  UNL1       -0.2451
     27 O         -72.9345  -51.7980  -17.3832 O.3     1  UNL1       -0.4771
     28 H         -73.6811  -51.1194  -17.4758 H       1  UNL1        0.2954
     29 C         -63.9720  -49.6831  -25.5114 C.2     1  UNL1        0.2839
     30 O         -64.7720  -49.2624  -24.6330 O.2     1  UNL1       -0.2665
     31 N         -63.8858  -51.0885  -25.7981 N.am    1  UNL1       -0.2766
     32 H         -63.4641  -51.3779  -26.7097 H       1  UNL1        0.1553
     33 C         -64.1387  -49.0897  -28.6567 C.3     1  UNL1        0.0345
     34 C         -63.2198  -48.4649  -27.6504 C.ar    1  UNL1        0.0202
     35 C         -63.1498  -48.7275  -26.2776 C.ar    1  UNL1        0.1946
     36 O         -62.2149  -47.9777  -25.7212 O.2     1  UNL1       -0.4492
     37 C         -61.6746  -47.2428  -26.6624 C.ar    1  UNL1        0.1452
     38 C         -60.6532  -46.3098  -26.5226 C.ar    1  UNL1        0.0375
     39 C         -60.2222  -45.6257  -27.6724 C.ar    1  UNL1        0.0031
     40 C         -60.8149  -45.8827  -28.9382 C.ar    1  UNL1        0.0002
     41 C         -61.8522  -46.8411  -29.0370 C.ar    1  UNL1        0.0028
     42 C         -62.2548  -47.5017  -27.8752 C.ar    1  UNL1        0.0337
     43 C         -60.3515  -45.1535  -30.1459 C.ar    1  UNL1        0.0000
     44 C         -59.0148  -45.2577  -30.5760 C.ar    1  UNL1        0.0000
     45 C         -58.5812  -44.5700  -31.7136 C.ar    1  UNL1        0.0000
     46 C         -59.4738  -43.7735  -32.4340 C.ar    1  UNL1        0.0000
     47 C         -60.8024  -43.6623  -32.0181 C.ar    1  UNL1        0.0000
     48 C         -61.2414  -44.3470  -30.8807 C.ar    1  UNL1        0.0000
@<TRIPOS>BOND
     1    33    34    1
     2    34    35   ar
     3    35    29    1
     4    29    30    2
     5    29    31   am
     6    31     1    1
     7     1     2   ar
     8     2     3   ar
     9     3     4   ar
    10     4     7    1
    11     7     8    1
    12     8     9    1
    13     9    10    1
    14    10    13    1
    15    13    14    1
    16    14    15    1
    17    15    16   ar
    18    16    17   ar
    19    17    21    1
    20    21    22    2
    21    21    23    1
    22    17    18   ar
    23    18    19   ar
    24    19    25    1
    25    25    26    2
    26    25    27    1
    27    19    20   ar
    28    10    11    1
    29    11    12    1
    30     4     5   ar
    31     5     6   ar
    32    35    36   ar
    33    36    37   ar
    34    37    38   ar
    35    38    39   ar
    36    39    40   ar
    37    40    43    1
    38    43    44   ar
    39    44    45   ar
    40    45    46   ar
    41    46    47   ar
    42    47    48   ar
    43    40    41   ar
    44    41    42   ar
    45    42    34   ar
    46     6     1   ar
    47    42    37   ar
    48    12     7    1
    49    48    43   ar
    50    20    15   ar
    51    31    32    1
    52    23    24    1
    53    27    28    1
@<TRIPOS>MOLECULE
*****
 48 53 0 0 0
SMALL
GASTEIGER

@<TRIPOS>ATOM
      1 C         -64.3506  -51.9808  -24.9026 C.ar    1  UNL1        0.0702
      2 C         -63.8738  -52.1248  -23.5946 C.ar    1  UNL1        0.0191
      3 C         -64.4320  -53.0782  -22.7421 C.ar    1  UNL1        0.0356
      4 C         -65.4918  -53.8814  -23.1974 C.ar    1  UNL1        0.1318
      5 N         -65.9521  -53.7083  -24.4684 N.ar    1  UNL1       -0.2279
      6 C         -65.4205  -52.7895  -25.3174 C.ar    1  UNL1        0.1149
      7 N         -66.0955  -54.8816  -22.3482 N.pl3   1  UNL1       -0.2932
      8 C         -66.7431  -56.0712  -22.9281 C.3     1  UNL1        0.0923
      9 C         -66.7633  -57.2335  -21.9277 C.3     1  UNL1        0.0252
     10 C         -67.4235  -56.8500  -20.5793 C.3     1  UNL1        0.0472
     11 C         -67.2361  -55.3531  -20.2210 C.3     1  UNL1        0.0252
     12 C         -65.9979  -54.7482  -20.8865 C.3     1  UNL1        0.0923
     13 C         -68.9181  -57.2331  -20.5697 C.3     1  UNL1        0.2054
     14 O         -69.7453  -56.0956  -20.8227 O.3     1  UNL1       -0.4755
     15 C         -70.4532  -55.8435  -22.0097 C.ar    1  UNL1        0.1390
     16 C         -69.7891  -55.1635  -23.0355 C.ar    1  UNL1        0.0433
     17 C         -70.4362  -54.8740  -24.2482 C.ar    1  UNL1        0.0787
     18 C         -71.7638  -55.2971  -24.4302 C.ar    1  UNL1        0.0131
     19 C         -72.4470  -55.9857  -23.4130 C.ar    1  UNL1        0.0787
     20 C         -71.7847  -56.2553  -22.2044 C.ar    1  UNL1        0.0433
     21 C         -69.7329  -54.1525  -25.3371 C.2     1  UNL1        0.3381
     22 O         -70.2652  -53.1377  -25.8606 O.2     1  UNL1       -0.2451
     23 O         -68.4794  -54.5566  -25.7955 O.3     1  UNL1       -0.4771
     24 H         -67.9490  -55.2953  -25.3523 H       1  UNL1        0.2954
     25 C         -73.8481  -56.4232  -23.6093 C.2     1  UNL1        0.3381
     26 O         -74.5888  -56.6596  -22.6166 O.2     1  UNL1       -0.2451
     27 O         -74.3623  -56.5786  -24.8941 O.3     1  UNL1       -0.4771
     28 H         -75.3193  -56.8777  -25.0391 H       1  UNL1        0.2954
     29 C         -63.9119  -49.5644  -25.5466 C.2     1  UNL1        0.2839
     30 O         -64.7579  -49.1242  -24.7225 O.2     1  UNL1       -0.2665
     31 N         -63.7800  -50.9790  -25.7621 N.am    1  UNL1       -0.2766
     32 H         -63.3138  -51.2996  -26.6410 H       1  UNL1        0.1553
     33 C         -64.1077  -48.9680  -28.6896 C.3     1  UNL1        0.0345
     34 C         -63.1644  -48.3607  -27.6954 C.ar    1  UNL1        0.0202
     35 C         -63.0817  -48.6246  -26.3235 C.ar    1  UNL1        0.1946
     36 O         -62.1257  -47.8927  -25.7794 O.2     1  UNL1       -0.4492
     37 C         -61.5837  -47.1682  -26.7275 C.ar    1  UNL1        0.1452
     38 C         -60.5431  -46.2547  -26.6011 C.ar    1  UNL1        0.0375
     39 C         -60.1140  -45.5789  -27.7565 C.ar    1  UNL1        0.0031
     40 C         -60.7277  -45.8246  -29.0145 C.ar    1  UNL1        0.0002
     41 C         -61.7841  -46.7632  -29.0997 C.ar    1  UNL1        0.0028
     42 C         -62.1842  -47.4160  -27.9327 C.ar    1  UNL1        0.0337
     43 C         -60.2660  -45.1044  -30.2283 C.ar    1  UNL1        0.0000
     44 C         -58.9179  -45.1689  -30.6296 C.ar    1  UNL1        0.0000
     45 C         -58.4860  -44.4898  -31.7730 C.ar    1  UNL1        0.0000
     46 C         -59.3917  -43.7412  -32.5277 C.ar    1  UNL1        0.0000
     47 C         -60.7317  -43.6697  -32.1406 C.ar    1  UNL1        0.0000
     48 C         -61.1691  -44.3460  -30.9976 C.ar    1  UNL1        0.0000
@<TRIPOS>BOND
     1    33    34    1
     2    34    35   ar
     3    35    29    1
     4    29    30    2
     5    29    31   am
     6    31     1    1
     7     1     2   ar
     8     2     3   ar
     9     3     4   ar
    10     4     7    1
    11     7     8    1
    12     8     9    1
    13     9    10    1
    14    10    13    1
    15    13    14    1
    16    14    15    1
    17    15    16   ar
    18    16    17   ar
    19    17    21    1
    20    21    22    2
    21    21    23    1
    22    17    18   ar
    23    18    19   ar
    24    19    25    1
    25    25    26    2
    26    25    27    1
    27    19    20   ar
    28    10    11    1
    29    11    12    1
    30     4     5   ar
    31     5     6   ar
    32    35    36   ar
    33    36    37   ar
    34    37    38   ar
    35    38    39   ar
    36    39    40   ar
    37    40    43    1
    38    43    44   ar
    39    44    45   ar
    40    45    46   ar
    41    46    47   ar
    42    47    48   ar
    43    40    41   ar
    44    41    42   ar
    45    42    34   ar
    46     6     1   ar
    47    42    37   ar
    48    12     7    1
    49    48    43   ar
    50    20    15   ar
    51    31    32    1
    52    23    24    1
    53    27    28    1
@<TRIPOS>MOLECULE
*****
 48 53 0 0 0
SMALL
GASTEIGER

@<TRIPOS>ATOM
      1 C         -64.3359  -52.0334  -24.8171 C.ar    1  UNL1        0.0702
      2 C         -63.8078  -52.2339  -23.5365 C.ar    1  UNL1        0.0191
      3 C         -64.3810  -53.1720  -22.6769 C.ar    1  UNL1        0.0356
      4 C         -65.5065  -53.9020  -23.0964 C.ar    1  UNL1        0.1318
      5 N         -66.0147  -53.6741  -24.3402 N.ar    1  UNL1       -0.2279
      6 C         -65.4700  -52.7691  -25.1957 C.ar    1  UNL1        0.1149
      7 N         -66.1279  -54.8840  -22.2389 N.pl3   1  UNL1       -0.2932
      8 C         -66.7222  -56.1086  -22.8028 C.3     1  UNL1        0.0923
      9 C         -66.7645  -57.2337  -21.7615 C.3     1  UNL1        0.0252
     10 C         -67.4951  -56.8165  -20.4602 C.3     1  UNL1        0.0472
     11 C         -67.3566  -55.3036  -20.1502 C.3     1  UNL1        0.0252
     12 C         -66.1017  -54.6951  -20.7803 C.3     1  UNL1        0.0923
     13 C         -68.9800  -57.2333  -20.5051 C.3     1  UNL1        0.2054
     14 O         -69.8243  -56.1117  -20.7727 O.3     1  UNL1       -0.4755
     15 C         -70.4401  -55.8230  -22.0019 C.ar    1  UNL1        0.1390
     16 C         -71.7782  -56.1944  -22.1663 C.ar    1  UNL1        0.0433
     17 C         -72.4564  -55.9406  -23.3700 C.ar    1  UNL1        0.0787
     18 C         -71.7765  -55.2842  -24.4100 C.ar    1  UNL1        0.0131
     19 C         -70.4329  -54.8989  -24.2626 C.ar    1  UNL1        0.0787
     20 C         -69.7706  -55.1721  -23.0548 C.ar    1  UNL1        0.0433
     21 C         -73.8759  -56.3343  -23.5457 C.2     1  UNL1        0.3381
     22 O         -74.6462  -56.3586  -22.5490 O.2     1  UNL1       -0.2451
     23 O         -74.3960  -56.6681  -24.7958 O.3     1  UNL1       -0.4771
     24 H         -73.8649  -56.5694  -25.6512 H       1  UNL1        0.2954
     25 C         -69.7205  -54.2133  -25.3651 C.2     1  UNL1        0.3381
     26 O         -70.3422  -53.4433  -26.1464 O.2     1  UNL1       -0.2451
     27 O         -68.3548  -54.4127  -25.5504 O.3     1  UNL1       -0.4771
     28 H         -67.8582  -53.9486  -26.3018 H       1  UNL1        0.2954
     29 C         -63.9329  -49.6306  -25.5314 C.2     1  UNL1        0.2839
     30 O         -64.8358  -49.1861  -24.7727 O.2     1  UNL1       -0.2665
     31 N         -63.7480  -51.0475  -25.6832 N.am    1  UNL1       -0.2766
     32 H         -63.2244  -51.3865  -26.5220 H       1  UNL1        0.1553
     33 C         -64.0993  -49.0215  -28.6737 C.3     1  UNL1        0.0345
     34 C         -63.1584  -48.4260  -27.6701 C.ar    1  UNL1        0.0202
     35 C         -63.0885  -48.6954  -26.2986 C.ar    1  UNL1        0.1946
     36 O         -62.1303  -47.9738  -25.7446 O.2     1  UNL1       -0.4492
     37 C         -61.5748  -47.2508  -26.6860 C.ar    1  UNL1        0.1452
     38 C         -60.5273  -46.3469  -26.5484 C.ar    1  UNL1        0.0375
     39 C         -60.0834  -45.6708  -27.6980 C.ar    1  UNL1        0.0031
     40 C         -60.6895  -45.9067  -28.9615 C.ar    1  UNL1        0.0002
     41 C         -61.7534  -46.8357  -29.0582 C.ar    1  UNL1        0.0028
     42 C         -62.1682  -47.4890  -27.8966 C.ar    1  UNL1        0.0337
     43 C         -60.2123  -45.1863  -30.1692 C.ar    1  UNL1        0.0000
     44 C         -61.1016  -44.4126  -30.9393 C.ar    1  UNL1        0.0000
     45 C         -60.6494  -43.7353  -32.0759 C.ar    1  UNL1        0.0000
     46 C         -59.3082  -43.8210  -32.4558 C.ar    1  UNL1        0.0000
     47 C         -58.4160  -44.5846  -31.7000 C.ar    1  UNL1        0.0000
     48 C         -58.8627  -45.2648  -30.5629 C.ar    1  UNL1        0.0000
@<TRIPOS>BOND
     1    33    34    1
     2    34    35   ar
     3    35    29    1
     4    29    30    2
     5    29    31   am
     6    31     1    1
     7     1     2   ar
     8     2     3   ar
     9     3     4   ar
    10     4     7    1
    11     7     8    1
    12     8     9    1
    13     9    10    1
    14    10    13    1
    15    13    14    1
    16    14    15    1
    17    15    16   ar
    18    16    17   ar
    19    17    21    1
    20    21    22    2
    21    21    23    1
    22    17    18   ar
    23    18    19   ar
    24    19    25    1
    25    25    26    2
    26    25    27    1
    27    19    20   ar
    28    10    11    1
    29    11    12    1
    30     4     5   ar
    31     5     6   ar
    32    35    36   ar
    33    36    37   ar
    34    37    38   ar
    35    38    39   ar
    36    39    40   ar
    37    40    43    1
    38    43    44   ar
    39    44    45   ar
    40    45    46   ar
    41    46    47   ar
    42    47    48   ar
    43    40    41   ar
    44    41    42   ar
    45    42    34   ar
    46     6     1   ar
    47    42    37   ar
    48    12     7    1
    49    48    43   ar
    50    20    15   ar
    51    31    32    1
    52    23    24    1
    53    27    28    1
@<TRIPOS>MOLECULE
*****
 48 53 0 0 0
SMALL
GASTEIGER

@<TRIPOS>ATOM
      1 C         -63.6870  -50.6845  -24.4441 C.ar    1  UNL1        0.0702
      2 C         -62.9212  -51.6429  -23.7702 C.ar    1  UNL1        0.0191
      3 C         -63.5082  -52.8283  -23.3255 C.ar    1  UNL1        0.0356
      4 C         -64.8799  -53.0471  -23.5400 C.ar    1  UNL1        0.1318
      5 N         -65.6086  -52.0899  -24.1804 N.ar    1  UNL1       -0.2279
      6 C         -65.0570  -50.9304  -24.6262 C.ar    1  UNL1        0.1149
      7 N         -65.5255  -54.2613  -23.0983 N.pl3   1  UNL1       -0.2932
      8 C         -66.7476  -54.7490  -23.7612 C.3     1  UNL1        0.0923
      9 C         -66.9104  -56.2628  -23.5778 C.3     1  UNL1        0.0252
     10 C         -66.8840  -56.6908  -22.0887 C.3     1  UNL1        0.0472
     11 C         -66.0033  -55.7642  -21.2112 C.3     1  UNL1        0.0252
     12 C         -64.9150  -55.0589  -22.0236 C.3     1  UNL1        0.0923
     13 C         -68.3145  -56.7883  -21.5189 C.3     1  UNL1        0.2054
     14 O         -68.2950  -57.0174  -20.1084 O.3     1  UNL1       -0.4755
     15 C         -69.0977  -56.3624  -19.1595 C.ar    1  UNL1        0.1390
     16 C         -70.0766  -55.4805  -19.6280 C.ar    1  UNL1        0.0433
     17 C         -70.9126  -54.7883  -18.7362 C.ar    1  UNL1        0.0787
     18 C         -70.7683  -55.0091  -17.3560 C.ar    1  UNL1        0.0131
     19 C         -69.7934  -55.8949  -16.8656 C.ar    1  UNL1        0.0787
     20 C         -68.9609  -56.5683  -17.7742 C.ar    1  UNL1        0.0433
     21 C         -71.9513  -53.8522  -19.2319 C.2     1  UNL1        0.3381
     22 O         -73.1318  -54.2594  -19.3990 O.2     1  UNL1       -0.2451
     23 O         -71.6639  -52.5159  -19.5082 O.3     1  UNL1       -0.4771
     24 H         -70.7675  -52.0964  -19.2984 H       1  UNL1        0.2954
     25 C         -69.6425  -56.1181  -15.4094 C.2     1  UNL1        0.3381
     26 O         -68.5016  -56.0903  -14.8734 O.2     1  UNL1       -0.2451
     27 O         -70.7610  -56.3617  -14.6163 O.3     1  UNL1       -0.4771
     28 H         -70.6686  -56.5160  -13.6193 H       1  UNL1        0.2954
     29 C         -63.3612  -48.8118  -26.1272 C.2     1  UNL1        0.2839
     30 O         -63.9885  -49.4277  -27.0302 O.2     1  UNL1       -0.2665
     31 N         -63.0728  -49.4583  -24.8767 N.am    1  UNL1       -0.2766
     32 H         -62.3101  -49.0600  -24.2832 H       1  UNL1        0.1553
     33 C         -63.8205  -47.0485  -28.7640 C.3     1  UNL1        0.0345
     34 C         -63.0836  -46.6630  -27.5167 C.ar    1  UNL1        0.0202
     35 C         -62.8846  -47.4366  -26.3676 C.ar    1  UNL1        0.1946
     36 O         -62.1869  -46.7529  -25.4779 O.2     1  UNL1       -0.4492
     37 C         -61.9226  -45.5762  -25.9909 C.ar    1  UNL1        0.1452
     38 C         -61.2124  -44.5377  -25.3989 C.ar    1  UNL1        0.0375
     39 C         -61.0462  -43.3498  -26.1316 C.ar    1  UNL1        0.0031
     40 C         -61.5891  -43.2178  -27.4383 C.ar    1  UNL1        0.0002
     41 C         -62.3053  -44.2996  -28.0047 C.ar    1  UNL1        0.0028
     42 C         -62.4508  -45.4641  -27.2490 C.ar    1  UNL1        0.0337
     43 C         -61.4073  -41.9578  -28.2028 C.ar    1  UNL1        0.0000
     44 C         -62.3948  -41.5195  -29.1057 C.ar    1  UNL1        0.0000
     45 C         -62.2209  -40.3327  -29.8243 C.ar    1  UNL1        0.0000
     46 C         -61.0635  -39.5709  -29.6501 C.ar    1  UNL1        0.0000
     47 C         -60.0768  -39.9944  -28.7570 C.ar    1  UNL1        0.0000
     48 C         -60.2449  -41.1808  -28.0365 C.ar    1  UNL1        0.0000
@<TRIPOS>BOND
     1    33    34    1
     2    34    35   ar
     3    35    29    1
     4    29    30    2
     5    29    31   am
     6    31     1    1
     7     1     2   ar
     8     2     3   ar
     9     3     4   ar
    10     4     7    1
    11     7     8    1
    12     8     9    1
    13     9    10    1
    14    10    13    1
    15    13    14    1
    16    14    15    1
    17    15    16   ar
    18    16    17   ar
    19    17    21    1
    20    21    22    2
    21    21    23    1
    22    17    18   ar
    23    18    19   ar
    24    19    25    1
    25    25    26    2
    26    25    27    1
    27    19    20   ar
    28    10    11    1
    29    11    12    1
    30     4     5   ar
    31     5     6   ar
    32    35    36   ar
    33    36    37   ar
    34    37    38   ar
    35    38    39   ar
    36    39    40   ar
    37    40    43    1
    38    43    44   ar
    39    44    45   ar
    40    45    46   ar
    41    46    47   ar
    42    47    48   ar
    43    40    41   ar
    44    41    42   ar
    45    42    34   ar
    46     6     1   ar
    47    42    37   ar
    48    12     7    1
    49    48    43   ar
    50    20    15   ar
    51    31    32    1
    52    23    24    1
    53    27    28    1
@<TRIPOS>MOLECULE
*****
 48 53 0 0 0
SMALL
GASTEIGER

@<TRIPOS>ATOM
      1 C         -62.5724  -40.8871  -20.2856 C.ar    1  UNL1        0.0702
      2 C         -61.2481  -41.1317  -19.9045 C.ar    1  UNL1        0.0191
      3 C         -60.5609  -42.2349  -20.4126 C.ar    1  UNL1        0.0356
      4 C         -61.2131  -43.1131  -21.2952 C.ar    1  UNL1        0.1318
      5 N         -62.5093  -42.8649  -21.6352 N.ar    1  UNL1       -0.2279
      6 C         -63.1963  -41.7943  -21.1564 C.ar    1  UNL1        0.1149
      7 N         -60.5373  -44.2646  -21.8459 N.pl3   1  UNL1       -0.2932
      8 C         -59.3625  -44.1022  -22.7201 C.3     1  UNL1        0.0923
      9 C         -58.4745  -45.3523  -22.6921 C.3     1  UNL1        0.0252
     10 C         -59.2510  -46.6450  -23.0485 C.3     1  UNL1        0.0472
     11 C         -60.7424  -46.5870  -22.6287 C.3     1  UNL1        0.0252
     12 C         -60.9814  -45.6158  -21.4704 C.3     1  UNL1        0.0923
     13 C         -59.1165  -46.9712  -24.5506 C.3     1  UNL1        0.2054
     14 O         -60.3613  -46.7986  -25.2309 O.3     1  UNL1       -0.4755
     15 C         -60.6742  -45.7544  -26.1172 C.ar    1  UNL1        0.1390
     16 C         -61.4374  -44.6889  -25.6293 C.ar    1  UNL1        0.0433
     17 C         -61.7909  -43.6127  -26.4600 C.ar    1  UNL1        0.0787
     18 C         -61.3477  -43.6070  -27.7936 C.ar    1  UNL1        0.0131
     19 C         -60.5761  -44.6663  -28.3015 C.ar    1  UNL1        0.0787
     20 C         -60.2432  -45.7376  -27.4567 C.ar    1  UNL1        0.0433
     21 C         -62.6006  -42.4820  -25.9437 C.2     1  UNL1        0.3381
     22 O         -63.0964  -41.6490  -26.7485 O.2     1  UNL1       -0.2451
     23 O         -62.8469  -42.3172  -24.5810 O.3     1  UNL1       -0.4771
     24 H         -62.5700  -43.0025  -23.8903 H       1  UNL1        0.2954
     25 C         -60.1178  -44.6569  -29.7096 C.2     1  UNL1        0.3381
     26 O         -60.9533  -44.6261  -30.6535 O.2     1  UNL1       -0.2451
     27 O         -58.7573  -44.6823  -30.0059 O.3     1  UNL1       -0.4771
     28 H         -58.4335  -44.6765  -30.9659 H       1  UNL1        0.2954
     29 C         -63.2120  -38.4300  -20.2805 C.2     1  UNL1        0.2839
     30 O         -62.3280  -38.1322  -21.1281 O.2     1  UNL1       -0.2665
     31 N         -63.2743  -39.7585  -19.7364 N.am    1  UNL1       -0.2766
     32 H         -63.7927  -39.8971  -18.8394 H       1  UNL1        0.1553
     33 C         -66.4028  -38.4782  -20.5797 C.3     1  UNL1        0.0345
     34 C         -65.5548  -37.4195  -19.9413 C.ar    1  UNL1        0.0202
     35 C         -64.1613  -37.4020  -19.8135 C.ar    1  UNL1        0.1946
     36 O         -63.7784  -36.3015  -19.1906 O.2     1  UNL1       -0.4492
     37 C         -64.8516  -35.6040  -18.9084 C.ar    1  UNL1        0.1452
     38 C         -64.9137  -34.3784  -18.2548 C.ar    1  UNL1        0.0375
     39 C         -66.1795  -33.8019  -18.0519 C.ar    1  UNL1        0.0031
     40 C         -67.3583  -34.4551  -18.5027 C.ar    1  UNL1        0.0002
     41 C         -67.2508  -35.7021  -19.1644 C.ar    1  UNL1        0.0028
     42 C         -65.9783  -36.2450  -19.3491 C.ar    1  UNL1        0.0337
     43 C         -68.6902  -33.8366  -18.2824 C.ar    1  UNL1        0.0000
     44 C         -69.8396  -34.3762  -18.8909 C.ar    1  UNL1        0.0000
     45 C         -71.0924  -33.7916  -18.6817 C.ar    1  UNL1        0.0000
     46 C         -71.2130  -32.6657  -17.8643 C.ar    1  UNL1        0.0000
     47 C         -70.0807  -32.1213  -17.2545 C.ar    1  UNL1        0.0000
     48 C         -68.8251  -32.7011  -17.4609 C.ar    1  UNL1        0.0000
@<TRIPOS>BOND
     1    33    34    1
     2    34    35   ar
     3    35    29    1
     4    29    30    2
     5    29    31   am
     6    31     1    1
     7     1     2   ar
     8     2     3   ar
     9     3     4   ar
    10     4     7    1
    11     7     8    1
    12     8     9    1
    13     9    10    1
    14    10    13    1
    15    13    14    1
    16    14    15    1
    17    15    16   ar
    18    16    17   ar
    19    17    21    1
    20    21    22    2
    21    21    23    1
    22    17    18   ar
    23    18    19   ar
    24    19    25    1
    25    25    26    2
    26    25    27    1
    27    19    20   ar
    28    10    11    1
    29    11    12    1
    30     4     5   ar
    31     5     6   ar
    32    35    36   ar
    33    36    37   ar
    34    37    38   ar
    35    38    39   ar
    36    39    40   ar
    37    40    43    1
    38    43    44   ar
    39    44    45   ar
    40    45    46   ar
    41    46    47   ar
    42    47    48   ar
    43    40    41   ar
    44    41    42   ar
    45    42    34   ar
    46     6     1   ar
    47    42    37   ar
    48    12     7    1
    49    48    43   ar
    50    20    15   ar
    51    31    32    1
    52    23    24    1
    53    27    28    1
