@<TRIPOS>MOLECULE
*****
 37 41 0 0 0
SMALL
GASTEIGER

@<TRIPOS>ATOM
      1 C          49.4189   14.2162  -21.3714 C.2     1  UNL1        0.2496
      2 O          50.1542   14.7431  -20.4936 O.2     1  UNL1       -0.2699
      3 N          48.8722   12.8966  -21.1620 N.am    1  UNL1       -0.2614
      4 C          47.6633   12.4752  -21.8795 C.3     1  UNL1        0.1242
      5 C          48.0433   11.7724  -23.1546 C.ar    1  UNL1        0.0317
      6 C          47.4451   12.1943  -24.3557 C.ar    1  UNL1        0.0004
      7 C          47.8260   11.6410  -25.5879 C.ar    1  UNL1       -0.0000
      8 C          48.8039   10.6367  -25.6085 C.ar    1  UNL1        0.0031
      9 C          49.3932   10.1990  -24.4228 C.ar    1  UNL1        0.0366
     10 C          49.0304   10.7518  -23.1899 C.ar    1  UNL1        0.1362
     11 O          49.7123   10.2734  -22.0554 O.3     1  UNL1       -0.4731
     12 C          49.3550   10.4922  -20.6916 C.3     1  UNL1        0.2358
     13 C          49.5730   11.9547  -20.2780 C.3     1  UNL1        0.1724
     14 I          48.9156   12.2419  -18.2610 I       1  UNL1       -0.0490
     15 C          47.2220   12.1312  -26.8511 C.ar    1  UNL1        0.0015
     16 C          46.8422   13.4959  -26.9860 C.ar    1  UNL1        0.0016
     17 C          46.2809   13.9730  -28.1853 C.ar    1  UNL1        0.0206
     18 C          46.1136   13.0675  -29.2273 C.ar    1  UNL1        0.0985
     19 N          45.6224   13.3077  -30.4562 N.ar    1  UNL1       -0.2241
     20 C          45.7048   12.0912  -31.0571 C.ar    1  UNL1        0.1750
     21 N          46.2210   11.1271  -30.2577 N.ar    1  UNL1       -0.3349
     22 C          46.4716   11.7607  -29.1063 C.ar    1  UNL1        0.0757
     23 C          47.0297   11.2464  -27.9396 C.ar    1  UNL1        0.0185
     24 H          46.3889   10.1234  -30.4913 H       1  UNL1        0.1675
     25 C          49.8661   14.7652  -23.7985 C.ar    1  UNL1       -0.0165
     26 C          49.4901   15.4601  -24.9608 C.ar    1  UNL1        0.0142
     27 C          48.4110   16.3509  -24.9469 C.ar    1  UNL1        0.1054
     28 C          47.7041   16.5631  -23.7582 C.ar    1  UNL1        0.0185
     29 C          48.0639   15.8803  -22.5958 C.ar    1  UNL1        0.0055
     30 C          49.1303   14.9707  -22.6053 C.ar    1  UNL1        0.0497
     31 S          47.9613   17.1960  -26.4249 S.O2    1  UNL1        0.0104
     32 C          48.6363   18.8406  -26.3964 C.3     1  UNL1        0.1816
     33 O          48.5014   16.4718  -27.6264 O.2     1  UNL1       -0.1686
     34 O          46.4637   17.2627  -26.5263 O.2     1  UNL1       -0.1686
     35 C          51.0758   13.8553  -23.8609 C.3     1  UNL1        0.0265
     36 C          52.3841   12.2146  -25.3001 C.3     1  UNL1        0.0004
     37 C          51.2973   13.2874  -25.2695 C.3     1  UNL1        0.0047
@<TRIPOS>BOND
     1    36    37    1
     2    37    35    1
     3    35    25    1
     4    25    26   ar
     5    26    27   ar
     6    27    31    1
     7    31    32    1
     8    31    33    2
     9    31    34    2
    10    27    28   ar
    11    28    29   ar
    12    29    30   ar
    13    30     1    1
    14     1     2    2
    15     1     3   am
    16     3     4    1
    17     4     5    1
    18     5     6   ar
    19     6     7   ar
    20     7    15    1
    21    15    16   ar
    22    16    17   ar
    23    17    18   ar
    24    18    19   ar
    25    19    20   ar
    26    20    21   ar
    27    21    22   ar
    28    22    23   ar
    29     7     8   ar
    30     8     9   ar
    31     9    10   ar
    32    10    11    1
    33    11    12    1
    34    12    13    1
    35    13    14    1
    36    30    25   ar
    37    13     3    1
    38    10     5   ar
    39    23    15   ar
    40    22    18   ar
    41    21    24    1
@<TRIPOS>MOLECULE
*****
 37 41 0 0 0
SMALL
GASTEIGER

@<TRIPOS>ATOM
      1 C          46.5584   13.3269  -25.8091 C.2     1  UNL1        0.2496
      2 O          45.8878   12.8625  -26.7701 O.2     1  UNL1       -0.2699
      3 N          46.9747   14.7091  -25.8169 N.am    1  UNL1       -0.2614
      4 C          47.2929   15.3920  -24.5575 C.3     1  UNL1        0.1242
      5 C          48.7657   15.2775  -24.2706 C.ar    1  UNL1        0.0317
      6 C          49.1674   14.8156  -23.0043 C.ar    1  UNL1        0.0004
      7 C          50.5222   14.6001  -22.7082 C.ar    1  UNL1       -0.0000
      8 C          51.4842   14.8737  -23.6906 C.ar    1  UNL1        0.0031
      9 C          51.0995   15.3469  -24.9447 C.ar    1  UNL1        0.0366
     10 C          49.7512   15.5538  -25.2554 C.ar    1  UNL1        0.1362
     11 O          49.4616   15.9925  -26.5609 O.3     1  UNL1       -0.4731
     12 C          48.2154   16.5042  -27.0308 C.3     1  UNL1        0.2358
     13 C          47.1436   15.4070  -27.0991 C.3     1  UNL1        0.1724
     14 I          45.2743   16.2580  -27.7025 I       1  UNL1       -0.0490
     15 C          50.9268   14.0652  -21.3849 C.ar    1  UNL1        0.0015
     16 C          52.2684   14.2031  -20.9317 C.ar    1  UNL1        0.0016
     17 C          52.6583   13.7107  -19.6721 C.ar    1  UNL1        0.0206
     18 C          51.6895   13.0897  -18.8914 C.ar    1  UNL1        0.0985
     19 N          51.8334   12.5705  -17.6589 N.ar    1  UNL1       -0.2241
     20 C          50.5831   12.1203  -17.3733 C.ar    1  UNL1        0.1750
     21 N          49.6890   12.3404  -18.3669 N.ar    1  UNL1       -0.3349
     22 C          50.4051   12.9514  -19.3176 C.ar    1  UNL1        0.0757
     23 C          49.9762   13.4230  -20.5550 C.ar    1  UNL1        0.0185
     24 H          48.6744   12.0942  -18.3818 H       1  UNL1        0.1675
     25 C          48.1291   11.7252  -24.6429 C.ar    1  UNL1       -0.0165
     26 C          48.4316   10.9538  -23.5077 C.ar    1  UNL1        0.0142
     27 C          47.5378   10.8762  -22.4339 C.ar    1  UNL1        0.1054
     28 C          46.3212   11.5646  -22.4949 C.ar    1  UNL1        0.0185
     29 C          46.0061   12.3357  -23.6143 C.ar    1  UNL1        0.0055
     30 C          46.9042   12.4358  -24.6858 C.ar    1  UNL1        0.0497
     31 S          47.9550    9.9088  -21.0228 S.O2    1  UNL1        0.0104
     32 C          49.6942    9.5402  -21.0497 C.3     1  UNL1        0.1816
     33 O          47.6392   10.6616  -19.7606 O.2     1  UNL1       -0.1686
     34 O          47.1642    8.6313  -21.0414 O.2     1  UNL1       -0.1686
     35 C          49.1111   11.7278  -25.7966 C.3     1  UNL1        0.0265
     36 C          51.6349   11.8654  -26.0894 C.3     1  UNL1        0.0004
     37 C          50.4764   11.1551  -25.3921 C.3     1  UNL1        0.0047
@<TRIPOS>BOND
     1    36    37    1
     2    37    35    1
     3    35    25    1
     4    25    26   ar
     5    26    27   ar
     6    27    31    1
     7    31    32    1
     8    31    33    2
     9    31    34    2
    10    27    28   ar
    11    28    29   ar
    12    29    30   ar
    13    30     1    1
    14     1     2    2
    15     1     3   am
    16     3     4    1
    17     4     5    1
    18     5     6   ar
    19     6     7   ar
    20     7    15    1
    21    15    16   ar
    22    16    17   ar
    23    17    18   ar
    24    18    19   ar
    25    19    20   ar
    26    20    21   ar
    27    21    22   ar
    28    22    23   ar
    29     7     8   ar
    30     8     9   ar
    31     9    10   ar
    32    10    11    1
    33    11    12    1
    34    12    13    1
    35    13    14    1
    36    30    25   ar
    37    13     3    1
    38    10     5   ar
    39    23    15   ar
    40    22    18   ar
    41    21    24    1
@<TRIPOS>MOLECULE
*****
 37 41 0 0 0
SMALL
GASTEIGER

@<TRIPOS>ATOM
      1 C          50.1859   11.0975  -23.3030 C.2     1  UNL1        0.2496
      2 O          50.8440   10.5410  -22.3832 O.2     1  UNL1       -0.2699
      3 N          49.3574   12.2429  -23.0104 N.am    1  UNL1       -0.2614
      4 C          48.9989   13.1869  -24.0754 C.3     1  UNL1        0.1242
      5 C          47.6850   12.7891  -24.6915 C.ar    1  UNL1        0.0317
      6 C          47.6097   12.6722  -26.0911 C.ar    1  UNL1        0.0004
      7 C          46.4397   12.2165  -26.7180 C.ar    1  UNL1       -0.0000
      8 C          45.3265   11.8961  -25.9283 C.ar    1  UNL1        0.0031
      9 C          45.3837   12.0227  -24.5408 C.ar    1  UNL1        0.0366
     10 C          46.5485   12.4643  -23.9040 C.ar    1  UNL1        0.1362
     11 O          46.5208   12.5180  -22.4979 O.3     1  UNL1       -0.4731
     12 C          47.4736   13.1586  -21.6509 C.3     1  UNL1        0.2358
     13 C          48.8195   12.4196  -21.6542 C.3     1  UNL1        0.1724
     14 I          50.2351   13.4891  -20.4564 I       1  UNL1       -0.0490
     15 C          46.3918   12.0508  -28.1914 C.ar    1  UNL1        0.0015
     16 C          46.6212   10.7762  -28.7809 C.ar    1  UNL1        0.0016
     17 C          46.5645   10.6067  -30.1770 C.ar    1  UNL1        0.0206
     18 C          46.2764   11.7235  -30.9539 C.ar    1  UNL1        0.0985
     19 N          46.1521   11.7863  -32.2917 N.ar    1  UNL1       -0.2241
     20 C          45.8511   13.0945  -32.5056 C.ar    1  UNL1        0.1750
     21 N          45.7851   13.8272  -31.3682 N.ar    1  UNL1       -0.3349
     22 C          46.0579   12.9461  -30.3990 C.ar    1  UNL1        0.0757
     23 C          46.1042   13.1591  -29.0242 C.ar    1  UNL1        0.0185
     24 H          45.5657   14.8436  -31.2728 H       1  UNL1        0.1675
     25 C          51.1525   11.1185  -25.6391 C.ar    1  UNL1       -0.0165
     26 C          51.2529   10.5099  -26.9020 C.ar    1  UNL1        0.0142
     27 C          50.4998    9.3720  -27.2121 C.ar    1  UNL1        0.1054
     28 C          49.6257    8.8395  -26.2582 C.ar    1  UNL1        0.0185
     29 C          49.5151    9.4311  -24.9993 C.ar    1  UNL1        0.0055
     30 C          50.2807   10.5588  -24.6727 C.ar    1  UNL1        0.0497
     31 S          50.6594    8.6295  -28.8009 S.O2    1  UNL1        0.0104
     32 C          52.2908    8.9368  -29.4378 C.3     1  UNL1        0.1816
     33 O          50.4480    7.1441  -28.7076 O.2     1  UNL1       -0.1686
     34 O          49.6327    9.2124  -29.7302 O.2     1  UNL1       -0.1686
     35 C          51.9517   12.3792  -25.3797 C.3     1  UNL1        0.0265
     36 C          53.3839   12.9499  -23.3555 C.3     1  UNL1        0.0004
     37 C          53.2487   12.0910  -24.6114 C.3     1  UNL1        0.0047
@<TRIPOS>BOND
     1    36    37    1
     2    37    35    1
     3    35    25    1
     4    25    26   ar
     5    26    27   ar
     6    27    31    1
     7    31    32    1
     8    31    33    2
     9    31    34    2
    10    27    28   ar
    11    28    29   ar
    12    29    30   ar
    13    30     1    1
    14     1     2    2
    15     1     3   am
    16     3     4    1
    17     4     5    1
    18     5     6   ar
    19     6     7   ar
    20     7    15    1
    21    15    16   ar
    22    16    17   ar
    23    17    18   ar
    24    18    19   ar
    25    19    20   ar
    26    20    21   ar
    27    21    22   ar
    28    22    23   ar
    29     7     8   ar
    30     8     9   ar
    31     9    10   ar
    32    10    11    1
    33    11    12    1
    34    12    13    1
    35    13    14    1
    36    30    25   ar
    37    13     3    1
    38    10     5   ar
    39    23    15   ar
    40    22    18   ar
    41    21    24    1
@<TRIPOS>MOLECULE
*****
 37 41 0 0 0
SMALL
GASTEIGER

@<TRIPOS>ATOM
      1 C          50.8403   14.0059  -21.1521 C.2     1  UNL1        0.2496
      2 O          51.8006   14.4042  -20.4393 O.2     1  UNL1       -0.2699
      3 N          50.0387   12.8833  -20.7264 N.am    1  UNL1       -0.2614
      4 C          48.6718   12.7167  -21.2341 C.3     1  UNL1        0.1242
      5 C          48.6831   11.8414  -22.4580 C.ar    1  UNL1        0.0317
      6 C          48.0275   12.2994  -23.6150 C.ar    1  UNL1        0.0004
      7 C          48.0809   11.5717  -24.8138 C.ar    1  UNL1       -0.0000
      8 C          48.7836   10.3589  -24.8417 C.ar    1  UNL1        0.0031
      9 C          49.4246    9.8865  -23.6968 C.ar    1  UNL1        0.0366
     10 C          49.3886   10.6093  -22.4996 C.ar    1  UNL1        0.1362
     11 O          50.1015   10.0707  -21.4122 O.3     1  UNL1       -0.4731
     12 C          50.0125   10.4802  -20.0484 C.3     1  UNL1        0.2358
     13 C          50.6244   11.8722  -19.8352 C.3     1  UNL1        0.1724
     14 I          50.3603   12.4744  -17.7980 I       1  UNL1       -0.0490
     15 C          47.4264   12.0922  -26.0392 C.ar    1  UNL1        0.0015
     16 C          46.7623   11.2064  -26.9330 C.ar    1  UNL1        0.0016
     17 C          46.1270   11.6928  -28.0909 C.ar    1  UNL1        0.0206
     18 C          46.1709   13.0625  -28.3269 C.ar    1  UNL1        0.0985
     19 N          45.6185   13.7403  -29.3490 N.ar    1  UNL1       -0.2241
     20 C          45.9513   15.0287  -29.0716 C.ar    1  UNL1        0.1750
     21 N          46.6749   15.1674  -27.9348 N.ar    1  UNL1       -0.3349
     22 C          46.8055   13.9164  -27.4791 C.ar    1  UNL1        0.0757
     23 C          47.4462   13.4791  -26.3234 C.ar    1  UNL1        0.0185
     24 H          47.0398   16.0494  -27.5115 H       1  UNL1        0.1675
     25 C          51.1072   14.2796  -23.6513 C.ar    1  UNL1       -0.0165
     26 C          50.7336   14.9430  -24.8327 C.ar    1  UNL1        0.0142
     27 C          49.8362   16.0161  -24.8000 C.ar    1  UNL1        0.1054
     28 C          49.3128   16.4436  -23.5749 C.ar    1  UNL1        0.0185
     29 C          49.6726   15.7951  -22.3930 C.ar    1  UNL1        0.0055
     30 C          50.5549   14.7062  -22.4183 C.ar    1  UNL1        0.0497
     31 S          49.3822   16.8166  -26.3015 S.O2    1  UNL1        0.0104
     32 C          50.2124   18.3851  -26.4117 C.3     1  UNL1        0.1816
     33 O          49.7777   15.9755  -27.4829 O.2     1  UNL1       -0.1686
     34 O          47.8945   17.0259  -26.3259 O.2     1  UNL1       -0.1686
     35 C          52.1236   13.1600  -23.7426 C.3     1  UNL1        0.0265
     36 C          52.6733   11.0728  -25.0902 C.3     1  UNL1        0.0004
     37 C          52.1307   12.5001  -25.1283 C.3     1  UNL1        0.0047
@<TRIPOS>BOND
     1    36    37    1
     2    37    35    1
     3    35    25    1
     4    25    26   ar
     5    26    27   ar
     6    27    31    1
     7    31    32    1
     8    31    33    2
     9    31    34    2
    10    27    28   ar
    11    28    29   ar
    12    29    30   ar
    13    30     1    1
    14     1     2    2
    15     1     3   am
    16     3     4    1
    17     4     5    1
    18     5     6   ar
    19     6     7   ar
    20     7    15    1
    21    15    16   ar
    22    16    17   ar
    23    17    18   ar
    24    18    19   ar
    25    19    20   ar
    26    20    21   ar
    27    21    22   ar
    28    22    23   ar
    29     7     8   ar
    30     8     9   ar
    31     9    10   ar
    32    10    11    1
    33    11    12    1
    34    12    13    1
    35    13    14    1
    36    30    25   ar
    37    13     3    1
    38    10     5   ar
    39    23    15   ar
    40    22    18   ar
    41    21    24    1
@<TRIPOS>MOLECULE
*****
 37 41 0 0 0
SMALL
GASTEIGER

@<TRIPOS>ATOM
      1 C          48.3542   13.4918  -22.9918 C.2     1  UNL1        0.2496
      2 O          47.7390   14.4489  -22.4492 O.2     1  UNL1       -0.2699
      3 N          49.4478   12.8495  -22.3024 N.am    1  UNL1       -0.2614
      4 C          49.8367   11.4778  -22.6503 C.3     1  UNL1        0.1242
      5 C          50.9218   11.5018  -23.6927 C.ar    1  UNL1        0.0317
      6 C          50.7545   10.7224  -24.8515 C.ar    1  UNL1        0.0004
      7 C          51.6865   10.7736  -25.8995 C.ar    1  UNL1       -0.0000
      8 C          52.8102   11.6019  -25.7696 C.ar    1  UNL1        0.0031
      9 C          52.9951   12.3675  -24.6188 C.ar    1  UNL1        0.0366
     10 C          52.0665   12.3339  -23.5730 C.ar    1  UNL1        0.1362
     11 O          52.3202   13.1743  -22.4728 O.3     1  UNL1       -0.4731
     12 C          51.6716   13.1340  -21.2027 C.3     1  UNL1        0.2358
     13 C          50.2125   13.6022  -21.2982 C.3     1  UNL1        0.1724
     14 I          49.2653   13.4130  -19.3877 I       1  UNL1       -0.0490
     15 C          51.4709    9.9838  -27.1367 C.ar    1  UNL1        0.0015
     16 C          52.5410    9.7681  -28.0494 C.ar    1  UNL1        0.0016
     17 C          52.3494    9.0089  -29.2189 C.ar    1  UNL1        0.0206
     18 C          51.0839    8.4795  -29.4472 C.ar    1  UNL1        0.0985
     19 N          50.6856    7.7129  -30.4782 N.ar    1  UNL1       -0.2241
     20 C          49.3802    7.4705  -30.1872 C.ar    1  UNL1        0.1750
     21 N          48.9669    8.0485  -29.0339 N.ar    1  UNL1       -0.3349
     22 C          50.0546    8.6826  -28.5814 C.ar    1  UNL1        0.0757
     23 C          50.1993    9.4263  -27.4138 C.ar    1  UNL1        0.0185
     24 H          48.0190    8.0028  -28.5983 H       1  UNL1        0.1675
     25 C          48.6298   13.4383  -25.5044 C.ar    1  UNL1       -0.0165
     26 C          48.2267   12.9154  -26.7452 C.ar    1  UNL1        0.0142
     27 C          47.1504   12.0256  -26.8334 C.ar    1  UNL1        0.1054
     28 C          46.4575   11.6604  -25.6740 C.ar    1  UNL1        0.0185
     29 C          46.8456   12.1697  -24.4342 C.ar    1  UNL1        0.0055
     30 C          47.9354   13.0455  -24.3337 C.ar    1  UNL1        0.0497
     31 S          46.6802   11.3818  -28.4036 S.O2    1  UNL1        0.0104
     32 C          46.1094   12.7080  -29.4414 C.3     1  UNL1        0.1816
     33 O          47.8529   10.7170  -29.0687 O.2     1  UNL1       -0.1686
     34 O          45.5836   10.3710  -28.2210 O.2     1  UNL1       -0.1686
     35 C          49.7670   14.4390  -25.4779 C.3     1  UNL1        0.0265
     36 C          48.6403   16.7205  -25.4808 C.3     1  UNL1        0.0004
     37 C          49.4423   15.7015  -26.2880 C.3     1  UNL1        0.0047
@<TRIPOS>BOND
     1    36    37    1
     2    37    35    1
     3    35    25    1
     4    25    26   ar
     5    26    27   ar
     6    27    31    1
     7    31    32    1
     8    31    33    2
     9    31    34    2
    10    27    28   ar
    11    28    29   ar
    12    29    30   ar
    13    30     1    1
    14     1     2    2
    15     1     3   am
    16     3     4    1
    17     4     5    1
    18     5     6   ar
    19     6     7   ar
    20     7    15    1
    21    15    16   ar
    22    16    17   ar
    23    17    18   ar
    24    18    19   ar
    25    19    20   ar
    26    20    21   ar
    27    21    22   ar
    28    22    23   ar
    29     7     8   ar
    30     8     9   ar
    31     9    10   ar
    32    10    11    1
    33    11    12    1
    34    12    13    1
    35    13    14    1
    36    30    25   ar
    37    13     3    1
    38    10     5   ar
    39    23    15   ar
    40    22    18   ar
    41    21    24    1
@<TRIPOS>MOLECULE
*****
 37 41 0 0 0
SMALL
GASTEIGER

@<TRIPOS>ATOM
      1 C          51.1326   12.1914  -23.1785 C.2     1  UNL1        0.2496
      2 O          51.8644   11.7643  -22.2453 O.2     1  UNL1       -0.2699
      3 N          50.4969   13.4827  -23.0679 N.am    1  UNL1       -0.2614
      4 C          50.0788   14.2062  -24.2743 C.3     1  UNL1        0.1242
      5 C          48.6460   13.8791  -24.5970 C.ar    1  UNL1        0.0317
      6 C          48.3318   13.4638  -25.9036 C.ar    1  UNL1        0.0004
      7 C          47.0317   13.0571  -26.2414 C.ar    1  UNL1       -0.0000
      8 C          46.0326   13.0900  -25.2585 C.ar    1  UNL1        0.0031
      9 C          46.3283   13.5147  -23.9635 C.ar    1  UNL1        0.0366
     10 C          47.6232   13.9107  -23.6120 C.ar    1  UNL1        0.1362
     11 O          47.8304   14.2818  -22.2704 O.3     1  UNL1       -0.4731
     12 C          48.9741   14.9480  -21.7377 C.3     1  UNL1        0.2358
     13 C          50.2097   14.0365  -21.7373 C.3     1  UNL1        0.1724
     14 I          51.9123   15.1262  -21.0327 I       1  UNL1       -0.0490
     15 C          46.7269   12.5742  -27.6106 C.ar    1  UNL1        0.0015
     16 C          46.7326   11.1814  -27.9012 C.ar    1  UNL1        0.0016
     17 C          46.4314   10.7132  -29.1940 C.ar    1  UNL1        0.0206
     18 C          46.1286   11.6562  -30.1700 C.ar    1  UNL1        0.0985
     19 N          45.7930   11.4344  -31.4535 N.ar    1  UNL1       -0.2241
     20 C          45.5884   12.6897  -31.9332 C.ar    1  UNL1        0.1750
     21 N          45.7809   13.6601  -31.0078 N.ar    1  UNL1       -0.3349
     22 C          46.1230   12.9898  -29.9017 C.ar    1  UNL1        0.0757
     23 C          46.4146   13.4965  -28.6385 C.ar    1  UNL1        0.0185
     24 H          45.6791   14.6920  -31.1311 H       1  UNL1        0.1675
     25 C          49.8496   10.4582  -24.4985 C.ar    1  UNL1       -0.0165
     26 C          49.6829    9.7439  -25.6974 C.ar    1  UNL1        0.0142
     27 C          50.5836    9.8999  -26.7569 C.ar    1  UNL1        0.1054
     28 C          51.6718   10.7683  -26.6179 C.ar    1  UNL1        0.0185
     29 C          51.8511   11.4857  -25.4346 C.ar    1  UNL1        0.0055
     30 C          50.9425   11.3514  -24.3758 C.ar    1  UNL1        0.0497
     31 S          50.3371    8.9969  -28.2485 S.O2    1  UNL1        0.0104
     32 C          51.8733    8.8895  -29.1373 C.3     1  UNL1        0.1816
     33 O          49.8557    7.6057  -27.9441 O.2     1  UNL1       -0.1686
     34 O          49.3094    9.6966  -29.0921 O.2     1  UNL1       -0.1686
     35 C          48.8737   10.2076  -23.3672 C.3     1  UNL1        0.0265
     36 C          49.2894    9.5341  -20.9489 C.3     1  UNL1        0.0004
     37 C          49.3662    9.1099  -22.4143 C.3     1  UNL1        0.0047
@<TRIPOS>BOND
     1    36    37    1
     2    37    35    1
     3    35    25    1
     4    25    26   ar
     5    26    27   ar
     6    27    31    1
     7    31    32    1
     8    31    33    2
     9    31    34    2
    10    27    28   ar
    11    28    29   ar
    12    29    30   ar
    13    30     1    1
    14     1     2    2
    15     1     3   am
    16     3     4    1
    17     4     5    1
    18     5     6   ar
    19     6     7   ar
    20     7    15    1
    21    15    16   ar
    22    16    17   ar
    23    17    18   ar
    24    18    19   ar
    25    19    20   ar
    26    20    21   ar
    27    21    22   ar
    28    22    23   ar
    29     7     8   ar
    30     8     9   ar
    31     9    10   ar
    32    10    11    1
    33    11    12    1
    34    12    13    1
    35    13    14    1
    36    30    25   ar
    37    13     3    1
    38    10     5   ar
    39    23    15   ar
    40    22    18   ar
    41    21    24    1
@<TRIPOS>MOLECULE
*****
 37 41 0 0 0
SMALL
GASTEIGER

@<TRIPOS>ATOM
      1 C          49.9572   13.6674  -23.0046 C.2     1  UNL1        0.2496
      2 O          49.5965   14.7020  -22.3815 O.2     1  UNL1       -0.2699
      3 N          51.1934   13.0071  -22.6585 N.am    1  UNL1       -0.2614
      4 C          51.3906   11.5899  -22.9850 C.3     1  UNL1        0.1242
      5 C          52.0634   11.4618  -24.3248 C.ar    1  UNL1        0.0317
      6 C          51.4878   10.6097  -25.2845 C.ar    1  UNL1        0.0004
      7 C          52.0157   10.5185  -26.5817 C.ar    1  UNL1       -0.0000
      8 C          53.1485   11.2768  -26.9090 C.ar    1  UNL1        0.0031
      9 C          53.7375   12.1134  -25.9615 C.ar    1  UNL1        0.0366
     10 C          53.2129   12.2217  -24.6691 C.ar    1  UNL1        0.1362
     11 O          53.8525   13.1241  -23.7989 O.3     1  UNL1       -0.4731
     12 C          53.6663   13.2240  -22.3879 C.3     1  UNL1        0.2358
     13 C          52.2785   13.7807  -22.0390 C.3     1  UNL1        0.1724
     14 I          52.0203   13.8011  -19.9140 I       1  UNL1       -0.0490
     15 C          51.3679    9.6535  -27.5980 C.ar    1  UNL1        0.0015
     16 C          50.0001    9.2850  -27.4641 C.ar    1  UNL1        0.0016
     17 C          49.3734    8.4758  -28.4302 C.ar    1  UNL1        0.0206
     18 C          50.1352    8.0536  -29.5143 C.ar    1  UNL1        0.0985
     19 N          49.7390    7.3003  -30.5558 N.ar    1  UNL1       -0.2241
     20 C          50.8653    7.2147  -31.3120 C.ar    1  UNL1        0.1750
     21 N          51.9225    7.8773  -30.7843 N.ar    1  UNL1       -0.3349
     22 C          51.4440    8.3992  -29.6491 C.ar    1  UNL1        0.0757
     23 C          52.1033    9.1969  -28.7184 C.ar    1  UNL1        0.0185
     24 H          52.8856    7.9639  -31.1782 H       1  UNL1        0.1675
     25 C          47.9733   12.3277  -23.8180 C.ar    1  UNL1       -0.0165
     26 C          47.1484   11.9319  -24.8850 C.ar    1  UNL1        0.0142
     27 C          47.4294   12.3323  -26.1960 C.ar    1  UNL1        0.1054
     28 C          48.5527   13.1264  -26.4514 C.ar    1  UNL1        0.0185
     29 C          49.3812   13.5288  -25.4032 C.ar    1  UNL1        0.0055
     30 C          49.0960   13.1497  -24.0843 C.ar    1  UNL1        0.0497
     31 S          46.3676   11.8265  -27.5066 S.O2    1  UNL1        0.0104
     32 C          46.0885   13.1960  -28.6057 C.3     1  UNL1        0.1816
     33 O          46.9943   10.7024  -28.2833 O.2     1  UNL1       -0.1686
     34 O          45.0590   11.3573  -26.9365 O.2     1  UNL1       -0.1686
     35 C          47.6497   11.8189  -22.4282 C.3     1  UNL1        0.0265
     36 C          48.4782    9.6156  -21.4619 C.3     1  UNL1        0.0004
     37 C          47.4799   10.2938  -22.3982 C.3     1  UNL1        0.0047
@<TRIPOS>BOND
     1    36    37    1
     2    37    35    1
     3    35    25    1
     4    25    26   ar
     5    26    27   ar
     6    27    31    1
     7    31    32    1
     8    31    33    2
     9    31    34    2
    10    27    28   ar
    11    28    29   ar
    12    29    30   ar
    13    30     1    1
    14     1     2    2
    15     1     3   am
    16     3     4    1
    17     4     5    1
    18     5     6   ar
    19     6     7   ar
    20     7    15    1
    21    15    16   ar
    22    16    17   ar
    23    17    18   ar
    24    18    19   ar
    25    19    20   ar
    26    20    21   ar
    27    21    22   ar
    28    22    23   ar
    29     7     8   ar
    30     8     9   ar
    31     9    10   ar
    32    10    11    1
    33    11    12    1
    34    12    13    1
    35    13    14    1
    36    30    25   ar
    37    13     3    1
    38    10     5   ar
    39    23    15   ar
    40    22    18   ar
    41    21    24    1
@<TRIPOS>MOLECULE
*****
 37 41 0 0 0
SMALL
GASTEIGER

@<TRIPOS>ATOM
      1 C          48.9641   14.3897  -23.8424 C.2     1  UNL1        0.2496
      2 O          49.3327   14.8320  -22.7211 O.2     1  UNL1       -0.2699
      3 N          47.8456   14.9929  -24.5274 N.am    1  UNL1       -0.2614
      4 C          47.7108   14.8587  -25.9826 C.3     1  UNL1        0.1242
      5 C          46.8607   13.6610  -26.3099 C.ar    1  UNL1        0.0317
      6 C          47.3525   12.7236  -27.2361 C.ar    1  UNL1        0.0004
      7 C          46.6488   11.5415  -27.5132 C.ar    1  UNL1       -0.0000
      8 C          45.4260   11.3113  -26.8672 C.ar    1  UNL1        0.0031
      9 C          44.9204   12.2405  -25.9586 C.ar    1  UNL1        0.0366
     10 C          45.6189   13.4166  -25.6652 C.ar    1  UNL1        0.1362
     11 O          45.0471   14.2704  -24.7036 O.3     1  UNL1       -0.4731
     12 C          45.4298   15.6162  -24.4241 C.3     1  UNL1        0.2358
     13 C          46.8074   15.6834  -23.7495 C.3     1  UNL1        0.1724
     14 I          47.3718   17.7278  -23.4587 I       1  UNL1       -0.0490
     15 C          47.2045   10.5388  -28.4550 C.ar    1  UNL1        0.0015
     16 C          46.6070   10.3402  -29.7309 C.ar    1  UNL1        0.0016
     17 C          47.1354    9.4009  -30.6362 C.ar    1  UNL1        0.0206
     18 C          48.2567    8.6798  -30.2405 C.ar    1  UNL1        0.0985
     19 N          48.9334    7.7563  -30.9465 N.ar    1  UNL1       -0.2241
     20 C          49.9328    7.3998  -30.0970 C.ar    1  UNL1        0.1750
     21 N          49.8981    8.0592  -28.9143 N.ar    1  UNL1       -0.3349
     22 C          48.8329    8.8616  -29.0217 C.ar    1  UNL1        0.0757
     23 C          48.3440    9.7789  -28.0961 C.ar    1  UNL1        0.0185
     24 H          50.5561    7.9652  -28.1089 H       1  UNL1        0.1675
     25 C          49.2335   11.9199  -24.3111 C.ar    1  UNL1       -0.0165
     26 C          49.9338   10.8917  -24.9652 C.ar    1  UNL1        0.0142
     27 C          51.0762   11.1713  -25.7233 C.ar    1  UNL1        0.1054
     28 C          51.5360   12.4890  -25.8220 C.ar    1  UNL1        0.0185
     29 C          50.8516   13.5215  -25.1796 C.ar    1  UNL1        0.0055
     30 C          49.6947   13.2537  -24.4350 C.ar    1  UNL1        0.0497
     31 S          51.9221    9.8592  -26.5383 S.O2    1  UNL1        0.0104
     32 C          52.4526   10.4037  -28.1456 C.3     1  UNL1        0.1816
     33 O          53.1294    9.4430  -25.7452 O.2     1  UNL1       -0.1686
     34 O          50.9995    8.6816  -26.6793 O.2     1  UNL1       -0.1686
     35 C          48.0353   11.5498  -23.4610 C.3     1  UNL1        0.0265
     36 C          47.3730   10.1791  -21.4220 C.3     1  UNL1        0.0004
     37 C          48.2786   10.2704  -22.6487 C.3     1  UNL1        0.0047
@<TRIPOS>BOND
     1    36    37    1
     2    37    35    1
     3    35    25    1
     4    25    26   ar
     5    26    27   ar
     6    27    31    1
     7    31    32    1
     8    31    33    2
     9    31    34    2
    10    27    28   ar
    11    28    29   ar
    12    29    30   ar
    13    30     1    1
    14     1     2    2
    15     1     3   am
    16     3     4    1
    17     4     5    1
    18     5     6   ar
    19     6     7   ar
    20     7    15    1
    21    15    16   ar
    22    16    17   ar
    23    17    18   ar
    24    18    19   ar
    25    19    20   ar
    26    20    21   ar
    27    21    22   ar
    28    22    23   ar
    29     7     8   ar
    30     8     9   ar
    31     9    10   ar
    32    10    11    1
    33    11    12    1
    34    12    13    1
    35    13    14    1
    36    30    25   ar
    37    13     3    1
    38    10     5   ar
    39    23    15   ar
    40    22    18   ar
    41    21    24    1
@<TRIPOS>MOLECULE
*****
 37 41 0 0 0
SMALL
GASTEIGER

@<TRIPOS>ATOM
      1 C          47.5267   16.8123  -23.5698 C.2     1  UNL1        0.2496
      2 O          46.8905   17.7433  -23.0065 O.2     1  UNL1       -0.2699
      3 N          47.8906   16.9225  -24.9624 N.am    1  UNL1       -0.2614
      4 C          49.0137   16.1432  -25.4965 C.3     1  UNL1        0.1242
      5 C          48.5124   14.8393  -26.0557 C.ar    1  UNL1        0.0317
      6 C          49.1365   13.6488  -25.6413 C.ar    1  UNL1        0.0004
      7 C          48.6559   12.3970  -26.0554 C.ar    1  UNL1       -0.0000
      8 C          47.5485   12.3443  -26.9135 C.ar    1  UNL1        0.0031
      9 C          46.9308   13.5182  -27.3438 C.ar    1  UNL1        0.0366
     10 C          47.3935   14.7713  -26.9278 C.ar    1  UNL1        0.1362
     11 O          46.6773   15.8943  -27.3823 O.3     1  UNL1       -0.4731
     12 C          47.0913   17.2574  -27.3043 C.3     1  UNL1        0.2358
     13 C          47.0863   17.7675  -25.8561 C.3     1  UNL1        0.1724
     14 I          47.8212   19.7772  -25.7943 I       1  UNL1       -0.0490
     15 C          49.2937   11.1486  -25.5700 C.ar    1  UNL1        0.0015
     16 C          50.0927   10.3606  -26.4448 C.ar    1  UNL1        0.0016
     17 C          50.7128    9.1819  -25.9896 C.ar    1  UNL1        0.0206
     18 C          50.5181    8.8191  -24.6614 C.ar    1  UNL1        0.0985
     19 N          51.0280    7.7555  -24.0149 N.ar    1  UNL1       -0.2241
     20 C          50.5356    7.9027  -22.7566 C.ar    1  UNL1        0.1750
     21 N          49.7555    8.9999  -22.6061 N.ar    1  UNL1       -0.3349
     22 C          49.7542    9.5653  -23.8187 C.ar    1  UNL1        0.0757
     23 C          49.1229   10.7370  -24.2261 C.ar    1  UNL1        0.0185
     24 H          49.2729    9.3289  -21.7406 H       1  UNL1        0.1675
     25 C          47.1717   14.4026  -22.8920 C.ar    1  UNL1       -0.0165
     26 C          47.6163   13.2803  -22.1721 C.ar    1  UNL1        0.0142
     27 C          48.7457   13.3567  -21.3495 C.ar    1  UNL1        0.1054
     28 C          49.4350   14.5686  -21.2311 C.ar    1  UNL1        0.0185
     29 C          49.0072   15.6919  -21.9398 C.ar    1  UNL1        0.0055
     30 C          47.8893   15.6192  -22.7822 C.ar    1  UNL1        0.0497
     31 S          49.2804   11.9273  -20.4709 S.O2    1  UNL1        0.0104
     32 C          49.4425   12.3189  -18.7441 C.3     1  UNL1        0.1816
     33 O          48.2804   10.8153  -20.6233 O.2     1  UNL1       -0.1686
     34 O          50.6047   11.4725  -21.0156 O.2     1  UNL1       -0.1686
     35 C          45.9121   14.2741  -23.7238 C.3     1  UNL1        0.0265
     36 C          44.2963   12.6585  -24.8435 C.3     1  UNL1        0.0004
     37 C          45.4723   12.8120  -23.8810 C.3     1  UNL1        0.0047
@<TRIPOS>BOND
     1    36    37    1
     2    37    35    1
     3    35    25    1
     4    25    26   ar
     5    26    27   ar
     6    27    31    1
     7    31    32    1
     8    31    33    2
     9    31    34    2
    10    27    28   ar
    11    28    29   ar
    12    29    30   ar
    13    30     1    1
    14     1     2    2
    15     1     3   am
    16     3     4    1
    17     4     5    1
    18     5     6   ar
    19     6     7   ar
    20     7    15    1
    21    15    16   ar
    22    16    17   ar
    23    17    18   ar
    24    18    19   ar
    25    19    20   ar
    26    20    21   ar
    27    21    22   ar
    28    22    23   ar
    29     7     8   ar
    30     8     9   ar
    31     9    10   ar
    32    10    11    1
    33    11    12    1
    34    12    13    1
    35    13    14    1
    36    30    25   ar
    37    13     3    1
    38    10     5   ar
    39    23    15   ar
    40    22    18   ar
    41    21    24    1
