@<TRIPOS>MOLECULE
*****
 40 44 0 0 0
SMALL
GASTEIGER

@<TRIPOS>ATOM
      1 C          -9.1115  -10.2707   32.2508 C.3     1  UNL1        0.1333
      2 N          -9.4145  -11.5083   31.5312 N.ar    1  UNL1       -0.2950
      3 C         -10.4652  -12.3573   31.7090 C.ar    1  UNL1        0.2019
      4 N         -10.5052  -13.3725   30.8089 N.ar    1  UNL1       -0.2134
      5 C          -9.4065  -13.1555   30.0640 C.ar    1  UNL1        0.1033
      6 C          -8.9595  -13.9143   28.9851 C.ar    1  UNL1        0.0284
      7 C          -7.7743  -13.5141   28.3267 C.ar    1  UNL1        0.0922
      8 C          -7.0553  -12.3850   28.8085 C.ar    1  UNL1        0.1782
      9 C          -7.5557  -11.6246   29.8868 C.ar    1  UNL1        0.1897
     10 C          -8.7404  -12.0451   30.4969 C.ar    1  UNL1        0.1173
     11 O          -6.8469  -10.5002   30.3201 O.3     1  UNL1       -0.4669
     12 C          -5.7856   -9.9520   29.5366 C.3     1  UNL1        0.2527
     13 C          -4.9618  -11.0788   28.9028 C.3     1  UNL1        0.2526
     14 O          -5.8240  -12.0155   28.2523 O.3     1  UNL1       -0.4682
     15 C          -7.2852  -14.3069   27.1790 C.2     1  UNL1        0.2526
     16 O          -6.0877  -14.7023   27.1771 O.2     1  UNL1       -0.2697
     17 N          -8.1587  -14.6280   26.0813 N.am    1  UNL1       -0.2803
     18 H          -9.1312  -14.2473   26.0858 H       1  UNL1        0.1552
     19 C          -7.7523  -15.3778   24.9246 C.ar    1  UNL1        0.0511
     20 C          -8.4842  -16.5128   24.5548 C.ar    1  UNL1        0.0227
     21 C          -8.0970  -17.2782   23.4526 C.ar    1  UNL1        0.0587
     22 I          -9.2331  -18.9781   22.9211 I       1  UNL1       -0.0402
     23 C          -6.9631  -16.9211   22.7136 C.ar    1  UNL1        0.1494
     24 F          -6.5898  -17.6825   21.6529 F       1  UNL1       -0.2038
     25 C          -6.2060  -15.7913   23.0765 C.ar    1  UNL1        0.1004
     26 C          -6.5983  -15.0360   24.1982 C.ar    1  UNL1        0.0208
     27 C          -4.9615  -15.4404   22.2956 C.3     1  UNL1        0.4207
     28 F          -4.4333  -14.2590   22.7830 F       1  UNL1       -0.1658
     29 F          -5.2304  -15.2828   20.9467 F       1  UNL1       -0.1658
     30 F          -4.0224  -16.4467   22.4354 F       1  UNL1       -0.1658
     31 N         -11.4592  -12.2158   32.7332 N.pl3   1  UNL1       -0.2814
     32 H         -11.6895  -11.2469   33.0482 H       1  UNL1        0.1551
     33 C         -12.2625  -13.3020   33.2268 C.ar    1  UNL1        0.0889
     34 C         -13.4816  -13.6440   32.6048 C.ar    1  UNL1        0.1543
     35 F         -13.9411  -12.9422   31.5384 F       1  UNL1       -0.2028
     36 C         -14.2537  -14.6982   33.1018 C.ar    1  UNL1        0.0310
     37 C         -13.8292  -15.4119   34.2234 C.ar    1  UNL1        0.0033
     38 C         -12.6331  -15.0709   34.8573 C.ar    1  UNL1        0.0128
     39 C         -11.8512  -14.0175   34.3693 C.ar    1  UNL1        0.0733
     40 CL        -10.3380  -13.6417   35.1835 Cl      1  UNL1       -0.0809
@<TRIPOS>BOND
     1     1     2    1
     2     2     3   ar
     3     3    31    1
     4    31    33    1
     5    33    34   ar
     6    34    35    1
     7    34    36   ar
     8    36    37   ar
     9    37    38   ar
    10    38    39   ar
    11    39    40    1
    12     3     4   ar
    13     4     5   ar
    14     5     6   ar
    15     6     7   ar
    16     7    15    1
    17    15    16    2
    18    15    17   am
    19    17    19    1
    20    19    20   ar
    21    20    21   ar
    22    21    22    1
    23    21    23   ar
    24    23    24    1
    25    23    25   ar
    26    25    27    1
    27    27    28    1
    28    27    29    1
    29    27    30    1
    30    25    26   ar
    31     7     8   ar
    32     8     9   ar
    33     9    10   ar
    34     9    11    1
    35    11    12    1
    36    12    13    1
    37    13    14    1
    38    10     2   ar
    39    39    33   ar
    40    10     5   ar
    41    26    19   ar
    42    14     8    1
    43    31    32    1
    44    17    18    1
@<TRIPOS>MOLECULE
*****
 40 44 0 0 0
SMALL
GASTEIGER

@<TRIPOS>ATOM
      1 C          -8.8248  -10.1683   32.2088 C.3     1  UNL1        0.1333
      2 N          -9.1674  -11.4126   31.5189 N.ar    1  UNL1       -0.2950
      3 C         -10.2199  -12.2471   31.7475 C.ar    1  UNL1        0.2019
      4 N         -10.3038  -13.2744   30.8644 N.ar    1  UNL1       -0.2134
      5 C          -9.2311  -13.0804   30.0766 C.ar    1  UNL1        0.1033
      6 C          -8.8322  -13.8594   28.9932 C.ar    1  UNL1        0.0284
      7 C          -7.6679  -13.4819   28.2860 C.ar    1  UNL1        0.0922
      8 C          -6.9196  -12.3542   28.7246 C.ar    1  UNL1        0.1782
      9 C          -7.3717  -11.5731   29.8093 C.ar    1  UNL1        0.1897
     10 C          -8.5376  -11.9715   30.4685 C.ar    1  UNL1        0.1173
     11 O          -6.6354  -10.4506   30.1999 O.3     1  UNL1       -0.4669
     12 C          -5.5979   -9.9256   29.3700 C.3     1  UNL1        0.2527
     13 C          -4.8102  -11.0704   28.7230 C.3     1  UNL1        0.2526
     14 O          -5.7057  -12.0065   28.1183 O.3     1  UNL1       -0.4682
     15 C          -7.2299  -14.2964   27.1329 C.2     1  UNL1        0.2526
     16 O          -6.0367  -14.7023   27.0911 O.2     1  UNL1       -0.2697
     17 N          -8.1477  -14.6265   26.0747 N.am    1  UNL1       -0.2803
     18 H          -9.1162  -14.2372   26.1106 H       1  UNL1        0.1552
     19 C          -7.7924  -15.3973   24.9150 C.ar    1  UNL1        0.0511
     20 C          -8.5489  -16.5299   24.5898 C.ar    1  UNL1        0.0227
     21 C          -8.2109  -17.3154   23.4856 C.ar    1  UNL1        0.0587
     22 I          -9.3829  -19.0108   23.0223 I       1  UNL1       -0.0402
     23 C          -7.1019  -16.9810   22.6995 C.ar    1  UNL1        0.1494
     24 F          -6.7762  -17.7617   21.6372 F       1  UNL1       -0.2038
     25 C          -6.3206  -15.8541   23.0170 C.ar    1  UNL1        0.1004
     26 C          -6.6631  -15.0784   24.1410 C.ar    1  UNL1        0.0208
     27 C          -5.1027  -15.5277   22.1851 C.3     1  UNL1        0.4207
     28 F          -4.5187  -14.3692   22.6635 F       1  UNL1       -0.1658
     29 F          -5.4273  -15.3431   20.8520 F       1  UNL1       -0.1658
     30 F          -4.1881  -16.5624   22.2688 F       1  UNL1       -0.1658
     31 N         -11.1738  -12.0799   32.8053 N.pl3   1  UNL1       -0.2814
     32 H         -11.3680  -11.1054   33.1272 H       1  UNL1        0.1551
     33 C         -11.9874  -13.1450   33.3274 C.ar    1  UNL1        0.0889
     34 C         -11.5503  -13.9236   34.4195 C.ar    1  UNL1        0.1543
     35 F         -10.3398  -13.7042   34.9919 F       1  UNL1       -0.2028
     36 C         -12.3504  -14.9596   34.9100 C.ar    1  UNL1        0.0310
     37 C         -13.5819  -15.2380   34.3154 C.ar    1  UNL1        0.0033
     38 C         -14.0166  -14.4852   33.2231 C.ar    1  UNL1        0.0128
     39 C         -13.2246  -13.4452   32.7228 C.ar    1  UNL1        0.0733
     40 CL        -13.8257  -12.5056   31.3627 Cl      1  UNL1       -0.0809
@<TRIPOS>BOND
     1     1     2    1
     2     2     3   ar
     3     3    31    1
     4    31    33    1
     5    33    34   ar
     6    34    35    1
     7    34    36   ar
     8    36    37   ar
     9    37    38   ar
    10    38    39   ar
    11    39    40    1
    12     3     4   ar
    13     4     5   ar
    14     5     6   ar
    15     6     7   ar
    16     7    15    1
    17    15    16    2
    18    15    17   am
    19    17    19    1
    20    19    20   ar
    21    20    21   ar
    22    21    22    1
    23    21    23   ar
    24    23    24    1
    25    23    25   ar
    26    25    27    1
    27    27    28    1
    28    27    29    1
    29    27    30    1
    30    25    26   ar
    31     7     8   ar
    32     8     9   ar
    33     9    10   ar
    34     9    11    1
    35    11    12    1
    36    12    13    1
    37    13    14    1
    38    10     2   ar
    39    39    33   ar
    40    10     5   ar
    41    26    19   ar
    42    14     8    1
    43    31    32    1
    44    17    18    1
@<TRIPOS>MOLECULE
*****
 40 44 0 0 0
SMALL
GASTEIGER

@<TRIPOS>ATOM
      1 C          -9.0799  -10.2178   32.0887 C.3     1  UNL1        0.1333
      2 N          -9.3795  -11.4795   31.4106 N.ar    1  UNL1       -0.2950
      3 C         -10.4275  -12.3254   31.6170 C.ar    1  UNL1        0.2019
      4 N         -10.4647  -13.3699   30.7510 N.ar    1  UNL1       -0.2134
      5 C          -9.3671  -13.1743   29.9987 C.ar    1  UNL1        0.1033
      6 C          -8.9182  -13.9670   28.9452 C.ar    1  UNL1        0.0284
      7 C          -7.7346  -13.5851   28.2732 C.ar    1  UNL1        0.0922
      8 C          -7.0189  -12.4384   28.7170 C.ar    1  UNL1        0.1782
      9 C          -7.5211  -11.6444   29.7699 C.ar    1  UNL1        0.1897
     10 C          -8.7042  -12.0481   30.3942 C.ar    1  UNL1        0.1173
     11 O          -6.8156  -10.5040   30.1653 O.3     1  UNL1       -0.4669
     12 C          -5.7564   -9.9788   29.3635 C.3     1  UNL1        0.2527
     13 C          -4.9295  -11.1234   28.7668 C.3     1  UNL1        0.2526
     14 O          -5.7890  -12.0837   28.1482 O.3     1  UNL1       -0.4682
     15 C          -7.2436  -14.4139   27.1521 C.2     1  UNL1        0.2526
     16 O          -6.0424  -14.7978   27.1580 O.2     1  UNL1       -0.2697
     17 N          -8.1194  -14.7825   26.0713 N.am    1  UNL1       -0.2803
     18 H          -9.0955  -14.4111   26.0674 H       1  UNL1        0.1552
     19 C          -7.7116  -15.5694   24.9401 C.ar    1  UNL1        0.0511
     20 C          -6.4924  -15.2839   24.3134 C.ar    1  UNL1        0.0227
     21 C          -6.0825  -16.0123   23.1945 C.ar    1  UNL1        0.0587
     22 I          -4.2319  -15.5574   22.2831 I       1  UNL1       -0.0402
     23 C          -6.8963  -17.0297   22.6827 C.ar    1  UNL1        0.1494
     24 F          -6.4920  -17.7205   21.5856 F       1  UNL1       -0.2038
     25 C          -8.1316  -17.3239   23.2900 C.ar    1  UNL1        0.1004
     26 C          -8.5403  -16.5730   24.4087 C.ar    1  UNL1        0.0208
     27 C          -9.0189  -18.3965   22.7034 C.3     1  UNL1        0.4207
     28 F          -8.3693  -19.6153   22.7708 F       1  UNL1       -0.1658
     29 F          -9.3339  -18.1343   21.3810 F       1  UNL1       -0.1658
     30 F         -10.1983  -18.4729   23.4226 F       1  UNL1       -0.1658
     31 N         -11.4214  -12.1532   32.6366 N.pl3   1  UNL1       -0.2814
     32 H         -11.6820  -11.1747   32.8926 H       1  UNL1        0.1551
     33 C         -12.1865  -13.2323   33.2012 C.ar    1  UNL1        0.0889
     34 C         -13.4211  -13.6185   32.6385 C.ar    1  UNL1        0.1543
     35 F         -13.9316  -12.9667   31.5635 F       1  UNL1       -0.2028
     36 C         -14.1555  -14.6649   33.2041 C.ar    1  UNL1        0.0310
     37 C         -13.6778  -15.3270   34.3360 C.ar    1  UNL1        0.0033
     38 C         -12.4657  -14.9417   34.9114 C.ar    1  UNL1        0.0128
     39 C         -11.7211  -13.8955   34.3545 C.ar    1  UNL1        0.0733
     40 CL        -10.1863  -13.4631   35.0969 Cl      1  UNL1       -0.0809
@<TRIPOS>BOND
     1     1     2    1
     2     2     3   ar
     3     3    31    1
     4    31    33    1
     5    33    34   ar
     6    34    35    1
     7    34    36   ar
     8    36    37   ar
     9    37    38   ar
    10    38    39   ar
    11    39    40    1
    12     3     4   ar
    13     4     5   ar
    14     5     6   ar
    15     6     7   ar
    16     7    15    1
    17    15    16    2
    18    15    17   am
    19    17    19    1
    20    19    20   ar
    21    20    21   ar
    22    21    22    1
    23    21    23   ar
    24    23    24    1
    25    23    25   ar
    26    25    27    1
    27    27    28    1
    28    27    29    1
    29    27    30    1
    30    25    26   ar
    31     7     8   ar
    32     8     9   ar
    33     9    10   ar
    34     9    11    1
    35    11    12    1
    36    12    13    1
    37    13    14    1
    38    10     2   ar
    39    39    33   ar
    40    10     5   ar
    41    26    19   ar
    42    14     8    1
    43    31    32    1
    44    17    18    1
@<TRIPOS>MOLECULE
*****
 40 44 0 0 0
SMALL
GASTEIGER

@<TRIPOS>ATOM
      1 C          -9.1395  -10.0261   32.9307 C.3     1  UNL1        0.1333
      2 N          -9.3102  -11.1630   32.0253 N.ar    1  UNL1       -0.2950
      3 C         -10.3413  -12.0517   31.9646 C.ar    1  UNL1        0.2019
      4 N         -10.2385  -12.9380   30.9418 N.ar    1  UNL1       -0.2134
      5 C          -9.0705  -12.5987   30.3677 C.ar    1  UNL1        0.1033
      6 C          -8.4736  -13.1961   29.2603 C.ar    1  UNL1        0.0284
      7 C          -7.2366  -12.6848   28.8055 C.ar    1  UNL1        0.0922
      8 C          -6.6216  -11.6142   29.5123 C.ar    1  UNL1        0.1782
      9 C          -7.2714  -11.0164   30.6130 C.ar    1  UNL1        0.1897
     10 C          -8.5016  -11.5413   31.0176 C.ar    1  UNL1        0.1173
     11 O          -6.6606   -9.9442   31.2703 O.3     1  UNL1       -0.4669
     12 C          -5.5379   -9.2724   30.6968 C.3     1  UNL1        0.2527
     13 C          -4.6043  -10.2854   30.0245 C.3     1  UNL1        0.2526
     14 O          -5.3494  -11.1460   29.1596 O.3     1  UNL1       -0.4682
     15 C          -6.5888  -13.3058   27.6310 C.2     1  UNL1        0.2526
     16 O          -5.4829  -12.8494   27.2322 O.2     1  UNL1       -0.2697
     17 N          -7.2044  -14.4158   26.9528 N.am    1  UNL1       -0.2803
     18 H          -8.1428  -14.7426   27.2743 H       1  UNL1        0.1552
     19 C          -6.6456  -15.0598   25.7959 C.ar    1  UNL1        0.0511
     20 C          -5.4817  -15.8256   25.9361 C.ar    1  UNL1        0.0227
     21 C          -4.8990  -16.4400   24.8254 C.ar    1  UNL1        0.0587
     22 I          -3.1486  -17.5949   25.0797 I       1  UNL1       -0.0402
     23 C          -5.4704  -16.2845   23.5571 C.ar    1  UNL1        0.1494
     24 F          -4.8853  -16.8756   22.4836 F       1  UNL1       -0.2038
     25 C          -6.6329  -15.5081   23.3925 C.ar    1  UNL1        0.1004
     26 C          -7.2028  -14.8821   24.5176 C.ar    1  UNL1        0.0208
     27 C          -7.2162  -15.3147   22.0126 C.3     1  UNL1        0.4207
     28 F          -7.5873  -16.5426   21.4963 F       1  UNL1       -0.1658
     29 F          -6.3069  -14.7272   21.1497 F       1  UNL1       -0.1658
     30 F          -8.3319  -14.4999   22.0864 F       1  UNL1       -0.1658
     31 N         -11.4512  -12.0709   32.8727 N.pl3   1  UNL1       -0.2814
     32 H         -11.8085  -11.1505   33.2137 H       1  UNL1        0.1551
     33 C         -12.1938  -13.2564   33.2067 C.ar    1  UNL1        0.0889
     34 C         -13.3576  -13.6093   32.4918 C.ar    1  UNL1        0.1543
     35 F         -13.8212  -12.8268   31.4849 F       1  UNL1       -0.2028
     36 C         -14.0715  -14.7614   32.8341 C.ar    1  UNL1        0.0310
     37 C         -13.6442  -15.5641   33.8927 C.ar    1  UNL1        0.0033
     38 C         -12.5038  -15.2151   34.6182 C.ar    1  UNL1        0.0128
     39 C         -11.7803  -14.0641   34.2852 C.ar    1  UNL1        0.0733
     40 CL        -10.3341  -13.6791   35.2094 Cl      1  UNL1       -0.0809
@<TRIPOS>BOND
     1     1     2    1
     2     2     3   ar
     3     3    31    1
     4    31    33    1
     5    33    34   ar
     6    34    35    1
     7    34    36   ar
     8    36    37   ar
     9    37    38   ar
    10    38    39   ar
    11    39    40    1
    12     3     4   ar
    13     4     5   ar
    14     5     6   ar
    15     6     7   ar
    16     7    15    1
    17    15    16    2
    18    15    17   am
    19    17    19    1
    20    19    20   ar
    21    20    21   ar
    22    21    22    1
    23    21    23   ar
    24    23    24    1
    25    23    25   ar
    26    25    27    1
    27    27    28    1
    28    27    29    1
    29    27    30    1
    30    25    26   ar
    31     7     8   ar
    32     8     9   ar
    33     9    10   ar
    34     9    11    1
    35    11    12    1
    36    12    13    1
    37    13    14    1
    38    10     2   ar
    39    39    33   ar
    40    10     5   ar
    41    26    19   ar
    42    14     8    1
    43    31    32    1
    44    17    18    1
@<TRIPOS>MOLECULE
*****
 40 44 0 0 0
SMALL
GASTEIGER

@<TRIPOS>ATOM
      1 C          -8.9440  -10.1226   32.9861 C.3     1  UNL1        0.1333
      2 N          -9.1604  -11.2212   32.0439 N.ar    1  UNL1       -0.2950
      3 C         -10.2193  -12.0749   31.9652 C.ar    1  UNL1        0.2019
      4 N         -10.1559  -12.9276   30.9111 N.ar    1  UNL1       -0.2134
      5 C          -8.9844  -12.6046   30.3347 C.ar    1  UNL1        0.1033
      6 C          -8.4190  -13.1809   29.1999 C.ar    1  UNL1        0.0284
      7 C          -7.1719  -12.6924   28.7478 C.ar    1  UNL1        0.0922
      8 C          -6.5157  -11.6668   29.4837 C.ar    1  UNL1        0.1782
      9 C          -7.1340  -11.0881   30.6125 C.ar    1  UNL1        0.1897
     10 C          -8.3754  -11.5887   31.0138 C.ar    1  UNL1        0.1173
     11 O          -6.4826  -10.0591   31.2989 O.3     1  UNL1       -0.4669
     12 C          -5.3460   -9.4025   30.7353 C.3     1  UNL1        0.2527
     13 C          -4.4521  -10.4197   30.0167 C.3     1  UNL1        0.2526
     14 O          -5.2335  -11.2260   29.1318 O.3     1  UNL1       -0.4682
     15 C          -6.5571  -13.2915   27.5446 C.2     1  UNL1        0.2526
     16 O          -5.4974  -12.7855   27.0850 O.2     1  UNL1       -0.2697
     17 N          -7.1524  -14.4361   26.9069 N.am    1  UNL1       -0.2803
     18 H          -8.0554  -14.8052   27.2797 H       1  UNL1        0.1552
     19 C          -6.6244  -15.0624   25.7261 C.ar    1  UNL1        0.0511
     20 C          -7.2934  -14.8958   24.5074 C.ar    1  UNL1        0.0227
     21 C          -6.8208  -15.5155   23.3484 C.ar    1  UNL1        0.0587
     22 I          -7.8529  -15.2318   21.5272 I       1  UNL1       -0.0402
     23 C          -5.6764  -16.3201   23.3995 C.ar    1  UNL1        0.1494
     24 F          -5.2361  -16.9281   22.2679 F       1  UNL1       -0.2038
     25 C          -4.9967  -16.5110   24.6172 C.ar    1  UNL1        0.1004
     26 C          -5.4912  -15.8926   25.7814 C.ar    1  UNL1        0.0208
     27 C          -3.7870  -17.4144   24.6669 C.3     1  UNL1        0.4207
     28 F          -2.7251  -16.7924   24.0363 F       1  UNL1       -0.1658
     29 F          -4.0263  -18.6261   24.0414 F       1  UNL1       -0.1658
     30 F          -3.4455  -17.6667   25.9837 F       1  UNL1       -0.1658
     31 N         -11.3190  -12.0917   32.8858 N.pl3   1  UNL1       -0.2814
     32 H         -11.6563  -11.1717   33.2475 H       1  UNL1        0.1551
     33 C         -12.0782  -13.2703   33.2069 C.ar    1  UNL1        0.0889
     34 C         -13.2329  -13.6122   32.4723 C.ar    1  UNL1        0.1543
     35 F         -13.6721  -12.8255   31.4578 F       1  UNL1       -0.2028
     36 C         -13.9633  -14.7576   32.8022 C.ar    1  UNL1        0.0310
     37 C         -13.5616  -15.5642   33.8679 C.ar    1  UNL1        0.0033
     38 C         -12.4305  -15.2259   34.6127 C.ar    1  UNL1        0.0128
     39 C         -11.6907  -14.0817   34.2923 C.ar    1  UNL1        0.0733
     40 CL        -10.2568  -13.7103   35.2409 Cl      1  UNL1       -0.0809
@<TRIPOS>BOND
     1     1     2    1
     2     2     3   ar
     3     3    31    1
     4    31    33    1
     5    33    34   ar
     6    34    35    1
     7    34    36   ar
     8    36    37   ar
     9    37    38   ar
    10    38    39   ar
    11    39    40    1
    12     3     4   ar
    13     4     5   ar
    14     5     6   ar
    15     6     7   ar
    16     7    15    1
    17    15    16    2
    18    15    17   am
    19    17    19    1
    20    19    20   ar
    21    20    21   ar
    22    21    22    1
    23    21    23   ar
    24    23    24    1
    25    23    25   ar
    26    25    27    1
    27    27    28    1
    28    27    29    1
    29    27    30    1
    30    25    26   ar
    31     7     8   ar
    32     8     9   ar
    33     9    10   ar
    34     9    11    1
    35    11    12    1
    36    12    13    1
    37    13    14    1
    38    10     2   ar
    39    39    33   ar
    40    10     5   ar
    41    26    19   ar
    42    14     8    1
    43    31    32    1
    44    17    18    1
@<TRIPOS>MOLECULE
*****
 40 44 0 0 0
SMALL
GASTEIGER

@<TRIPOS>ATOM
      1 C          -9.1942  -10.3794   34.3115 C.3     1  UNL1        0.1333
      2 N          -8.5358  -10.4738   33.0080 N.ar    1  UNL1       -0.2950
      3 C          -7.4598   -9.7755   32.5487 C.ar    1  UNL1        0.2019
      4 N          -7.0360  -10.1707   31.3212 N.ar    1  UNL1       -0.2134
      5 C          -7.9158  -11.1349   30.9969 C.ar    1  UNL1        0.1033
      6 C          -7.9454  -11.8856   29.8241 C.ar    1  UNL1        0.0284
      7 C          -8.9570  -12.8618   29.6759 C.ar    1  UNL1        0.0922
      8 C          -9.9328  -13.0168   30.6995 C.ar    1  UNL1        0.1782
      9 C          -9.8525  -12.2571   31.8860 C.ar    1  UNL1        0.1897
     10 C          -8.8255  -11.3163   31.9987 C.ar    1  UNL1        0.1173
     11 O         -10.8051  -12.4518   32.8906 O.3     1  UNL1       -0.4669
     12 C         -11.6866  -13.5756   32.8614 C.3     1  UNL1        0.2527
     13 C         -12.1409  -13.8520   31.4237 C.3     1  UNL1        0.2526
     14 O         -11.0113  -13.8978   30.5487 O.3     1  UNL1       -0.4682
     15 C          -9.0035  -13.6686   28.4383 C.2     1  UNL1        0.2526
     16 O         -10.0881  -13.7431   27.7993 O.2     1  UNL1       -0.2697
     17 N          -7.8316  -14.3564   27.9643 N.am    1  UNL1       -0.2803
     18 H          -6.9599  -14.3169   28.5382 H       1  UNL1        0.1552
     19 C          -7.8028  -15.1725   26.7817 C.ar    1  UNL1        0.0511
     20 C          -6.8131  -14.9438   25.8180 C.ar    1  UNL1        0.0227
     21 C          -6.7766  -15.7013   24.6453 C.ar    1  UNL1        0.0587
     22 I          -5.2617  -15.3322   23.2200 I       1  UNL1       -0.0402
     23 C          -7.7402  -16.6911   24.4189 C.ar    1  UNL1        0.1494
     24 F          -7.7014  -17.4105   23.2677 F       1  UNL1       -0.2038
     25 C          -8.7514  -16.9280   25.3690 C.ar    1  UNL1        0.1004
     26 C          -8.7859  -16.1481   26.5407 C.ar    1  UNL1        0.0208
     27 C          -9.8090  -17.9709   25.0940 C.3     1  UNL1        0.4207
     28 F         -10.3770  -18.3729   26.2890 F       1  UNL1       -0.1658
     29 F          -9.2806  -19.0814   24.4583 F       1  UNL1       -0.1658
     30 F         -10.7940  -17.4355   24.2832 F       1  UNL1       -0.1658
     31 N          -6.8057   -8.7236   33.2715 N.pl3   1  UNL1       -0.2814
     32 H          -6.9259   -8.7072   34.3090 H       1  UNL1        0.1551
     33 C          -5.8745   -7.8017   32.6786 C.ar    1  UNL1        0.0889
     34 C          -4.6184   -7.5565   33.2720 C.ar    1  UNL1        0.1543
     35 F          -4.2643   -8.1661   34.4314 F       1  UNL1       -0.2028
     36 C          -3.7279   -6.6520   32.6863 C.ar    1  UNL1        0.0310
     37 C          -4.0802   -5.9767   31.5169 C.ar    1  UNL1        0.0033
     38 C          -5.3274   -6.1985   30.9306 C.ar    1  UNL1        0.0128
     39 C          -6.2278   -7.1018   31.5073 C.ar    1  UNL1        0.0733
     40 CL         -7.7767   -7.3702   30.7181 Cl      1  UNL1       -0.0809
@<TRIPOS>BOND
     1     1     2    1
     2     2     3   ar
     3     3    31    1
     4    31    33    1
     5    33    34   ar
     6    34    35    1
     7    34    36   ar
     8    36    37   ar
     9    37    38   ar
    10    38    39   ar
    11    39    40    1
    12     3     4   ar
    13     4     5   ar
    14     5     6   ar
    15     6     7   ar
    16     7    15    1
    17    15    16    2
    18    15    17   am
    19    17    19    1
    20    19    20   ar
    21    20    21   ar
    22    21    22    1
    23    21    23   ar
    24    23    24    1
    25    23    25   ar
    26    25    27    1
    27    27    28    1
    28    27    29    1
    29    27    30    1
    30    25    26   ar
    31     7     8   ar
    32     8     9   ar
    33     9    10   ar
    34     9    11    1
    35    11    12    1
    36    12    13    1
    37    13    14    1
    38    10     2   ar
    39    39    33   ar
    40    10     5   ar
    41    26    19   ar
    42    14     8    1
    43    31    32    1
    44    17    18    1
@<TRIPOS>MOLECULE
*****
 40 44 0 0 0
SMALL
GASTEIGER

@<TRIPOS>ATOM
      1 C          -9.1790  -10.4263   34.3634 C.3     1  UNL1        0.1333
      2 N          -8.5375  -10.5033   33.0504 N.ar    1  UNL1       -0.2950
      3 C          -7.4648   -9.8018   32.5880 C.ar    1  UNL1        0.2019
      4 N          -7.0580  -10.1798   31.3495 N.ar    1  UNL1       -0.2134
      5 C          -7.9453  -11.1361   31.0218 C.ar    1  UNL1        0.1033
      6 C          -7.9924  -11.8688   29.8384 C.ar    1  UNL1        0.0284
      7 C          -9.0094  -12.8392   29.6883 C.ar    1  UNL1        0.0922
      8 C          -9.9727  -13.0063   30.7217 C.ar    1  UNL1        0.1782
      9 C          -9.8747  -12.2649   31.9184 C.ar    1  UNL1        0.1897
     10 C          -8.8430  -11.3294   32.0322 C.ar    1  UNL1        0.1173
     11 O         -10.8152  -12.4715   32.9320 O.3     1  UNL1       -0.4669
     12 C         -11.7010  -13.5917   32.8971 C.3     1  UNL1        0.2527
     13 C         -12.1745  -13.8449   31.4612 C.3     1  UNL1        0.2526
     14 O         -11.0562  -13.8813   30.5714 O.3     1  UNL1       -0.4682
     15 C          -9.0744  -13.6270   28.4394 C.2     1  UNL1        0.2526
     16 O         -10.1626  -13.6740   27.8040 O.2     1  UNL1       -0.2697
     17 N          -7.9162  -14.3275   27.9506 N.am    1  UNL1       -0.2803
     18 H          -7.0417  -14.3111   28.5213 H       1  UNL1        0.1552
     19 C          -7.9059  -15.1268   26.7562 C.ar    1  UNL1        0.0511
     20 C          -8.8350  -16.1657   26.6218 C.ar    1  UNL1        0.0227
     21 C          -8.8312  -16.9779   25.4856 C.ar    1  UNL1        0.0587
     22 I         -10.2553  -18.5289   25.3159 I       1  UNL1       -0.0402
     23 C          -7.8873  -16.7652   24.4740 C.ar    1  UNL1        0.1494
     24 F          -7.8859  -17.5714   23.3813 F       1  UNL1       -0.2038
     25 C          -6.9364  -15.7345   24.5957 C.ar    1  UNL1        0.1004
     26 C          -6.9413  -14.9318   25.7523 C.ar    1  UNL1        0.0208
     27 C          -5.8975  -15.5417   23.5161 C.3     1  UNL1        0.4207
     28 F          -6.5145  -15.0962   22.3615 F       1  UNL1       -0.1658
     29 F          -5.2266  -16.7195   23.2344 F       1  UNL1       -0.1658
     30 F          -4.9686  -14.6009   23.9237 F       1  UNL1       -0.1658
     31 N          -6.7978   -8.7631   33.3183 N.pl3   1  UNL1       -0.2814
     32 H          -6.8959   -8.7684   34.3581 H       1  UNL1        0.1551
     33 C          -5.8817   -7.8267   32.7247 C.ar    1  UNL1        0.0889
     34 C          -4.6175   -7.5833   33.3015 C.ar    1  UNL1        0.1543
     35 F          -4.2411   -8.2085   34.4453 F       1  UNL1       -0.2028
     36 C          -3.7419   -6.6645   32.7156 C.ar    1  UNL1        0.0310
     37 C          -4.1169   -5.9734   31.5625 C.ar    1  UNL1        0.0033
     38 C          -5.3723   -6.1935   30.9931 C.ar    1  UNL1        0.0128
     39 C          -6.2580   -7.1109   31.5703 C.ar    1  UNL1        0.0733
     40 CL         -7.8180   -7.3763   30.8022 Cl      1  UNL1       -0.0809
@<TRIPOS>BOND
     1     1     2    1
     2     2     3   ar
     3     3    31    1
     4    31    33    1
     5    33    34   ar
     6    34    35    1
     7    34    36   ar
     8    36    37   ar
     9    37    38   ar
    10    38    39   ar
    11    39    40    1
    12     3     4   ar
    13     4     5   ar
    14     5     6   ar
    15     6     7   ar
    16     7    15    1
    17    15    16    2
    18    15    17   am
    19    17    19    1
    20    19    20   ar
    21    20    21   ar
    22    21    22    1
    23    21    23   ar
    24    23    24    1
    25    23    25   ar
    26    25    27    1
    27    27    28    1
    28    27    29    1
    29    27    30    1
    30    25    26   ar
    31     7     8   ar
    32     8     9   ar
    33     9    10   ar
    34     9    11    1
    35    11    12    1
    36    12    13    1
    37    13    14    1
    38    10     2   ar
    39    39    33   ar
    40    10     5   ar
    41    26    19   ar
    42    14     8    1
    43    31    32    1
    44    17    18    1
@<TRIPOS>MOLECULE
*****
 40 44 0 0 0
SMALL
GASTEIGER

@<TRIPOS>ATOM
      1 C         -10.5323  -10.0107   33.2445 C.3     1  UNL1        0.1333
      2 N          -9.8276  -10.2349   31.9818 N.ar    1  UNL1       -0.2950
      3 C          -9.0078   -9.3826   31.3050 C.ar    1  UNL1        0.2019
      4 N          -8.4343   -9.9346   30.2055 N.ar    1  UNL1       -0.2134
      5 C          -8.9542  -11.1749   30.1874 C.ar    1  UNL1        0.1033
      6 C          -8.7015  -12.1784   29.2554 C.ar    1  UNL1        0.0284
      7 C          -9.3496  -13.4244   29.4164 C.ar    1  UNL1        0.0922
      8 C         -10.2665  -13.6007   30.4898 C.ar    1  UNL1        0.1782
      9 C         -10.4744  -12.5695   31.4304 C.ar    1  UNL1        0.1897
     10 C          -9.7993  -11.3603   31.2436 C.ar    1  UNL1        0.1173
     11 O         -11.3560  -12.7798   32.4948 O.3     1  UNL1       -0.4669
     12 C         -11.8389  -14.0884   32.8031 C.3     1  UNL1        0.2527
     13 C         -12.1276  -14.8617   31.5114 C.3     1  UNL1        0.2526
     14 O         -11.0077  -14.7814   30.6266 O.3     1  UNL1       -0.4682
     15 C          -9.0928  -14.5015   28.4373 C.2     1  UNL1        0.2526
     16 O          -9.1484  -15.7012   28.8220 O.2     1  UNL1       -0.2697
     17 N          -8.7878  -14.1912   27.0656 N.am    1  UNL1       -0.2803
     18 H          -8.7008  -13.1889   26.7851 H       1  UNL1        0.1552
     19 C          -8.5097  -15.1807   26.0612 C.ar    1  UNL1        0.0511
     20 C          -7.4082  -15.0039   25.2149 C.ar    1  UNL1        0.0227
     21 C          -7.1291  -15.9335   24.2107 C.ar    1  UNL1        0.0587
     22 I          -5.4524  -15.6362   22.9605 I       1  UNL1       -0.0402
     23 C          -7.9585  -17.0474   24.0351 C.ar    1  UNL1        0.1494
     24 F          -7.6835  -17.9358   23.0456 F       1  UNL1       -0.2038
     25 C          -9.0783  -17.2368   24.8667 C.ar    1  UNL1        0.1004
     26 C          -9.3573  -16.2851   25.8662 C.ar    1  UNL1        0.0208
     27 C          -9.9884  -18.4209   24.6405 C.3     1  UNL1        0.4207
     28 F          -9.9068  -19.2747   25.7252 F       1  UNL1       -0.1658
     29 F          -9.6431  -19.1216   23.4975 F       1  UNL1       -0.1658
     30 F         -11.2951  -17.9872   24.5044 F       1  UNL1       -0.1658
     31 N          -8.7450   -8.0277   31.6949 N.pl3   1  UNL1       -0.2814
     32 H          -8.0120   -7.8710   32.4223 H       1  UNL1        0.1551
     33 C          -9.3064   -6.8798   31.0346 C.ar    1  UNL1        0.0889
     34 C         -10.7028   -6.7279   30.9051 C.ar    1  UNL1        0.1543
     35 F         -11.5537   -7.6726   31.3791 F       1  UNL1       -0.2028
     36 C         -11.2316   -5.6095   30.2542 C.ar    1  UNL1        0.0310
     37 C         -10.3813   -4.6414   29.7180 C.ar    1  UNL1        0.0033
     38 C          -8.9975   -4.7902   29.8251 C.ar    1  UNL1        0.0128
     39 C          -8.4557   -5.9055   30.4745 C.ar    1  UNL1        0.0733
     40 CL         -6.7069   -6.0368   30.6099 Cl      1  UNL1       -0.0809
@<TRIPOS>BOND
     1     1     2    1
     2     2     3   ar
     3     3    31    1
     4    31    33    1
     5    33    34   ar
     6    34    35    1
     7    34    36   ar
     8    36    37   ar
     9    37    38   ar
    10    38    39   ar
    11    39    40    1
    12     3     4   ar
    13     4     5   ar
    14     5     6   ar
    15     6     7   ar
    16     7    15    1
    17    15    16    2
    18    15    17   am
    19    17    19    1
    20    19    20   ar
    21    20    21   ar
    22    21    22    1
    23    21    23   ar
    24    23    24    1
    25    23    25   ar
    26    25    27    1
    27    27    28    1
    28    27    29    1
    29    27    30    1
    30    25    26   ar
    31     7     8   ar
    32     8     9   ar
    33     9    10   ar
    34     9    11    1
    35    11    12    1
    36    12    13    1
    37    13    14    1
    38    10     2   ar
    39    39    33   ar
    40    10     5   ar
    41    26    19   ar
    42    14     8    1
    43    31    32    1
    44    17    18    1
