@<TRIPOS>MOLECULE
*****
 29 31 0 0 0
SMALL
GASTEIGER

@<TRIPOS>ATOM
      1 C          46.2309   12.8713  -27.0477 C.ar    1  UNL1        0.3134
      2 N          46.9814   13.9085  -26.6315 N.ar    1  UNL1       -0.1854
      3 C          46.5023   14.0966  -25.3848 C.ar    1  UNL1        0.2051
      4 N          45.5312   13.2200  -25.0635 N.ar    1  UNL1       -0.0582
      5 O          45.3868   12.4839  -26.1230 O.2     1  UNL1       -0.3279
      6 N          46.5679   10.8260  -28.4798 N.am    1  UNL1       -0.2930
      7 C          46.3562   12.2411  -28.3670 C.2     1  UNL1        0.3025
      8 O          46.2655   12.9549  -29.4019 O.2     1  UNL1       -0.2649
      9 H          46.5744   10.2369  -27.6165 H       1  UNL1        0.1502
     10 C          46.7655   10.1644  -29.7672 C.3     1  UNL1        0.1168
     11 C          49.2444    7.4085  -30.6365 C.ar    1  UNL1        0.0584
     12 C          48.1609    8.3001  -30.7232 C.ar    1  UNL1        0.0121
     13 C          47.9385    9.2255  -29.6941 C.ar    1  UNL1        0.0002
     14 C          48.8009    9.2422  -28.5898 C.ar    1  UNL1        0.0180
     15 C          49.8676    8.3440  -28.5380 C.ar    1  UNL1        0.0982
     16 N          50.0633    7.4576  -29.5493 N.ar    1  UNL1       -0.2482
     17 C          48.3302    6.2662  -32.6777 C.3     1  UNL1        0.0063
     18 C          49.5194    6.3895  -31.7182 C.3     1  UNL1        0.0403
     19 C          50.8107    6.7194  -32.4759 C.3     1  UNL1        0.0063
     20 C          47.0756   15.0875  -24.4257 C.3     1  UNL1        0.2245
     21 S          46.9105   16.7382  -25.0822 S.O2    1  UNL1        0.0162
     22 O          45.9494   16.7249  -26.2375 O.2     1  UNL1       -0.1682
     23 O          46.3692   17.6512  -24.0175 O.2     1  UNL1       -0.1682
     24 C          48.4814   17.3194  -25.6297 C.ar    1  UNL1        0.1062
     25 C          48.5609   18.4417  -26.4663 C.ar    1  UNL1        0.0184
     26 C          49.8012   18.8725  -26.9476 C.ar    1  UNL1        0.0013
     27 C          50.9656   18.1808  -26.6014 C.ar    1  UNL1        0.0001
     28 C          50.8909   17.0577  -25.7725 C.ar    1  UNL1        0.0013
     29 C          49.6525   16.6265  -25.2872 C.ar    1  UNL1        0.0184
@<TRIPOS>BOND
     1    17    18    1
     2    18    19    1
     3    18    11    1
     4    11    12   ar
     5    12    13   ar
     6    13    10    1
     7    10     6    1
     8     6     7   am
     9     7     8    2
    10     7     1    1
    11     1     2   ar
    12     2     3   ar
    13     3    20    1
    14    20    21    1
    15    21    22    2
    16    21    23    2
    17    21    24    1
    18    24    25   ar
    19    25    26   ar
    20    26    27   ar
    21    27    28   ar
    22    28    29   ar
    23     3     4   ar
    24     4     5   ar
    25    13    14   ar
    26    14    15   ar
    27    15    16   ar
    28    16    11   ar
    29     5     1   ar
    30    29    24   ar
    31     6     9    1
@<TRIPOS>MOLECULE
*****
 29 31 0 0 0
SMALL
GASTEIGER

@<TRIPOS>ATOM
      1 C          46.4299   11.7600  -27.8991 C.ar    1  UNL1        0.3134
      2 N          46.7594   10.4677  -28.0823 N.ar    1  UNL1       -0.1854
      3 C          46.9014   10.4196  -29.4228 C.ar    1  UNL1        0.2051
      4 N          46.6829   11.6114  -30.0115 N.ar    1  UNL1       -0.0582
      5 O          46.3854   12.4129  -29.0346 O.2     1  UNL1       -0.3279
      6 N          47.0017   13.4310  -26.1024 N.am    1  UNL1       -0.2930
      7 C          46.1710   12.3660  -26.5880 C.2     1  UNL1        0.3025
      8 O          45.2039   11.9480  -25.8961 O.2     1  UNL1       -0.2649
      9 H          47.7582   13.8126  -26.7142 H       1  UNL1        0.1502
     10 C          46.8248   14.0193  -24.7769 C.3     1  UNL1        0.1168
     11 C          48.5667   17.2858  -25.6668 C.ar    1  UNL1        0.0584
     12 C          48.2045   15.9274  -25.6671 C.ar    1  UNL1        0.0121
     13 C          47.1988   15.4761  -24.8012 C.ar    1  UNL1        0.0002
     14 C          46.5730   16.3901  -23.9430 C.ar    1  UNL1        0.0180
     15 C          46.9563   17.7316  -23.9710 C.ar    1  UNL1        0.0982
     16 N          47.9328   18.1448  -24.8211 N.ar    1  UNL1       -0.2482
     17 C          49.2270   19.1395  -27.2271 C.3     1  UNL1        0.0063
     18 C          49.6493   17.8165  -26.5779 C.3     1  UNL1        0.0403
     19 C          50.9796   17.9658  -25.8308 C.3     1  UNL1        0.0063
     20 C          47.3719    9.2064  -30.1555 C.3     1  UNL1        0.2245
     21 S          48.8000    8.5158  -29.3390 S.O2    1  UNL1        0.0162
     22 O          49.5766    9.6155  -28.6710 O.2     1  UNL1       -0.1682
     23 O          48.3545    7.5362  -28.2893 O.2     1  UNL1       -0.1682
     24 C          49.8252    7.7048  -30.5206 C.ar    1  UNL1        0.1062
     25 C          51.2140    7.8955  -30.4919 C.ar    1  UNL1        0.0184
     26 C          52.0253    7.2979  -31.4617 C.ar    1  UNL1        0.0013
     27 C          51.4528    6.5138  -32.4674 C.ar    1  UNL1        0.0001
     28 C          50.0682    6.3257  -32.5040 C.ar    1  UNL1        0.0013
     29 C          49.2549    6.9193  -31.5338 C.ar    1  UNL1        0.0184
@<TRIPOS>BOND
     1    17    18    1
     2    18    19    1
     3    18    11    1
     4    11    12   ar
     5    12    13   ar
     6    13    10    1
     7    10     6    1
     8     6     7   am
     9     7     8    2
    10     7     1    1
    11     1     2   ar
    12     2     3   ar
    13     3    20    1
    14    20    21    1
    15    21    22    2
    16    21    23    2
    17    21    24    1
    18    24    25   ar
    19    25    26   ar
    20    26    27   ar
    21    27    28   ar
    22    28    29   ar
    23     3     4   ar
    24     4     5   ar
    25    13    14   ar
    26    14    15   ar
    27    15    16   ar
    28    16    11   ar
    29     5     1   ar
    30    29    24   ar
    31     6     9    1
@<TRIPOS>MOLECULE
*****
 29 31 0 0 0
SMALL
GASTEIGER

@<TRIPOS>ATOM
      1 C          45.9724   11.9447  -26.3226 C.ar    1  UNL1        0.3134
      2 N          46.8632   11.9024  -25.3142 N.ar    1  UNL1       -0.1854
      3 C          46.0697   12.1491  -24.2516 C.ar    1  UNL1        0.2051
      4 N          44.7783   12.3180  -24.5956 N.ar    1  UNL1       -0.0582
      5 O          44.7613   12.1922  -25.8875 O.2     1  UNL1       -0.3279
      6 N          46.4743   10.3896  -28.2403 N.am    1  UNL1       -0.2930
      7 C          46.3135   11.7224  -27.7325 C.2     1  UNL1        0.3025
      8 O          46.4538   12.7151  -28.4964 O.2     1  UNL1       -0.2649
      9 H          46.2898    9.5746  -27.6126 H       1  UNL1        0.1502
     10 C          46.8788   10.1206  -29.6181 C.3     1  UNL1        0.1168
     11 C          49.3011    7.3819  -30.6803 C.ar    1  UNL1        0.0584
     12 C          48.2055    8.2630  -30.6791 C.ar    1  UNL1        0.0121
     13 C          48.0628    9.1930  -29.6401 C.ar    1  UNL1        0.0002
     14 C          49.0162    9.2248  -28.6137 C.ar    1  UNL1        0.0180
     15 C          50.0921    8.3368  -28.6481 C.ar    1  UNL1        0.0982
     16 N          50.2093    7.4457  -29.6674 N.ar    1  UNL1       -0.2482
     17 C          48.2592    6.2814  -32.6829 C.3     1  UNL1        0.0063
     18 C          49.4926    6.3585  -31.7757 C.3     1  UNL1        0.0403
     19 C          50.7606    6.6457  -32.5879 C.3     1  UNL1        0.0063
     20 C          46.5540   12.1130  -22.8394 C.3     1  UNL1        0.2245
     21 S          48.3071   12.4400  -22.7868 S.O2    1  UNL1        0.0162
     22 O          48.6368   13.5615  -23.7314 O.2     1  UNL1       -0.1682
     23 O          48.7004   12.8524  -21.3956 O.2     1  UNL1       -0.1682
     24 C          49.1955   10.9929  -23.2578 C.ar    1  UNL1        0.1062
     25 C          49.9082   10.9699  -24.4650 C.ar    1  UNL1        0.0184
     26 C          50.5686    9.8050  -24.8687 C.ar    1  UNL1        0.0013
     27 C          50.5142    8.6574  -24.0725 C.ar    1  UNL1        0.0001
     28 C          49.7998    8.6735  -22.8711 C.ar    1  UNL1        0.0013
     29 C          49.1412    9.8376  -22.4634 C.ar    1  UNL1        0.0184
@<TRIPOS>BOND
     1    17    18    1
     2    18    19    1
     3    18    11    1
     4    11    12   ar
     5    12    13   ar
     6    13    10    1
     7    10     6    1
     8     6     7   am
     9     7     8    2
    10     7     1    1
    11     1     2   ar
    12     2     3   ar
    13     3    20    1
    14    20    21    1
    15    21    22    2
    16    21    23    2
    17    21    24    1
    18    24    25   ar
    19    25    26   ar
    20    26    27   ar
    21    27    28   ar
    22    28    29   ar
    23     3     4   ar
    24     4     5   ar
    25    13    14   ar
    26    14    15   ar
    27    15    16   ar
    28    16    11   ar
    29     5     1   ar
    30    29    24   ar
    31     6     9    1
@<TRIPOS>MOLECULE
*****
 29 31 0 0 0
SMALL
GASTEIGER

@<TRIPOS>ATOM
      1 C          52.7252   13.1428  -21.5780 C.ar    1  UNL1        0.3134
      2 N          51.7011   12.8508  -22.4015 N.ar    1  UNL1       -0.1854
      3 C          52.3552   12.5830  -23.5503 C.ar    1  UNL1        0.2051
      4 N          53.6919   12.6947  -23.4254 N.ar    1  UNL1       -0.0582
      5 O          53.8797   13.0513  -22.1914 O.2     1  UNL1       -0.3279
      6 N          52.2274   12.4999  -19.1934 N.am    1  UNL1       -0.2930
      7 C          52.5682   13.5011  -20.1637 C.2     1  UNL1        0.3025
      8 O          52.7461   14.6971  -19.8076 O.2     1  UNL1       -0.2649
      9 H          52.1484   11.5013  -19.4914 H       1  UNL1        0.1502
     10 C          51.9948   12.8200  -17.7871 C.3     1  UNL1        0.1168
     11 C          49.1085   11.6593  -15.5921 C.ar    1  UNL1        0.0584
     12 C          50.3598   12.1620  -15.9898 C.ar    1  UNL1        0.0121
     13 C          50.6484   12.3081  -17.3537 C.ar    1  UNL1        0.0002
     14 C          49.6823   11.9439  -18.3010 C.ar    1  UNL1        0.0180
     15 C          48.4501   11.4504  -17.8703 C.ar    1  UNL1        0.0982
     16 N          48.1936   11.3199  -16.5421 N.ar    1  UNL1       -0.2482
     17 C          49.8437   10.6920  -13.3941 C.3     1  UNL1        0.0063
     18 C          48.7553   11.4785  -14.1338 C.3     1  UNL1        0.0403
     19 C          48.4891   12.8275  -13.4560 C.3     1  UNL1        0.0063
     20 C          51.6758   12.0947  -24.7873 C.3     1  UNL1        0.2245
     21 S          51.2583   10.3688  -24.6136 S.O2    1  UNL1        0.0162
     22 O          50.9075    9.7995  -25.9595 O.2     1  UNL1       -0.1682
     23 O          52.4408    9.6178  -24.0678 O.2     1  UNL1       -0.1682
     24 C          49.8834   10.1970  -23.5250 C.ar    1  UNL1        0.1062
     25 C          48.7674   11.0337  -23.6678 C.ar    1  UNL1        0.0184
     26 C          47.6982   10.9377  -22.7715 C.ar    1  UNL1        0.0013
     27 C          47.7421   10.0113  -21.7256 C.ar    1  UNL1        0.0001
     28 C          48.8552    9.1792  -21.5753 C.ar    1  UNL1        0.0013
     29 C          49.9242    9.2708  -22.4718 C.ar    1  UNL1        0.0184
@<TRIPOS>BOND
     1    17    18    1
     2    18    19    1
     3    18    11    1
     4    11    12   ar
     5    12    13   ar
     6    13    10    1
     7    10     6    1
     8     6     7   am
     9     7     8    2
    10     7     1    1
    11     1     2   ar
    12     2     3   ar
    13     3    20    1
    14    20    21    1
    15    21    22    2
    16    21    23    2
    17    21    24    1
    18    24    25   ar
    19    25    26   ar
    20    26    27   ar
    21    27    28   ar
    22    28    29   ar
    23     3     4   ar
    24     4     5   ar
    25    13    14   ar
    26    14    15   ar
    27    15    16   ar
    28    16    11   ar
    29     5     1   ar
    30    29    24   ar
    31     6     9    1
@<TRIPOS>MOLECULE
*****
 29 31 0 0 0
SMALL
GASTEIGER

@<TRIPOS>ATOM
      1 C          46.3913   11.7918  -29.0767 C.ar    1  UNL1        0.3134
      2 N          47.1442   11.1486  -29.9886 N.ar    1  UNL1       -0.1854
      3 C          47.1586    9.8980  -29.4833 C.ar    1  UNL1        0.2051
      4 N          46.4487    9.7899  -28.3436 N.ar    1  UNL1       -0.0582
      5 O          45.9967   10.9863  -28.1211 O.2     1  UNL1       -0.3279
      6 N          46.4239   14.1158  -28.1045 N.am    1  UNL1       -0.2930
      7 C          46.0409   13.2147  -29.1539 C.2     1  UNL1        0.3025
      8 O          45.4081   13.6398  -30.1577 O.2     1  UNL1       -0.2649
      9 H          47.0055   13.7633  -27.3110 H       1  UNL1        0.1502
     10 C          46.0401   15.5255  -28.1046 C.3     1  UNL1        0.1168
     11 C          48.3681   17.7522  -26.0753 C.ar    1  UNL1        0.0584
     12 C          47.7574   17.1086  -27.1659 C.ar    1  UNL1        0.0121
     13 C          46.6810   16.2383  -26.9453 C.ar    1  UNL1        0.0002
     14 C          46.2339   16.0202  -25.6353 C.ar    1  UNL1        0.0180
     15 C          46.8623   16.6776  -24.5769 C.ar    1  UNL1        0.0982
     16 N          47.9028   17.5181  -24.8169 N.ar    1  UNL1       -0.2482
     17 C          50.8681   17.9373  -26.2250 C.3     1  UNL1        0.0063
     18 C          49.5352   18.6936  -26.2641 C.3     1  UNL1        0.0403
     19 C          49.3936   19.5002  -27.5600 C.3     1  UNL1        0.0063
     20 C          47.7887    8.7378  -30.1812 C.3     1  UNL1        0.2245
     21 S          49.2852    8.2572  -29.3370 S.O2    1  UNL1        0.0162
     22 O          49.8494    9.4410  -28.6029 O.2     1  UNL1       -0.1682
     23 O          48.9748    7.1764  -28.3391 O.2     1  UNL1       -0.1682
     24 C          50.4657    7.6727  -30.5074 C.ar    1  UNL1        0.1062
     25 C          50.0377    6.9788  -31.6481 C.ar    1  UNL1        0.0184
     26 C          50.9744    6.4653  -32.5506 C.ar    1  UNL1        0.0013
     27 C          52.3415    6.6363  -32.3143 C.ar    1  UNL1        0.0001
     28 C          52.7734    7.3220  -31.1753 C.ar    1  UNL1        0.0013
     29 C          51.8391    7.8393  -30.2728 C.ar    1  UNL1        0.0184
@<TRIPOS>BOND
     1    17    18    1
     2    18    19    1
     3    18    11    1
     4    11    12   ar
     5    12    13   ar
     6    13    10    1
     7    10     6    1
     8     6     7   am
     9     7     8    2
    10     7     1    1
    11     1     2   ar
    12     2     3   ar
    13     3    20    1
    14    20    21    1
    15    21    22    2
    16    21    23    2
    17    21    24    1
    18    24    25   ar
    19    25    26   ar
    20    26    27   ar
    21    27    28   ar
    22    28    29   ar
    23     3     4   ar
    24     4     5   ar
    25    13    14   ar
    26    14    15   ar
    27    15    16   ar
    28    16    11   ar
    29     5     1   ar
    30    29    24   ar
    31     6     9    1
@<TRIPOS>MOLECULE
*****
 29 31 0 0 0
SMALL
GASTEIGER

@<TRIPOS>ATOM
      1 C          52.0516   12.0925  -25.1386 C.ar    1  UNL1        0.3134
      2 N          51.6304   13.3695  -25.0748 N.ar    1  UNL1       -0.1854
      3 C          51.3225   13.4801  -23.7663 C.ar    1  UNL1        0.2051
      4 N          51.5547   12.3444  -23.0800 N.ar    1  UNL1       -0.0582
      5 O          51.9975   11.5068  -23.9674 O.2     1  UNL1       -0.3279
      6 N          51.7866   10.3663  -26.9545 N.am    1  UNL1       -0.2930
      7 C          52.5297   11.4433  -26.3647 C.2     1  UNL1        0.3025
      8 O          53.5959   11.8486  -26.9011 O.2     1  UNL1       -0.2649
      9 H          50.8706   10.0848  -26.5371 H       1  UNL1        0.1502
     10 C          52.2565    9.6456  -28.1352 C.3     1  UNL1        0.1168
     11 C          50.2858    7.3884  -30.4841 C.ar    1  UNL1        0.0584
     12 C          51.3582    8.0625  -29.8739 C.ar    1  UNL1        0.0121
     13 C          51.1179    8.9002  -28.7761 C.ar    1  UNL1        0.0002
     14 C          49.8066    9.0558  -28.3073 C.ar    1  UNL1        0.0180
     15 C          48.7667    8.3695  -28.9358 C.ar    1  UNL1        0.0982
     16 N          49.0257    7.5616  -29.9974 N.ar    1  UNL1       -0.2482
     17 C          49.1915    6.2793  -32.4536 C.3     1  UNL1        0.0063
     18 C          50.4959    6.4803  -31.6738 C.3     1  UNL1        0.0403
     19 C          51.6103    7.0080  -32.5847 C.3     1  UNL1        0.0063
     20 C          50.8914   14.7604  -23.1297 C.3     1  UNL1        0.2245
     21 S          49.3270   15.2835  -23.8094 S.O2    1  UNL1        0.0162
     22 O          48.6773   14.1291  -24.5193 O.2     1  UNL1       -0.1682
     23 O          48.4212   15.7350  -22.6977 O.2     1  UNL1       -0.1682
     24 C          49.5855   16.6041  -24.9470 C.ar    1  UNL1        0.1062
     25 C          50.8110   16.7216  -25.6180 C.ar    1  UNL1        0.0184
     26 C          51.0398   17.7993  -26.4793 C.ar    1  UNL1        0.0013
     27 C          50.0491   18.7672  -26.6686 C.ar    1  UNL1        0.0001
     28 C          48.8280   18.6579  -25.9972 C.ar    1  UNL1        0.0013
     29 C          48.5952   17.5797  -25.1378 C.ar    1  UNL1        0.0184
@<TRIPOS>BOND
     1    17    18    1
     2    18    19    1
     3    18    11    1
     4    11    12   ar
     5    12    13   ar
     6    13    10    1
     7    10     6    1
     8     6     7   am
     9     7     8    2
    10     7     1    1
    11     1     2   ar
    12     2     3   ar
    13     3    20    1
    14    20    21    1
    15    21    22    2
    16    21    23    2
    17    21    24    1
    18    24    25   ar
    19    25    26   ar
    20    26    27   ar
    21    27    28   ar
    22    28    29   ar
    23     3     4   ar
    24     4     5   ar
    25    13    14   ar
    26    14    15   ar
    27    15    16   ar
    28    16    11   ar
    29     5     1   ar
    30    29    24   ar
    31     6     9    1
@<TRIPOS>MOLECULE
*****
 29 31 0 0 0
SMALL
GASTEIGER

@<TRIPOS>ATOM
      1 C          46.3682   11.6224  -28.4912 C.ar    1  UNL1        0.3134
      2 N          46.6743   10.3123  -28.4446 N.ar    1  UNL1       -0.1854
      3 C          47.0479   10.0837  -29.7204 C.ar    1  UNL1        0.2051
      4 N          46.9829   11.1896  -30.4869 N.ar    1  UNL1       -0.0582
      5 O          46.5495   12.1186  -29.6906 O.2     1  UNL1       -0.3279
      6 N          45.3360   11.7434  -26.1961 N.am    1  UNL1       -0.2930
      7 C          45.9064   12.4018  -27.3368 C.2     1  UNL1        0.3025
      8 O          46.0256   13.6565  -27.3530 O.2     1  UNL1       -0.2649
      9 H          45.3045   10.6991  -26.1679 H       1  UNL1        0.1502
     10 C          44.8016   12.4801  -25.0533 C.3     1  UNL1        0.1168
     11 C          47.3245   12.3161  -22.2066 C.ar    1  UNL1        0.0584
     12 C          46.3032   11.9545  -23.1026 C.ar    1  UNL1        0.0121
     13 C          45.9120   12.8493  -24.1081 C.ar    1  UNL1        0.0002
     14 C          46.5450   14.0960  -24.1997 C.ar    1  UNL1        0.0180
     15 C          47.5565   14.4207  -23.2948 C.ar    1  UNL1        0.0982
     16 N          47.9191   13.5352  -22.3299 N.ar    1  UNL1       -0.2482
     17 C          47.0073   11.6575  -19.8039 C.3     1  UNL1        0.0063
     18 C          47.7749   11.3869  -21.1031 C.3     1  UNL1        0.0403
     19 C          47.6469    9.9192  -21.5267 C.3     1  UNL1        0.0063
     20 C          47.5924    8.7765  -30.1947 C.3     1  UNL1        0.2245
     21 S          49.0671    8.3618  -29.2802 S.O2    1  UNL1        0.0162
     22 O          49.6080    9.5956  -28.6140 O.2     1  UNL1       -0.1682
     23 O          48.7334    7.3501  -28.2194 O.2     1  UNL1       -0.1682
     24 C          50.2804    7.7045  -30.3762 C.ar    1  UNL1        0.1062
     25 C          51.6427    7.9211  -30.1250 C.ar    1  UNL1        0.0184
     26 C          52.6060    7.4486  -31.0220 C.ar    1  UNL1        0.0013
     27 C          52.2129    6.7647  -32.1760 C.ar    1  UNL1        0.0001
     28 C          50.8557    6.5517  -32.4340 C.ar    1  UNL1        0.0013
     29 C          49.8904    7.0201  -31.5374 C.ar    1  UNL1        0.0184
@<TRIPOS>BOND
     1    17    18    1
     2    18    19    1
     3    18    11    1
     4    11    12   ar
     5    12    13   ar
     6    13    10    1
     7    10     6    1
     8     6     7   am
     9     7     8    2
    10     7     1    1
    11     1     2   ar
    12     2     3   ar
    13     3    20    1
    14    20    21    1
    15    21    22    2
    16    21    23    2
    17    21    24    1
    18    24    25   ar
    19    25    26   ar
    20    26    27   ar
    21    27    28   ar
    22    28    29   ar
    23     3     4   ar
    24     4     5   ar
    25    13    14   ar
    26    14    15   ar
    27    15    16   ar
    28    16    11   ar
    29     5     1   ar
    30    29    24   ar
    31     6     9    1
@<TRIPOS>MOLECULE
*****
 29 31 0 0 0
SMALL
GASTEIGER

@<TRIPOS>ATOM
      1 C          51.9429   13.0738  -23.6127 C.ar    1  UNL1        0.3134
      2 N          51.6929   12.7573  -24.8970 N.ar    1  UNL1       -0.1854
      3 C          52.6806   11.8735  -25.1474 C.ar    1  UNL1        0.2051
      4 N          53.4708   11.6603  -24.0775 N.ar    1  UNL1       -0.0582
      5 O          52.9857   12.4286  -23.1502 O.2     1  UNL1       -0.3279
      6 N          49.7452   14.2039  -23.1224 N.am    1  UNL1       -0.2930
      7 C          51.1357   14.0112  -22.8233 C.2     1  UNL1        0.3025
      8 O          51.6744   14.6386  -21.8721 O.2     1  UNL1       -0.2649
      9 H          49.2957   13.6284  -23.8700 H       1  UNL1        0.1502
     10 C          48.9185   15.1744  -22.4090 C.3     1  UNL1        0.1168
     11 C          48.7791   17.5906  -25.3481 C.ar    1  UNL1        0.0584
     12 C          49.2095   16.5673  -24.4854 C.ar    1  UNL1        0.0121
     13 C          48.4501   16.2497  -23.3509 C.ar    1  UNL1        0.0002
     14 C          47.2727   16.9642  -23.0927 C.ar    1  UNL1        0.0180
     15 C          46.8744   17.9721  -23.9718 C.ar    1  UNL1        0.0982
     16 N          47.6270   18.2600  -25.0661 N.ar    1  UNL1       -0.2482
     17 C          49.0588   19.2886  -27.1772 C.3     1  UNL1        0.0063
     18 C          49.5683   17.9722  -26.5792 C.3     1  UNL1        0.0403
     19 C          51.0691   18.0457  -26.2755 C.3     1  UNL1        0.0063
     20 C          52.8040   11.1226  -26.4324 C.3     1  UNL1        0.2245
     21 S          51.3884   10.0603  -26.6569 S.O2    1  UNL1        0.0162
     22 O          51.3611    9.0241  -25.5687 O.2     1  UNL1       -0.1682
     23 O          50.1287   10.8767  -26.5745 O.2     1  UNL1       -0.1682
     24 C          51.4862    9.2641  -28.2258 C.ar    1  UNL1        0.1062
     25 C          50.4165    8.4812  -28.6825 C.ar    1  UNL1        0.0184
     26 C          50.5127    7.8030  -29.9018 C.ar    1  UNL1        0.0013
     27 C          51.6793    7.8982  -30.6660 C.ar    1  UNL1        0.0001
     28 C          52.7509    8.6724  -30.2121 C.ar    1  UNL1        0.0013
     29 C          52.6564    9.3541  -28.9949 C.ar    1  UNL1        0.0184
@<TRIPOS>BOND
     1    17    18    1
     2    18    19    1
     3    18    11    1
     4    11    12   ar
     5    12    13   ar
     6    13    10    1
     7    10     6    1
     8     6     7   am
     9     7     8    2
    10     7     1    1
    11     1     2   ar
    12     2     3   ar
    13     3    20    1
    14    20    21    1
    15    21    22    2
    16    21    23    2
    17    21    24    1
    18    24    25   ar
    19    25    26   ar
    20    26    27   ar
    21    27    28   ar
    22    28    29   ar
    23     3     4   ar
    24     4     5   ar
    25    13    14   ar
    26    14    15   ar
    27    15    16   ar
    28    16    11   ar
    29     5     1   ar
    30    29    24   ar
    31     6     9    1
@<TRIPOS>MOLECULE
*****
 29 31 0 0 0
SMALL
GASTEIGER

@<TRIPOS>ATOM
      1 C          46.3505   12.2070  -23.6782 C.ar    1  UNL1        0.3134
      2 N          47.1733   11.1568  -23.4990 N.ar    1  UNL1       -0.1854
      3 C          47.0494   10.9487  -22.1721 C.ar    1  UNL1        0.2051
      4 N          46.1957   11.8118  -21.5882 N.ar    1  UNL1       -0.0582
      5 O          45.7910   12.5800  -22.5533 O.2     1  UNL1       -0.3279
      6 N          46.4907   12.1923  -26.1937 N.am    1  UNL1       -0.2930
      7 C          46.0976   12.8430  -24.9763 C.2     1  UNL1        0.3025
      8 O          45.5216   13.9636  -25.0116 O.2     1  UNL1       -0.2649
      9 H          46.9067   11.2344  -26.1533 H       1  UNL1        0.1502
     10 C          46.3211   12.8153  -27.5042 C.3     1  UNL1        0.1168
     11 C          47.6684    9.7786  -29.3639 C.ar    1  UNL1        0.0584
     12 C          47.3972   10.6964  -28.3341 C.ar    1  UNL1        0.0121
     13 C          46.5933   11.8149  -28.5940 C.ar    1  UNL1        0.0002
     14 C          46.0762   12.0020  -29.8828 C.ar    1  UNL1        0.0180
     15 C          46.3641   11.0696  -30.8803 C.ar    1  UNL1        0.0982
     16 N          47.1445    9.9922  -30.6027 N.ar    1  UNL1       -0.2482
     17 C          48.9480    7.9160  -30.4594 C.3     1  UNL1        0.0063
     18 C          48.5348    8.5621  -29.1321 C.3     1  UNL1        0.0403
     19 C          49.7606    8.9083  -28.2791 C.3     1  UNL1        0.0063
     20 C          47.6930    9.8067  -21.4565 C.3     1  UNL1        0.2245
     21 S          49.4431   10.1050  -21.2807 S.O2    1  UNL1        0.0162
     22 O          49.6617   11.4519  -20.6508 O.2     1  UNL1       -0.1682
     23 O          50.0454    9.0545  -20.3896 O.2     1  UNL1       -0.1682
     24 C          50.2147   10.0634  -22.8643 C.ar    1  UNL1        0.1062
     25 C          50.3253    8.8502  -23.5585 C.ar    1  UNL1        0.0184
     26 C          50.9860    8.8035  -24.7902 C.ar    1  UNL1        0.0013
     27 C          51.5447    9.9656  -25.3299 C.ar    1  UNL1        0.0001
     28 C          51.4425   11.1763  -24.6388 C.ar    1  UNL1        0.0013
     29 C          50.7797   11.2267  -23.4086 C.ar    1  UNL1        0.0184
@<TRIPOS>BOND
     1    17    18    1
     2    18    19    1
     3    18    11    1
     4    11    12   ar
     5    12    13   ar
     6    13    10    1
     7    10     6    1
     8     6     7   am
     9     7     8    2
    10     7     1    1
    11     1     2   ar
    12     2     3   ar
    13     3    20    1
    14    20    21    1
    15    21    22    2
    16    21    23    2
    17    21    24    1
    18    24    25   ar
    19    25    26   ar
    20    26    27   ar
    21    27    28   ar
    22    28    29   ar
    23     3     4   ar
    24     4     5   ar
    25    13    14   ar
    26    14    15   ar
    27    15    16   ar
    28    16    11   ar
    29     5     1   ar
    30    29    24   ar
    31     6     9    1
