@<TRIPOS>MOLECULE
*****
 43 47 0 0 0
SMALL
GASTEIGER

@<TRIPOS>ATOM
      1 C         -26.4422   50.1772   -6.9890 C.ar    1  UNL1        0.0888
      2 C         -25.1449   50.6916   -7.2596 C.ar    1  UNL1        0.0282
      3 C         -24.7951   50.9395   -8.5951 C.ar    1  UNL1        0.0997
      4 N         -23.6341   51.4268   -9.0676 N.ar    1  UNL1       -0.2137
      5 C         -23.8554   51.4689  -10.4109 C.ar    1  UNL1        0.1984
      6 N         -25.0887   51.0464  -10.7837 N.ar    1  UNL1       -0.3255
      7 C         -25.6641   50.7118   -9.6238 C.ar    1  UNL1        0.0755
      8 C         -26.9390   50.2211   -9.3801 C.ar    1  UNL1        0.0325
      9 C         -27.3151   49.9637   -8.0859 C.ar    1  UNL1        0.1401
     10 O         -28.6221   49.5256   -8.0383 O.3     1  UNL1       -0.4824
     11 C         -29.1961   49.4819   -9.3475 C.3     1  UNL1        0.1375
     12 C         -29.6412   48.0460   -9.6532 C.3     1  UNL1        0.0439
     13 C         -30.3959   50.4373   -9.3969 C.3     1  UNL1        0.0439
     14 C         -28.0572   49.9452  -10.3173 C.3     1  UNL1        0.0709
     15 H         -25.4931   50.9966  -11.7452 H       1  UNL1        0.1686
     16 N         -27.7634   48.8393   -5.2969 N.am    1  UNL1       -0.2808
     17 C         -26.8794   49.9269   -5.6002 C.2     1  UNL1        0.2525
     18 O         -26.4726   50.6789   -4.6727 O.2     1  UNL1       -0.2697
     19 H         -27.7582   47.9906   -5.9058 H       1  UNL1        0.1552
     20 C         -26.7045   47.3677   -3.0622 C.3     1  UNL1        0.0323
     21 C         -28.0200   48.0938   -2.9723 C.ar    1  UNL1       -0.0087
     22 C         -28.7537   48.0546   -1.7788 C.ar    1  UNL1        0.0008
     23 C         -29.9730   48.7355   -1.6633 C.ar    1  UNL1        0.0709
     24 C         -30.4899   49.4059   -2.7811 C.ar    1  UNL1        0.0008
     25 C         -29.7832   49.4495   -3.9983 C.ar    1  UNL1       -0.0094
     26 C         -28.5239   48.8037   -4.0817 C.ar    1  UNL1        0.0424
     27 C         -30.7738   48.6557   -0.3868 C.3     1  UNL1        0.4186
     28 F         -29.9352   48.5841    0.7123 F       1  UNL1       -0.1659
     29 F         -31.5835   47.5330   -0.3845 F       1  UNL1       -0.1659
     30 F         -31.5663   49.7827   -0.2759 F       1  UNL1       -0.1659
     31 C         -30.4050   50.1500   -5.2028 C.3     1  UNL1        0.0236
     32 C         -30.8273   51.5816   -4.8532 C.3     1  UNL1        0.0047
     33 C         -31.5834   49.3469   -5.7674 C.3     1  UNL1        0.0047
     34 N         -22.8882   51.9505  -11.3515 N.pl3   1  UNL1       -0.2816
     35 H         -23.1767   52.0396  -12.3518 H       1  UNL1        0.1551
     36 C         -21.6477   52.5417  -10.9415 C.ar    1  UNL1        0.0889
     37 C         -20.5003   51.7372  -10.8505 C.ar    1  UNL1        0.1543
     38 F         -20.5632   50.4188  -11.1652 F       1  UNL1       -0.2028
     39 C         -19.2797   52.2922  -10.4553 C.ar    1  UNL1        0.0310
     40 C         -19.1980   53.6486  -10.1343 C.ar    1  UNL1        0.0033
     41 C         -20.3389   54.4520  -10.1966 C.ar    1  UNL1        0.0128
     42 C         -21.5664   53.9065  -10.5918 C.ar    1  UNL1        0.0733
     43 CL        -22.9923   54.9374  -10.5629 Cl      1  UNL1       -0.0809
@<TRIPOS>BOND
     1    20    21    1
     2    21    22   ar
     3    22    23   ar
     4    23    27    1
     5    27    28    1
     6    27    29    1
     7    27    30    1
     8    23    24   ar
     9    24    25   ar
    10    25    31    1
    11    31    32    1
    12    31    33    1
    13    25    26   ar
    14    26    16    1
    15    16    17   am
    16    17    18    2
    17    17     1    1
    18     1     2   ar
    19     2     3   ar
    20     3     4   ar
    21     4     5   ar
    22     5    34    1
    23    34    36    1
    24    36    37   ar
    25    37    38    1
    26    37    39   ar
    27    39    40   ar
    28    40    41   ar
    29    41    42   ar
    30    42    43    1
    31     5     6   ar
    32     6     7   ar
    33     7     8   ar
    34     8     9   ar
    35     9    10    1
    36    10    11    1
    37    11    12    1
    38    11    13    1
    39    11    14    1
    40    26    21   ar
    41     9     1   ar
    42     7     3   ar
    43    14     8    1
    44    42    36   ar
    45    16    19    1
    46    34    35    1
    47     6    15    1
@<TRIPOS>MOLECULE
*****
 43 47 0 0 0
SMALL
GASTEIGER

@<TRIPOS>ATOM
      1 C         -26.4545   50.0166   -7.0936 C.ar    1  UNL1        0.0888
      2 C         -25.1556   50.5325   -7.3538 C.ar    1  UNL1        0.0282
      3 C         -24.8323   50.8796   -8.6737 C.ar    1  UNL1        0.0997
      4 N         -23.6747   51.3863   -9.1341 N.ar    1  UNL1       -0.2137
      5 C         -23.9256   51.5369  -10.4644 C.ar    1  UNL1        0.1984
      6 N         -25.1735   51.1623  -10.8397 N.ar    1  UNL1       -0.3255
      7 C         -25.7277   50.7456   -9.6962 C.ar    1  UNL1        0.0755
      8 C         -27.0044   50.2551   -9.4615 C.ar    1  UNL1        0.0325
      9 C         -27.3551   49.9021   -8.1828 C.ar    1  UNL1        0.1401
     10 O         -28.6675   49.4799   -8.1385 O.3     1  UNL1       -0.4824
     11 C         -29.2716   49.5472   -9.4331 C.3     1  UNL1        0.1375
     12 C         -29.7461   48.1461   -9.8396 C.3     1  UNL1        0.0439
     13 C         -30.4570   50.5202   -9.3792 C.3     1  UNL1        0.0439
     14 C         -28.1477   50.0693  -10.3905 C.3     1  UNL1        0.0709
     15 H         -25.6002   51.1938  -11.7923 H       1  UNL1        0.1686
     16 N         -27.8639   48.6623   -5.4878 N.am    1  UNL1       -0.2808
     17 C         -26.8641   49.6640   -5.7186 C.2     1  UNL1        0.2525
     18 O         -26.3304   50.2518   -4.7383 O.2     1  UNL1       -0.2697
     19 H         -27.9886   47.8938   -6.1842 H       1  UNL1        0.1552
     20 C         -30.0656   50.4622   -5.0479 C.3     1  UNL1        0.0323
     21 C         -29.6607   49.4483   -4.0117 C.ar    1  UNL1       -0.0087
     22 C         -30.3638   49.3746   -2.8014 C.ar    1  UNL1        0.0008
     23 C         -30.0178   48.4289   -1.8269 C.ar    1  UNL1        0.0709
     24 C         -28.9118   47.5953   -2.0459 C.ar    1  UNL1        0.0008
     25 C         -28.1765   47.6570   -3.2451 C.ar    1  UNL1       -0.0094
     26 C         -28.5743   48.5799   -4.2449 C.ar    1  UNL1        0.0424
     27 C         -30.7564   48.3831   -0.5118 C.3     1  UNL1        0.4186
     28 F         -31.5396   47.2445   -0.4308 F       1  UNL1       -0.1659
     29 F         -31.5828   49.4850   -0.3742 F       1  UNL1       -0.1659
     30 F         -29.8410   48.3746    0.5238 F       1  UNL1       -0.1659
     31 C         -26.9514   46.7644   -3.4213 C.3     1  UNL1        0.0236
     32 C         -27.2085   45.3570   -2.8708 C.3     1  UNL1        0.0047
     33 C         -25.7078   47.3919   -2.7795 C.3     1  UNL1        0.0047
     34 N         -22.9724   52.0774  -11.3871 N.pl3   1  UNL1       -0.2816
     35 H         -23.2835   52.2541  -12.3688 H       1  UNL1        0.1551
     36 C         -21.7106   52.6103  -10.9625 C.ar    1  UNL1        0.0889
     37 C         -20.6006   51.7552  -10.8678 C.ar    1  UNL1        0.1543
     38 F         -20.7189   50.4432  -11.1928 F       1  UNL1       -0.2028
     39 C         -19.3602   52.2530  -10.4584 C.ar    1  UNL1        0.0310
     40 C         -19.2215   53.6022  -10.1268 C.ar    1  UNL1        0.0033
     41 C         -20.3253   54.4557  -10.1926 C.ar    1  UNL1        0.0128
     42 C         -21.5722   53.9677  -10.6020 C.ar    1  UNL1        0.0733
     43 CL        -22.9514   55.0603  -10.5774 Cl      1  UNL1       -0.0809
@<TRIPOS>BOND
     1    20    21    1
     2    21    22   ar
     3    22    23   ar
     4    23    27    1
     5    27    28    1
     6    27    29    1
     7    27    30    1
     8    23    24   ar
     9    24    25   ar
    10    25    31    1
    11    31    32    1
    12    31    33    1
    13    25    26   ar
    14    26    16    1
    15    16    17   am
    16    17    18    2
    17    17     1    1
    18     1     2   ar
    19     2     3   ar
    20     3     4   ar
    21     4     5   ar
    22     5    34    1
    23    34    36    1
    24    36    37   ar
    25    37    38    1
    26    37    39   ar
    27    39    40   ar
    28    40    41   ar
    29    41    42   ar
    30    42    43    1
    31     5     6   ar
    32     6     7   ar
    33     7     8   ar
    34     8     9   ar
    35     9    10    1
    36    10    11    1
    37    11    12    1
    38    11    13    1
    39    11    14    1
    40    26    21   ar
    41     9     1   ar
    42     7     3   ar
    43    14     8    1
    44    42    36   ar
    45    16    19    1
    46    34    35    1
    47     6    15    1
@<TRIPOS>MOLECULE
*****
 43 47 0 0 0
SMALL
GASTEIGER

@<TRIPOS>ATOM
      1 C         -26.3273   49.4437   -7.8365 C.ar    1  UNL1        0.0888
      2 C         -25.0274   50.0091   -7.7287 C.ar    1  UNL1        0.0282
      3 C         -24.6437   50.9738   -8.6718 C.ar    1  UNL1        0.0997
      4 N         -23.4743   51.6337   -8.7488 N.ar    1  UNL1       -0.2137
      5 C         -23.6596   52.4391   -9.8315 C.ar    1  UNL1        0.1984
      6 N         -24.8788   52.3169  -10.4121 N.ar    1  UNL1       -0.3255
      7 C         -25.4825   51.3836   -9.6686 C.ar    1  UNL1        0.0755
      8 C         -26.7595   50.8529   -9.7842 C.ar    1  UNL1        0.0325
      9 C         -27.1683   49.9043   -8.8811 C.ar    1  UNL1        0.1401
     10 O         -28.4724   49.5292   -9.1281 O.3     1  UNL1       -0.4824
     11 C         -29.0104   50.2478  -10.2415 C.3     1  UNL1        0.1375
     12 C         -29.4352   49.2494  -11.3260 C.3     1  UNL1        0.0439
     13 C         -30.2164   51.0699   -9.7674 C.3     1  UNL1        0.0439
     14 C         -27.8495   51.1729  -10.7403 C.3     1  UNL1        0.0709
     15 H         -25.2565   52.8300  -11.2395 H       1  UNL1        0.1686
     16 N         -28.0879   48.5817   -6.2377 N.am    1  UNL1       -0.2808
     17 C         -26.7998   48.4473   -6.8534 C.2     1  UNL1        0.2525
     18 O         -26.0617   47.4700   -6.5512 O.2     1  UNL1       -0.2697
     19 H         -28.8520   49.0744   -6.7520 H       1  UNL1        0.1552
     20 C         -26.9269   49.5465   -3.7880 C.3     1  UNL1        0.0323
     21 C         -27.8598   48.3654   -3.8033 C.ar    1  UNL1       -0.0087
     22 C         -28.1726   47.7130   -2.6030 C.ar    1  UNL1        0.0008
     23 C         -29.0512   46.6215   -2.5873 C.ar    1  UNL1        0.0709
     24 C         -29.5665   46.1415   -3.7999 C.ar    1  UNL1        0.0008
     25 C         -29.2577   46.7665   -5.0233 C.ar    1  UNL1       -0.0094
     26 C         -28.4128   47.9047   -5.0161 C.ar    1  UNL1        0.0424
     27 C         -29.3517   45.9021   -1.2953 C.3     1  UNL1        0.4186
     28 F         -29.7442   46.7990   -0.3166 F       1  UNL1       -0.1659
     29 F         -28.2332   45.2273   -0.8375 F       1  UNL1       -0.1659
     30 F         -30.3708   44.9927   -1.5075 F       1  UNL1       -0.1659
     31 C         -29.8022   46.1819   -6.3234 C.3     1  UNL1        0.0236
     32 C         -31.1876   46.7517   -6.6489 C.3     1  UNL1        0.0047
     33 C         -29.8305   44.6491   -6.2763 C.3     1  UNL1        0.0047
     34 N         -22.6713   53.3640  -10.3005 N.pl3   1  UNL1       -0.2816
     35 H         -22.8908   54.3844  -10.2535 H       1  UNL1        0.1551
     36 C         -21.3241   52.9663  -10.5892 C.ar    1  UNL1        0.0889
     37 C         -21.0799   51.6741  -11.0819 C.ar    1  UNL1        0.1543
     38 F         -22.1110   50.8192  -11.2989 F       1  UNL1       -0.2028
     39 C         -19.7750   51.2654  -11.3726 C.ar    1  UNL1        0.0310
     40 C         -18.7044   52.1362  -11.1603 C.ar    1  UNL1        0.0033
     41 C         -18.9338   53.4145  -10.6462 C.ar    1  UNL1        0.0128
     42 C         -20.2368   53.8343  -10.3521 C.ar    1  UNL1        0.0733
     43 CL        -20.4640   55.4175   -9.6181 Cl      1  UNL1       -0.0809
@<TRIPOS>BOND
     1    20    21    1
     2    21    22   ar
     3    22    23   ar
     4    23    27    1
     5    27    28    1
     6    27    29    1
     7    27    30    1
     8    23    24   ar
     9    24    25   ar
    10    25    31    1
    11    31    32    1
    12    31    33    1
    13    25    26   ar
    14    26    16    1
    15    16    17   am
    16    17    18    2
    17    17     1    1
    18     1     2   ar
    19     2     3   ar
    20     3     4   ar
    21     4     5   ar
    22     5    34    1
    23    34    36    1
    24    36    37   ar
    25    37    38    1
    26    37    39   ar
    27    39    40   ar
    28    40    41   ar
    29    41    42   ar
    30    42    43    1
    31     5     6   ar
    32     6     7   ar
    33     7     8   ar
    34     8     9   ar
    35     9    10    1
    36    10    11    1
    37    11    12    1
    38    11    13    1
    39    11    14    1
    40    26    21   ar
    41     9     1   ar
    42     7     3   ar
    43    14     8    1
    44    42    36   ar
    45    16    19    1
    46    34    35    1
    47     6    15    1
@<TRIPOS>MOLECULE
*****
 43 47 0 0 0
SMALL
GASTEIGER

@<TRIPOS>ATOM
      1 C         -26.9700   50.4874   -8.1727 C.ar    1  UNL1        0.0888
      2 C         -25.6024   50.6422   -7.8170 C.ar    1  UNL1        0.0282
      3 C         -24.6988   51.0387   -8.8138 C.ar    1  UNL1        0.0997
      4 N         -23.3759   51.2485   -8.6927 N.ar    1  UNL1       -0.2137
      5 C         -23.0187   51.6216   -9.9531 C.ar    1  UNL1        0.1984
      6 N         -24.0496   51.6629  -10.8329 N.ar    1  UNL1       -0.3255
      7 C         -25.0999   51.2865  -10.0956 C.ar    1  UNL1        0.0755
      8 C         -26.4320   51.1527  -10.4605 C.ar    1  UNL1        0.0325
      9 C         -27.3441   50.7632   -9.5124 C.ar    1  UNL1        0.1401
     10 O         -28.6149   50.7272  -10.0473 O.3     1  UNL1       -0.4824
     11 C         -28.6031   51.1167  -11.4234 C.3     1  UNL1        0.1375
     12 C         -29.1529   49.9660  -12.2760 C.3     1  UNL1        0.0439
     13 C         -29.4700   52.3715  -11.5929 C.3     1  UNL1        0.0439
     14 C         -27.1021   51.4101  -11.7603 C.3     1  UNL1        0.0709
     15 H         -24.0290   51.9272  -11.8429 H       1  UNL1        0.1686
     16 N         -27.9655   50.7054   -5.8574 N.am    1  UNL1       -0.2808
     17 C         -27.9738   50.1035   -7.1590 C.2     1  UNL1        0.2525
     18 O         -28.8453   49.2361   -7.4407 O.2     1  UNL1       -0.2697
     19 H         -27.5867   51.6720   -5.7431 H       1  UNL1        0.1552
     20 C         -26.5813   48.6348   -4.4163 C.3     1  UNL1        0.0323
     21 C         -27.9620   49.0815   -4.0167 C.ar    1  UNL1       -0.0087
     22 C         -28.5964   48.4786   -2.9220 C.ar    1  UNL1        0.0008
     23 C         -29.8748   48.8872   -2.5190 C.ar    1  UNL1        0.0709
     24 C         -30.5469   49.8650   -3.2663 C.ar    1  UNL1        0.0008
     25 C         -29.9415   50.4775   -4.3803 C.ar    1  UNL1       -0.0094
     26 C         -28.6253   50.0936   -4.7408 C.ar    1  UNL1        0.0424
     27 C         -30.5647   48.2057   -1.3629 C.3     1  UNL1        0.4186
     28 F         -31.2495   49.1280   -0.5902 F       1  UNL1       -0.1659
     29 F         -29.6451   47.5629   -0.5522 F       1  UNL1       -0.1659
     30 F         -31.4612   47.2748   -1.8530 F       1  UNL1       -0.1659
     31 C         -30.7275   51.5023   -5.1929 C.3     1  UNL1        0.0236
     32 C         -31.5836   52.3909   -4.2832 C.3     1  UNL1        0.0047
     33 C         -31.5838   50.8224   -6.2685 C.3     1  UNL1        0.0047
     34 N         -21.6795   51.9766  -10.3171 N.pl3   1  UNL1       -0.2816
     35 H         -21.2528   51.5033  -11.1452 H       1  UNL1        0.1551
     36 C         -21.0079   53.1133   -9.7571 C.ar    1  UNL1        0.0889
     37 C         -21.3140   54.3971  -10.2367 C.ar    1  UNL1        0.1543
     38 F         -22.2488   54.5595  -11.2067 F       1  UNL1       -0.2028
     39 C         -20.6737   55.5198   -9.7041 C.ar    1  UNL1        0.0310
     40 C         -19.7142   55.3691   -8.7011 C.ar    1  UNL1        0.0033
     41 C         -19.3836   54.0944   -8.2352 C.ar    1  UNL1        0.0128
     42 C         -20.0193   52.9631   -8.7612 C.ar    1  UNL1        0.0733
     43 CL        -19.5004   51.3749   -8.2091 Cl      1  UNL1       -0.0809
@<TRIPOS>BOND
     1    20    21    1
     2    21    22   ar
     3    22    23   ar
     4    23    27    1
     5    27    28    1
     6    27    29    1
     7    27    30    1
     8    23    24   ar
     9    24    25   ar
    10    25    31    1
    11    31    32    1
    12    31    33    1
    13    25    26   ar
    14    26    16    1
    15    16    17   am
    16    17    18    2
    17    17     1    1
    18     1     2   ar
    19     2     3   ar
    20     3     4   ar
    21     4     5   ar
    22     5    34    1
    23    34    36    1
    24    36    37   ar
    25    37    38    1
    26    37    39   ar
    27    39    40   ar
    28    40    41   ar
    29    41    42   ar
    30    42    43    1
    31     5     6   ar
    32     6     7   ar
    33     7     8   ar
    34     8     9   ar
    35     9    10    1
    36    10    11    1
    37    11    12    1
    38    11    13    1
    39    11    14    1
    40    26    21   ar
    41     9     1   ar
    42     7     3   ar
    43    14     8    1
    44    42    36   ar
    45    16    19    1
    46    34    35    1
    47     6    15    1
@<TRIPOS>MOLECULE
*****
 43 47 0 0 0
SMALL
GASTEIGER

@<TRIPOS>ATOM
      1 C         -27.1212   50.4220   -7.9671 C.ar    1  UNL1        0.0888
      2 C         -25.7485   50.5683   -7.6275 C.ar    1  UNL1        0.0282
      3 C         -24.8497   50.9311   -8.6414 C.ar    1  UNL1        0.0997
      4 N         -23.5234   51.1277   -8.5372 N.ar    1  UNL1       -0.2137
      5 C         -23.1736   51.4677   -9.8090 C.ar    1  UNL1        0.1984
      6 N         -24.2122   51.5013  -10.6801 N.ar    1  UNL1       -0.3255
      7 C         -25.2599   51.1545   -9.9248 C.ar    1  UNL1        0.0755
      8 C         -26.5968   51.0285  -10.2744 C.ar    1  UNL1        0.0325
      9 C         -27.5045   50.6718   -9.3093 C.ar    1  UNL1        0.1401
     10 O         -28.7807   50.6390   -9.8316 O.3     1  UNL1       -0.4824
     11 C         -28.7771   50.9969  -11.2163 C.3     1  UNL1        0.1375
     12 C         -29.3486   49.8337  -12.0373 C.3     1  UNL1        0.0439
     13 C         -29.6307   52.2578  -11.4066 C.3     1  UNL1        0.0439
     14 C         -27.2761   51.2644  -11.5735 C.3     1  UNL1        0.0709
     15 H         -24.1979   51.7424  -11.6961 H       1  UNL1        0.1686
     16 N         -27.9354   50.4793   -5.5728 N.am    1  UNL1       -0.2808
     17 C         -28.1199   50.0735   -6.9358 C.2     1  UNL1        0.2525
     18 O         -29.1437   49.4104   -7.2572 O.2     1  UNL1       -0.2697
     19 H         -27.3876   51.3442   -5.3661 H       1  UNL1        0.1552
     20 C         -30.5585   51.4337   -4.8738 C.3     1  UNL1        0.0323
     21 C         -29.9196   50.2846   -4.1409 C.ar    1  UNL1       -0.0087
     22 C         -30.6089   49.6622   -3.0912 C.ar    1  UNL1        0.0008
     23 C         -30.0437   48.5800   -2.4036 C.ar    1  UNL1        0.0709
     24 C         -28.7454   48.1645   -2.7321 C.ar    1  UNL1        0.0008
     25 C         -28.0221   48.7806   -3.7713 C.ar    1  UNL1       -0.0094
     26 C         -28.6302   49.8368   -4.4954 C.ar    1  UNL1        0.0424
     27 C         -30.7776   47.9413   -1.2501 C.3     1  UNL1        0.4186
     28 F         -31.5814   46.9060   -1.6956 F       1  UNL1       -0.1659
     29 F         -31.5831   48.8663   -0.6083 F       1  UNL1       -0.1659
     30 F         -29.8584   47.4413   -0.3471 F       1  UNL1       -0.1659
     31 C         -26.5944   48.3280   -4.0633 C.3     1  UNL1        0.0236
     32 C         -26.5709   47.2203   -5.1228 C.3     1  UNL1        0.0047
     33 C         -25.8774   47.8845   -2.7820 C.3     1  UNL1        0.0047
     34 N         -21.8338   51.7981  -10.1933 N.pl3   1  UNL1       -0.2816
     35 H         -21.3674   51.2021  -10.9137 H       1  UNL1        0.1551
     36 C         -21.2129   53.0367   -9.8233 C.ar    1  UNL1        0.0889
     37 C         -21.5767   54.2151  -10.4949 C.ar    1  UNL1        0.1543
     38 F         -22.5191   54.1826  -11.4706 F       1  UNL1       -0.2028
     39 C         -20.9864   55.4343  -10.1496 C.ar    1  UNL1        0.0310
     40 C         -20.0197   55.4845   -9.1434 C.ar    1  UNL1        0.0033
     41 C         -19.6319   54.3142   -8.4870 C.ar    1  UNL1        0.0128
     42 C         -20.2171   53.0877   -8.8245 C.ar    1  UNL1        0.0733
     43 CL        -19.6270   51.6297   -8.0355 Cl      1  UNL1       -0.0809
@<TRIPOS>BOND
     1    20    21    1
     2    21    22   ar
     3    22    23   ar
     4    23    27    1
     5    27    28    1
     6    27    29    1
     7    27    30    1
     8    23    24   ar
     9    24    25   ar
    10    25    31    1
    11    31    32    1
    12    31    33    1
    13    25    26   ar
    14    26    16    1
    15    16    17   am
    16    17    18    2
    17    17     1    1
    18     1     2   ar
    19     2     3   ar
    20     3     4   ar
    21     4     5   ar
    22     5    34    1
    23    34    36    1
    24    36    37   ar
    25    37    38    1
    26    37    39   ar
    27    39    40   ar
    28    40    41   ar
    29    41    42   ar
    30    42    43    1
    31     5     6   ar
    32     6     7   ar
    33     7     8   ar
    34     8     9   ar
    35     9    10    1
    36    10    11    1
    37    11    12    1
    38    11    13    1
    39    11    14    1
    40    26    21   ar
    41     9     1   ar
    42     7     3   ar
    43    14     8    1
    44    42    36   ar
    45    16    19    1
    46    34    35    1
    47     6    15    1
@<TRIPOS>MOLECULE
*****
 43 47 0 0 0
SMALL
GASTEIGER

@<TRIPOS>ATOM
      1 C         -26.1923   49.7362   -7.6631 C.ar    1  UNL1        0.0888
      2 C         -24.8435   50.1000   -7.4002 C.ar    1  UNL1        0.0282
      3 C         -24.1786   50.9035   -8.3382 C.ar    1  UNL1        0.0997
      4 N         -22.9162   51.3638   -8.2835 N.ar    1  UNL1       -0.2137
      5 C         -22.8143   52.0863   -9.4337 C.ar    1  UNL1        0.1984
      6 N         -23.9457   52.1028  -10.1808 N.ar    1  UNL1       -0.3255
      7 C         -24.7928   51.3463   -9.4749 C.ar    1  UNL1        0.0755
      8 C         -26.1124   51.0122   -9.7444 C.ar    1  UNL1        0.0325
      9 C         -26.7936   50.2248   -8.8507 C.ar    1  UNL1        0.1401
     10 O         -28.0959   50.0361   -9.2644 O.3     1  UNL1       -0.4824
     11 C         -28.3487   50.7254  -10.4918 C.3     1  UNL1        0.1375
     12 C         -28.7817   49.7106  -11.5578 C.3     1  UNL1        0.0439
     13 C         -29.4539   51.7646  -10.2604 C.3     1  UNL1        0.0439
     14 C         -26.9925   51.4094  -10.8724 C.3     1  UNL1        0.0709
     15 H         -24.1156   52.5909  -11.0882 H       1  UNL1        0.1686
     16 N         -27.9477   49.5196   -5.8545 N.am    1  UNL1       -0.2808
     17 C         -26.9547   48.9189   -6.6969 C.2     1  UNL1        0.2525
     18 O         -26.7280   47.6810   -6.6107 O.2     1  UNL1       -0.2697
     19 H         -28.4484   50.3751   -6.1837 H       1  UNL1        0.1552
     20 C         -30.6105   48.4298   -5.8099 C.3     1  UNL1        0.0323
     21 C         -29.7023   48.3341   -4.6133 C.ar    1  UNL1       -0.0087
     22 C         -30.1568   47.7050   -3.4462 C.ar    1  UNL1        0.0008
     23 C         -29.3259   47.5879   -2.3239 C.ar    1  UNL1        0.0709
     24 C         -28.0499   48.1685   -2.3548 C.ar    1  UNL1        0.0008
     25 C         -27.5717   48.8206   -3.5075 C.ar    1  UNL1       -0.0094
     26 C         -28.4030   48.8808   -4.6542 C.ar    1  UNL1        0.0424
     27 C         -29.8376   46.9428   -1.0594 C.3     1  UNL1        0.4186
     28 F         -29.1404   45.7779   -0.7885 F       1  UNL1       -0.1659
     29 F         -31.1792   46.6237   -1.1792 F       1  UNL1       -0.1659
     30 F         -29.6759   47.8202   -0.0037 F       1  UNL1       -0.1659
     31 C         -26.1956   49.4796   -3.4809 C.3     1  UNL1        0.0236
     32 C         -25.5001   49.2540   -2.1336 C.3     1  UNL1        0.0047
     33 C         -26.2869   50.9740   -3.8141 C.3     1  UNL1        0.0047
     34 N         -21.6307   52.7998   -9.8107 N.pl3   1  UNL1       -0.2816
     35 H         -21.7430   53.7352  -10.2624 H       1  UNL1        0.1551
     36 C         -20.3239   52.4034   -9.3730 C.ar    1  UNL1        0.0889
     37 C         -19.9286   52.6783   -8.0538 C.ar    1  UNL1        0.1543
     38 F         -20.7824   53.2959   -7.1990 F       1  UNL1       -0.2028
     39 C         -18.6603   52.2992   -7.6044 C.ar    1  UNL1        0.0310
     40 C         -17.7731   51.6573   -8.4705 C.ar    1  UNL1        0.0033
     41 C         -18.1468   51.4025   -9.7920 C.ar    1  UNL1        0.0128
     42 C         -19.4149   51.7774  -10.2525 C.ar    1  UNL1        0.0733
     43 CL        -19.8025   51.5201  -11.9496 Cl      1  UNL1       -0.0809
@<TRIPOS>BOND
     1    20    21    1
     2    21    22   ar
     3    22    23   ar
     4    23    27    1
     5    27    28    1
     6    27    29    1
     7    27    30    1
     8    23    24   ar
     9    24    25   ar
    10    25    31    1
    11    31    32    1
    12    31    33    1
    13    25    26   ar
    14    26    16    1
    15    16    17   am
    16    17    18    2
    17    17     1    1
    18     1     2   ar
    19     2     3   ar
    20     3     4   ar
    21     4     5   ar
    22     5    34    1
    23    34    36    1
    24    36    37   ar
    25    37    38    1
    26    37    39   ar
    27    39    40   ar
    28    40    41   ar
    29    41    42   ar
    30    42    43    1
    31     5     6   ar
    32     6     7   ar
    33     7     8   ar
    34     8     9   ar
    35     9    10    1
    36    10    11    1
    37    11    12    1
    38    11    13    1
    39    11    14    1
    40    26    21   ar
    41     9     1   ar
    42     7     3   ar
    43    14     8    1
    44    42    36   ar
    45    16    19    1
    46    34    35    1
    47     6    15    1
@<TRIPOS>MOLECULE
*****
 43 47 0 0 0
SMALL
GASTEIGER

@<TRIPOS>ATOM
      1 C         -26.1314   50.3381   -7.2250 C.ar    1  UNL1        0.0888
      2 C         -24.7562   50.6860   -7.1321 C.ar    1  UNL1        0.0282
      3 C         -24.1093   51.1468   -8.2882 C.ar    1  UNL1        0.0997
      4 N         -22.8274   51.5319   -8.4190 N.ar    1  UNL1       -0.2137
      5 C         -22.7570   51.8857   -9.7325 C.ar    1  UNL1        0.1984
      6 N         -23.9251   51.7498  -10.4073 N.ar    1  UNL1       -0.3255
      7 C         -24.7644   51.2773   -9.4795 C.ar    1  UNL1        0.0755
      8 C         -26.1095   50.9542   -9.5885 C.ar    1  UNL1        0.0325
      9 C         -26.7744   50.4970   -8.4788 C.ar    1  UNL1        0.1401
     10 O         -28.1038   50.2705   -8.7686 O.3     1  UNL1       -0.4824
     11 C         -28.3928   50.5901  -10.1323 C.3     1  UNL1        0.1375
     12 C         -28.9250   49.3373  -10.8400 C.3     1  UNL1        0.0439
     13 C         -29.4390   51.7121  -10.1695 C.3     1  UNL1        0.0439
     14 C         -27.0312   51.0585  -10.7479 C.3     1  UNL1        0.0709
     15 H         -24.1227   51.9646  -11.4099 H       1  UNL1        0.1686
     16 N         -26.6349   48.5768   -5.4805 N.am    1  UNL1       -0.2808
     17 C         -26.8747   49.8778   -6.0341 C.2     1  UNL1        0.2525
     18 O         -27.7302   50.6359   -5.5006 O.2     1  UNL1       -0.2697
     19 H         -25.6954   48.1359   -5.5982 H       1  UNL1        0.1552
     20 C         -26.1450   48.6122   -2.6452 C.3     1  UNL1        0.0323
     21 C         -27.3677   47.9512   -3.2229 C.ar    1  UNL1       -0.0087
     22 C         -28.2915   47.3337   -2.3686 C.ar    1  UNL1        0.0008
     23 C         -29.4461   46.7257   -2.8793 C.ar    1  UNL1        0.0709
     24 C         -29.6378   46.6808   -4.2676 C.ar    1  UNL1        0.0008
     25 C         -28.7192   47.2785   -5.1517 C.ar    1  UNL1       -0.0094
     26 C         -27.5852   47.9396   -4.6162 C.ar    1  UNL1        0.0424
     27 C         -30.4151   46.0305   -1.9547 C.3     1  UNL1        0.4186
     28 F         -30.8994   44.8714   -2.5364 F       1  UNL1       -0.1659
     29 F         -31.4926   46.8502   -1.6663 F       1  UNL1       -0.1659
     30 F         -29.7676   45.7068   -0.7772 F       1  UNL1       -0.1659
     31 C         -28.9428   47.1644   -6.6568 C.3     1  UNL1        0.0236
     32 C         -30.0735   48.0902   -7.1200 C.3     1  UNL1        0.0047
     33 C         -29.2104   45.7123   -7.0719 C.3     1  UNL1        0.0047
     34 N         -21.5662   52.3929  -10.3464 N.pl3   1  UNL1       -0.2816
     35 H         -21.6696   53.0570  -11.1463 H       1  UNL1        0.1551
     36 C         -20.2691   52.2272   -9.7576 C.ar    1  UNL1        0.0889
     37 C         -20.0655   52.6158   -8.4236 C.ar    1  UNL1        0.1543
     38 F         -21.0912   53.1253   -7.6960 F       1  UNL1       -0.2028
     39 C         -18.8103   52.4615   -7.8281 C.ar    1  UNL1        0.0310
     40 C         -17.7468   51.9328   -8.5623 C.ar    1  UNL1        0.0033
     41 C         -17.9320   51.5672   -9.8976 C.ar    1  UNL1        0.0128
     42 C         -19.1853   51.7170  -10.5038 C.ar    1  UNL1        0.0733
     43 CL        -19.3432   51.3312  -12.2134 Cl      1  UNL1       -0.0809
@<TRIPOS>BOND
     1    20    21    1
     2    21    22   ar
     3    22    23   ar
     4    23    27    1
     5    27    28    1
     6    27    29    1
     7    27    30    1
     8    23    24   ar
     9    24    25   ar
    10    25    31    1
    11    31    32    1
    12    31    33    1
    13    25    26   ar
    14    26    16    1
    15    16    17   am
    16    17    18    2
    17    17     1    1
    18     1     2   ar
    19     2     3   ar
    20     3     4   ar
    21     4     5   ar
    22     5    34    1
    23    34    36    1
    24    36    37   ar
    25    37    38    1
    26    37    39   ar
    27    39    40   ar
    28    40    41   ar
    29    41    42   ar
    30    42    43    1
    31     5     6   ar
    32     6     7   ar
    33     7     8   ar
    34     8     9   ar
    35     9    10    1
    36    10    11    1
    37    11    12    1
    38    11    13    1
    39    11    14    1
    40    26    21   ar
    41     9     1   ar
    42     7     3   ar
    43    14     8    1
    44    42    36   ar
    45    16    19    1
    46    34    35    1
    47     6    15    1
