@<TRIPOS>MOLECULE
*****
 48 53 0 0 0
SMALL
GASTEIGER

@<TRIPOS>ATOM
      1 C          62.5872   90.9260   10.6262 C.2     1  UNL1        0.2483
      2 O          62.8366   91.6611    9.6339 O.2     1  UNL1       -0.2701
      3 N          62.8934   91.4024   11.9447 N.am    1  UNL1       -0.2945
      4 H          62.7343   92.4188   12.1288 H       1  UNL1        0.1501
      5 C          60.7121   87.1089   10.0441 C.ar    1  UNL1        0.0502
      6 C          62.1055   87.2474    9.9389 C.ar    1  UNL1        0.0148
      7 C          62.7094   88.4929   10.1225 C.ar    1  UNL1        0.0080
      8 C          61.9328   89.6227   10.4145 C.ar    1  UNL1        0.0808
      9 C          60.5420   89.4841   10.5544 C.ar    1  UNL1        0.1457
     10 F          59.7661   90.5575   10.8497 F       1  UNL1       -0.2040
     11 C          59.9373   88.2381   10.3614 C.ar    1  UNL1        0.0443
     12 N          58.9450   83.2732    9.8459 N.pl3   1  UNL1       -0.3017
     13 C          60.1024   83.4935    8.9737 C.3     1  UNL1        0.1123
     14 C          60.9321   84.6648    9.5032 C.3     1  UNL1        0.1122
     15 N          60.0868   85.8304    9.8128 N.pl3   1  UNL1       -0.3040
     16 C          58.6229   85.7317    9.7107 C.3     1  UNL1        0.1122
     17 C          58.1306   84.4065   10.3048 C.3     1  UNL1        0.1123
     18 C          57.9303   81.0386    9.5745 C.ar    1  UNL1        0.1519
     19 C          57.6605   79.7592   10.1002 C.ar    1  UNL1        0.0390
     20 C          58.1273   79.4032   11.3682 C.ar    1  UNL1        0.0146
     21 C          58.8671   80.3146   12.1251 C.ar    1  UNL1        0.0591
     22 CL         59.4544   79.8635   13.7151 Cl      1  UNL1       -0.0822
     23 C          59.1366   81.5871   11.6155 C.ar    1  UNL1        0.0290
     24 C          58.6665   81.9571   10.3467 C.ar    1  UNL1        0.0832
     25 C          58.1798   81.1050    7.0851 C.3     1  UNL1        0.2525
     26 O          57.4995   81.4222    8.2947 O.3     1  UNL1       -0.4702
     27 C          63.7844   90.6924   12.8739 C.3     1  UNL1        0.1535
     28 C          64.9281   91.5743   13.3172 C.2     1  UNL1        0.2443
     29 O          65.0264   92.7519   12.8762 O.2     1  UNL1       -0.2730
     30 N          65.8717   91.0716   14.2794 N.am    1  UNL1       -0.2825
     31 H          65.6578   90.1441   14.7117 H       1  UNL1        0.1549
     32 C          67.0085   91.7947   14.7908 C.ar    1  UNL1        0.0535
     33 C          68.1935   91.8176   14.0406 C.ar    1  UNL1        0.0353
     34 C          69.2965   92.5377   14.5044 C.ar    1  UNL1        0.1002
     35 N          69.2183   93.2275   15.6722 N.ar    1  UNL1       -0.2422
     36 C          68.0807   93.2406   16.4150 C.ar    1  UNL1        0.1002
     37 C          66.9548   92.5313   15.9888 C.ar    1  UNL1        0.0353
     38 C          62.9956   90.1020   14.0634 C.3     1  UNL1        0.0569
     39 C          62.6345   88.6614   13.8278 C.ar    1  UNL1       -0.0017
     40 C          63.5229   87.6182   13.5791 C.ar    1  UNL1        0.0681
     41 N          62.8525   86.4575   13.4020 N.ar    1  UNL1       -0.3523
     42 C          61.5494   86.7561   13.5402 C.ar    1  UNL1        0.0563
     43 C          60.4693   85.8797   13.4449 C.ar    1  UNL1        0.0170
     44 C          59.1777   86.4047   13.6303 C.ar    1  UNL1        0.0015
     45 C          58.9968   87.7775   13.9069 C.ar    1  UNL1        0.0001
     46 C          60.1052   88.6386   13.9992 C.ar    1  UNL1        0.0012
     47 C          61.3746   88.0913   13.8042 C.ar    1  UNL1        0.0131
     48 H          63.2675   85.5208   13.2000 H       1  UNL1        0.1660
@<TRIPOS>BOND
     1    25    26    1
     2    26    18    1
     3    18    19   ar
     4    19    20   ar
     5    20    21   ar
     6    21    22    1
     7    21    23   ar
     8    23    24   ar
     9    24    12    1
    10    12    13    1
    11    13    14    1
    12    14    15    1
    13    15     5    1
    14     5     6   ar
    15     6     7   ar
    16     7     8   ar
    17     8     1    1
    18     1     2    2
    19     1     3   am
    20     3    27    1
    21    27    38    1
    22    38    39    1
    23    39    40   ar
    24    40    41   ar
    25    41    42   ar
    26    42    43   ar
    27    43    44   ar
    28    44    45   ar
    29    45    46   ar
    30    46    47   ar
    31    27    28    1
    32    28    29    2
    33    28    30   am
    34    30    32    1
    35    32    33   ar
    36    33    34   ar
    37    34    35   ar
    38    35    36   ar
    39    36    37   ar
    40     8     9   ar
    41     9    10    1
    42     9    11   ar
    43    15    16    1
    44    16    17    1
    45    24    18   ar
    46    17    12    1
    47    11     5   ar
    48    47    39   ar
    49    37    32   ar
    50    47    42   ar
    51     3     4    1
    52    41    48    1
    53    30    31    1
@<TRIPOS>MOLECULE
*****
 48 53 0 0 0
SMALL
GASTEIGER

@<TRIPOS>ATOM
      1 C          62.3395   90.8152   11.3223 C.2     1  UNL1        0.2483
      2 O          62.2624   91.2942   10.1596 O.2     1  UNL1       -0.2701
      3 N          62.9705   91.5848   12.3560 N.am    1  UNL1       -0.2945
      4 H          62.8107   92.6174   12.3407 H       1  UNL1        0.1501
      5 C          60.5107   87.0211   12.1503 C.ar    1  UNL1        0.0502
      6 C          60.2388   88.1394   12.9547 C.ar    1  UNL1        0.0148
      7 C          60.8419   89.3695   12.6848 C.ar    1  UNL1        0.0080
      8 C          61.7274   89.5051   11.6066 C.ar    1  UNL1        0.0808
      9 C          61.9772   88.3986   10.7781 C.ar    1  UNL1        0.1457
     10 F          62.8194   88.5033    9.7193 F       1  UNL1       -0.2040
     11 C          61.3797   87.1649   11.0548 C.ar    1  UNL1        0.0443
     12 N          59.0259   83.0953   12.6592 N.pl3   1  UNL1       -0.3017
     13 C          58.0191   84.1439   12.4708 C.3     1  UNL1        0.1123
     14 C          58.6594   85.3591   11.7968 C.3     1  UNL1        0.1122
     15 N          59.9195   85.7419   12.4560 N.pl3   1  UNL1       -0.3040
     16 C          60.4700   84.9136   13.5395 C.3     1  UNL1        0.1122
     17 C          60.3558   83.4250   13.1895 C.3     1  UNL1        0.1123
     18 C          58.3598   81.5021   10.8944 C.ar    1  UNL1        0.1519
     19 C          58.0860   80.1773   10.4995 C.ar    1  UNL1        0.0390
     20 C          58.2149   79.1268   11.4119 C.ar    1  UNL1        0.0146
     21 C          58.6179   79.3828   12.7245 C.ar    1  UNL1        0.0591
     22 CL         58.7819   78.0614   13.8664 Cl      1  UNL1       -0.0822
     23 C          58.8877   80.6928   13.1278 C.ar    1  UNL1        0.0290
     24 C          58.7544   81.7554   12.2219 C.ar    1  UNL1        0.0832
     25 C          58.1293   82.4463    8.5881 C.3     1  UNL1        0.2525
     26 O          58.2657   82.5791    9.9989 O.3     1  UNL1       -0.4702
     27 C          64.1227   91.1040   13.1324 C.3     1  UNL1        0.1535
     28 C          65.4198   91.6469   12.5802 C.2     1  UNL1        0.2443
     29 O          66.4759   91.5818   13.2667 O.2     1  UNL1       -0.2730
     30 N          65.4438   92.1935   11.2500 N.am    1  UNL1       -0.2825
     31 H          64.5728   92.0914   10.6808 H       1  UNL1        0.1549
     32 C          66.6021   92.7470   10.5951 C.ar    1  UNL1        0.0535
     33 C          66.5985   94.1036   10.2388 C.ar    1  UNL1        0.0353
     34 C          67.7229   94.6660    9.6307 C.ar    1  UNL1        0.1002
     35 N          68.8243   93.9054    9.3982 N.ar    1  UNL1       -0.2422
     36 C          68.8678   92.5927    9.7461 C.ar    1  UNL1        0.1002
     37 C          67.7637   91.9897   10.3541 C.ar    1  UNL1        0.0353
     38 C          63.9472   91.4046   14.6373 C.3     1  UNL1        0.0569
     39 C          63.6474   90.1560   15.4199 C.ar    1  UNL1       -0.0017
     40 C          63.2550   90.0932   16.7546 C.ar    1  UNL1        0.0681
     41 N          63.0829   88.8080   17.1375 N.ar    1  UNL1       -0.3523
     42 C          63.3589   88.0581   16.0568 C.ar    1  UNL1        0.0563
     43 C          63.3170   86.6676   15.9629 C.ar    1  UNL1        0.0170
     44 C          63.6407   86.0817   14.7259 C.ar    1  UNL1        0.0015
     45 C          63.9919   86.8895   13.6222 C.ar    1  UNL1        0.0001
     46 C          64.0242   88.2903   13.7452 C.ar    1  UNL1        0.0012
     47 C          63.7047   88.8439   14.9863 C.ar    1  UNL1        0.0131
     48 H          62.7930   88.4710   18.0824 H       1  UNL1        0.1660
@<TRIPOS>BOND
     1    25    26    1
     2    26    18    1
     3    18    19   ar
     4    19    20   ar
     5    20    21   ar
     6    21    22    1
     7    21    23   ar
     8    23    24   ar
     9    24    12    1
    10    12    13    1
    11    13    14    1
    12    14    15    1
    13    15     5    1
    14     5     6   ar
    15     6     7   ar
    16     7     8   ar
    17     8     1    1
    18     1     2    2
    19     1     3   am
    20     3    27    1
    21    27    38    1
    22    38    39    1
    23    39    40   ar
    24    40    41   ar
    25    41    42   ar
    26    42    43   ar
    27    43    44   ar
    28    44    45   ar
    29    45    46   ar
    30    46    47   ar
    31    27    28    1
    32    28    29    2
    33    28    30   am
    34    30    32    1
    35    32    33   ar
    36    33    34   ar
    37    34    35   ar
    38    35    36   ar
    39    36    37   ar
    40     8     9   ar
    41     9    10    1
    42     9    11   ar
    43    15    16    1
    44    16    17    1
    45    24    18   ar
    46    17    12    1
    47    11     5   ar
    48    47    39   ar
    49    37    32   ar
    50    47    42   ar
    51     3     4    1
    52    41    48    1
    53    30    31    1
@<TRIPOS>MOLECULE
*****
 48 53 0 0 0
SMALL
GASTEIGER

@<TRIPOS>ATOM
      1 C          62.8533   90.9416   10.9640 C.2     1  UNL1        0.2483
      2 O          63.4783   91.5210   10.0361 O.2     1  UNL1       -0.2701
      3 N          62.8014   91.5528   12.2612 N.am    1  UNL1       -0.2945
      4 H          62.7182   92.5942   12.2900 H       1  UNL1        0.1501
      5 C          60.7994   87.2550   10.1792 C.ar    1  UNL1        0.0502
      6 C          62.1895   87.2740   10.3765 C.ar    1  UNL1        0.0148
      7 C          62.8534   88.4771   10.6246 C.ar    1  UNL1        0.0080
      8 C          62.1410   89.6830   10.6802 C.ar    1  UNL1        0.0808
      9 C          60.7459   89.6662   10.5173 C.ar    1  UNL1        0.1457
     10 F          60.0283   90.8162   10.5793 F       1  UNL1       -0.2040
     11 C          60.0833   88.4619   10.2599 C.ar    1  UNL1        0.0443
     12 N          58.8961   83.5014    9.7753 N.pl3   1  UNL1       -0.3017
     13 C          60.0235   83.7509    8.8723 C.3     1  UNL1        0.1123
     14 C          60.9137   84.8529    9.4502 C.3     1  UNL1        0.1122
     15 N          60.1219   86.0174    9.8815 N.pl3   1  UNL1       -0.3040
     16 C          58.6526   85.9720    9.8362 C.3     1  UNL1        0.1122
     17 C          58.1403   84.6217   10.3516 C.3     1  UNL1        0.1123
     18 C          57.9241   81.2775    9.3211 C.ar    1  UNL1        0.1519
     19 C          57.6283   79.9722    9.7622 C.ar    1  UNL1        0.0390
     20 C          58.0047   79.5564   11.0420 C.ar    1  UNL1        0.0146
     21 C          58.6791   80.4331   11.8948 C.ar    1  UNL1        0.0591
     22 CL         59.1530   79.9069   13.4996 Cl      1  UNL1       -0.0822
     23 C          58.9735   81.7308   11.4693 C.ar    1  UNL1        0.0290
     24 C          58.5937   82.1607   10.1892 C.ar    1  UNL1        0.0832
     25 C          57.9747   81.0748    6.8270 C.3     1  UNL1        0.2525
     26 O          57.5843   81.7219    8.0334 O.3     1  UNL1       -0.4702
     27 C          63.2767   90.8922   13.4856 C.3     1  UNL1        0.1535
     28 C          62.6197   89.5445   13.6708 C.2     1  UNL1        0.2443
     29 O          63.3273   88.5122   13.8281 O.2     1  UNL1       -0.2730
     30 N          61.1844   89.4616   13.7118 N.am    1  UNL1       -0.2825
     31 H          60.6583   90.3650   13.7171 H       1  UNL1        0.1549
     32 C          60.4222   88.2500   13.8792 C.ar    1  UNL1        0.0535
     33 C          59.0658   88.2450   13.5220 C.ar    1  UNL1        0.0353
     34 C          58.3176   87.0726   13.6483 C.ar    1  UNL1        0.1002
     35 N          58.9049   85.9346   14.1017 N.ar    1  UNL1       -0.2422
     36 C          60.2203   85.9000   14.4404 C.ar    1  UNL1        0.1002
     37 C          61.0046   87.0513   14.3318 C.ar    1  UNL1        0.0353
     38 C          64.8188   90.8087   13.5130 C.3     1  UNL1        0.0569
     39 C          65.3958   91.5982   14.6554 C.ar    1  UNL1       -0.0017
     40 C          64.7091   92.0381   15.7842 C.ar    1  UNL1        0.0681
     41 N          65.5351   92.7298   16.6012 N.ar    1  UNL1       -0.3523
     42 C          66.7379   92.7280   16.0017 C.ar    1  UNL1        0.0563
     43 C          67.9127   93.3166   16.4679 C.ar    1  UNL1        0.0170
     44 C          69.0702   93.1894   15.6791 C.ar    1  UNL1        0.0015
     45 C          69.0290   92.4821   14.4576 C.ar    1  UNL1        0.0001
     46 C          67.8300   91.8967   14.0126 C.ar    1  UNL1        0.0012
     47 C          66.6954   92.0445   14.8125 C.ar    1  UNL1        0.0131
     48 H          65.2849   93.1729   17.5130 H       1  UNL1        0.1660
@<TRIPOS>BOND
     1    25    26    1
     2    26    18    1
     3    18    19   ar
     4    19    20   ar
     5    20    21   ar
     6    21    22    1
     7    21    23   ar
     8    23    24   ar
     9    24    12    1
    10    12    13    1
    11    13    14    1
    12    14    15    1
    13    15     5    1
    14     5     6   ar
    15     6     7   ar
    16     7     8   ar
    17     8     1    1
    18     1     2    2
    19     1     3   am
    20     3    27    1
    21    27    38    1
    22    38    39    1
    23    39    40   ar
    24    40    41   ar
    25    41    42   ar
    26    42    43   ar
    27    43    44   ar
    28    44    45   ar
    29    45    46   ar
    30    46    47   ar
    31    27    28    1
    32    28    29    2
    33    28    30   am
    34    30    32    1
    35    32    33   ar
    36    33    34   ar
    37    34    35   ar
    38    35    36   ar
    39    36    37   ar
    40     8     9   ar
    41     9    10    1
    42     9    11   ar
    43    15    16    1
    44    16    17    1
    45    24    18   ar
    46    17    12    1
    47    11     5   ar
    48    47    39   ar
    49    37    32   ar
    50    47    42   ar
    51     3     4    1
    52    41    48    1
    53    30    31    1
@<TRIPOS>MOLECULE
*****
 48 53 0 0 0
SMALL
GASTEIGER

@<TRIPOS>ATOM
      1 C          63.3546   89.7573   15.5202 C.2     1  UNL1        0.2483
      2 O          62.8142   90.3091   16.5156 O.2     1  UNL1       -0.2701
      3 N          64.6964   90.1187   15.1624 N.am    1  UNL1       -0.2945
      4 H          65.3610   90.3048   15.9472 H       1  UNL1        0.1501
      5 C          61.1982   86.7491   13.3464 C.ar    1  UNL1        0.0502
      6 C          60.5518   87.9121   13.7950 C.ar    1  UNL1        0.0148
      7 C          61.2567   88.8842   14.5077 C.ar    1  UNL1        0.0080
      8 C          62.6199   88.7124   14.7852 C.ar    1  UNL1        0.0808
      9 C          63.2799   87.5672   14.3099 C.ar    1  UNL1        0.1457
     10 F          64.6019   87.3802   14.5517 F       1  UNL1       -0.2040
     11 C          62.5709   86.5900   13.6041 C.ar    1  UNL1        0.0443
     12 N          59.1281   83.4607   11.6801 N.pl3   1  UNL1       -0.3017
     13 C          60.2259   84.0041   10.8749 C.3     1  UNL1        0.1123
     14 C          61.1837   84.7907   11.7719 C.3     1  UNL1        0.1122
     15 N          60.4589   85.7274   12.6472 N.pl3   1  UNL1       -0.3040
     16 C          58.9883   85.7348   12.6678 C.3     1  UNL1        0.1122
     17 C          58.4434   84.3014   12.6715 C.3     1  UNL1        0.1123
     18 C          58.2436   81.5481   10.3932 C.ar    1  UNL1        0.1519
     19 C          57.9072   80.1809   10.3330 C.ar    1  UNL1        0.0390
     20 C          58.1223   79.3508   11.4362 C.ar    1  UNL1        0.0146
     21 C          58.6744   79.8711   12.6089 C.ar    1  UNL1        0.0591
     22 CL         58.9462   78.8257   13.9910 Cl      1  UNL1       -0.0822
     23 C          59.0076   81.2259   12.6811 C.ar    1  UNL1        0.0290
     24 C          58.7890   82.0694   11.5818 C.ar    1  UNL1        0.0832
     25 C          58.3490   82.0593    7.9455 C.3     1  UNL1        0.2525
     26 O          58.0654   82.4064    9.2966 O.3     1  UNL1       -0.4702
     27 C          65.0658   90.6487   13.8417 C.3     1  UNL1        0.1535
     28 C          63.8574   90.7709   12.9433 C.2     1  UNL1        0.2443
     29 O          63.1814   91.8356   12.9340 O.2     1  UNL1       -0.2730
     30 N          63.5178   89.6802   12.0694 N.am    1  UNL1       -0.2825
     31 H          64.1945   88.8848   12.0205 H       1  UNL1        0.1549
     32 C          62.3975   89.6538   11.1632 C.ar    1  UNL1        0.0535
     33 C          62.3223   88.6326   10.2045 C.ar    1  UNL1        0.0353
     34 C          61.2296   88.5722    9.3370 C.ar    1  UNL1        0.1002
     35 N          60.2332   89.4909    9.4306 N.ar    1  UNL1       -0.2422
     36 C          60.2660   90.4828   10.3586 C.ar    1  UNL1        0.1002
     37 C          61.3424   90.5815   11.2442 C.ar    1  UNL1        0.0353
     38 C          65.8456   91.9758   13.9702 C.3     1  UNL1        0.0569
     39 C          66.9660   92.0586   12.9707 C.ar    1  UNL1       -0.0017
     40 C          68.2517   91.5472   13.1283 C.ar    1  UNL1        0.0681
     41 N          69.0040   91.8130   12.0368 N.ar    1  UNL1       -0.3523
     42 C          68.2054   92.4839   11.1893 C.ar    1  UNL1        0.0563
     43 C          68.5370   92.9702    9.9254 C.ar    1  UNL1        0.0170
     44 C          67.5402   93.6448    9.1977 C.ar    1  UNL1        0.0015
     45 C          66.2482   93.8135    9.7418 C.ar    1  UNL1        0.0001
     46 C          65.9410   93.3108   11.0191 C.ar    1  UNL1        0.0012
     47 C          66.9515   92.6514   11.7212 C.ar    1  UNL1        0.0131
     48 H          70.0028   91.5478   11.8867 H       1  UNL1        0.1660
@<TRIPOS>BOND
     1    25    26    1
     2    26    18    1
     3    18    19   ar
     4    19    20   ar
     5    20    21   ar
     6    21    22    1
     7    21    23   ar
     8    23    24   ar
     9    24    12    1
    10    12    13    1
    11    13    14    1
    12    14    15    1
    13    15     5    1
    14     5     6   ar
    15     6     7   ar
    16     7     8   ar
    17     8     1    1
    18     1     2    2
    19     1     3   am
    20     3    27    1
    21    27    38    1
    22    38    39    1
    23    39    40   ar
    24    40    41   ar
    25    41    42   ar
    26    42    43   ar
    27    43    44   ar
    28    44    45   ar
    29    45    46   ar
    30    46    47   ar
    31    27    28    1
    32    28    29    2
    33    28    30   am
    34    30    32    1
    35    32    33   ar
    36    33    34   ar
    37    34    35   ar
    38    35    36   ar
    39    36    37   ar
    40     8     9   ar
    41     9    10    1
    42     9    11   ar
    43    15    16    1
    44    16    17    1
    45    24    18   ar
    46    17    12    1
    47    11     5   ar
    48    47    39   ar
    49    37    32   ar
    50    47    42   ar
    51     3     4    1
    52    41    48    1
    53    30    31    1
@<TRIPOS>MOLECULE
*****
 48 53 0 0 0
SMALL
GASTEIGER

@<TRIPOS>ATOM
      1 C          63.2013   90.0630   15.1228 C.2     1  UNL1        0.2483
      2 O          62.9255   90.6053   16.2260 O.2     1  UNL1       -0.2701
      3 N          64.2196   90.6414   14.2936 N.am    1  UNL1       -0.2945
      4 H          65.0527   91.0438   14.7796 H       1  UNL1        0.1501
      5 C          61.1814   86.4564   13.9658 C.ar    1  UNL1        0.0502
      6 C          60.4594   87.6342   14.2170 C.ar    1  UNL1        0.0148
      7 C          61.1211   88.8027   14.5998 C.ar    1  UNL1        0.0080
      8 C          62.5159   88.8162   14.7386 C.ar    1  UNL1        0.0808
      9 C          63.2467   87.6504   14.4558 C.ar    1  UNL1        0.1457
     10 F          64.5989   87.6373   14.5686 F       1  UNL1       -0.2040
     11 C          62.5822   86.4783   14.0814 C.ar    1  UNL1        0.0443
     12 N          59.3310   82.9616   12.4703 N.pl3   1  UNL1       -0.3017
     13 C          58.4382   83.9496   13.0830 C.3     1  UNL1        0.1123
     14 C          59.1161   85.3211   13.0939 C.3     1  UNL1        0.1122
     15 N          60.4926   85.2403   13.6116 N.pl3   1  UNL1       -0.3040
     16 C          61.0883   83.9340   13.9307 C.3     1  UNL1        0.1122
     17 C          60.7516   82.9088   12.8411 C.3     1  UNL1        0.1123
     18 C          58.3457   80.8276   11.7138 C.ar    1  UNL1        0.1519
     19 C          57.8894   80.0107   10.6600 C.ar    1  UNL1        0.0390
     20 C          57.9222   80.4734    9.3419 C.ar    1  UNL1        0.0146
     21 C          58.4077   81.7520    9.0588 C.ar    1  UNL1        0.0591
     22 CL         58.4444   82.3309    7.4034 Cl      1  UNL1       -0.0822
     23 C          58.8666   82.5685   10.0952 C.ar    1  UNL1        0.0290
     24 C          58.8449   82.1111   11.4211 C.ar    1  UNL1        0.0832
     25 C          59.2780   79.5679   13.6652 C.3     1  UNL1        0.2525
     26 O          58.3043   80.4064   13.0523 O.3     1  UNL1       -0.4702
     27 C          63.9828   91.0810   12.9108 C.3     1  UNL1        0.1535
     28 C          65.0443   92.0553   12.4568 C.2     1  UNL1        0.2443
     29 O          65.4609   92.9487   13.2438 O.2     1  UNL1       -0.2730
     30 N          65.6037   91.9219   11.1385 N.am    1  UNL1       -0.2825
     31 H          65.3204   91.0799   10.5874 H       1  UNL1        0.1549
     32 C          66.6167   92.7755   10.5707 C.ar    1  UNL1        0.0535
     33 C          67.8723   92.2302   10.2650 C.ar    1  UNL1        0.0353
     34 C          68.8572   93.0336    9.6864 C.ar    1  UNL1        0.1002
     35 N          68.5959   94.3368    9.4056 N.ar    1  UNL1       -0.2422
     36 C          67.3852   94.8925    9.6731 C.ar    1  UNL1        0.1002
     37 C          66.3725   94.1249   10.2544 C.ar    1  UNL1        0.0353
     38 C          63.8391   89.8742   11.9575 C.3     1  UNL1        0.0569
     39 C          62.4369   89.7503   11.4287 C.ar    1  UNL1       -0.0017
     40 C          61.4708   90.7531   11.4093 C.ar    1  UNL1        0.0681
     41 N          60.3185   90.2902   10.8745 N.ar    1  UNL1       -0.3523
     42 C          60.5481   89.0058   10.5521 C.ar    1  UNL1        0.0563
     43 C          59.6531   88.1109    9.9673 C.ar    1  UNL1        0.0170
     44 C          60.1044   86.8043    9.7076 C.ar    1  UNL1        0.0015
     45 C          61.4260   86.4267   10.0314 C.ar    1  UNL1        0.0001
     46 C          62.3081   87.3512   10.6193 C.ar    1  UNL1        0.0012
     47 C          61.8311   88.6387   10.8717 C.ar    1  UNL1        0.0131
     48 H          59.4325   90.8261   10.7401 H       1  UNL1        0.1660
@<TRIPOS>BOND
     1    25    26    1
     2    26    18    1
     3    18    19   ar
     4    19    20   ar
     5    20    21   ar
     6    21    22    1
     7    21    23   ar
     8    23    24   ar
     9    24    12    1
    10    12    13    1
    11    13    14    1
    12    14    15    1
    13    15     5    1
    14     5     6   ar
    15     6     7   ar
    16     7     8   ar
    17     8     1    1
    18     1     2    2
    19     1     3   am
    20     3    27    1
    21    27    38    1
    22    38    39    1
    23    39    40   ar
    24    40    41   ar
    25    41    42   ar
    26    42    43   ar
    27    43    44   ar
    28    44    45   ar
    29    45    46   ar
    30    46    47   ar
    31    27    28    1
    32    28    29    2
    33    28    30   am
    34    30    32    1
    35    32    33   ar
    36    33    34   ar
    37    34    35   ar
    38    35    36   ar
    39    36    37   ar
    40     8     9   ar
    41     9    10    1
    42     9    11   ar
    43    15    16    1
    44    16    17    1
    45    24    18   ar
    46    17    12    1
    47    11     5   ar
    48    47    39   ar
    49    37    32   ar
    50    47    42   ar
    51     3     4    1
    52    41    48    1
    53    30    31    1
@<TRIPOS>MOLECULE
*****
 48 53 0 0 0
SMALL
GASTEIGER

@<TRIPOS>ATOM
      1 C          62.4921   89.3716   15.5252 C.2     1  UNL1        0.2483
      2 O          61.9621   89.7259   16.6119 O.2     1  UNL1       -0.2701
      3 N          63.7189   89.9896   15.1105 N.am    1  UNL1       -0.2945
      4 H          64.4131   90.2116   15.8596 H       1  UNL1        0.1501
      5 C          60.6780   86.2568   13.1944 C.ar    1  UNL1        0.0502
      6 C          59.9691   87.4297   13.5002 C.ar    1  UNL1        0.0148
      7 C          60.5619   88.4367   14.2646 C.ar    1  UNL1        0.0080
      8 C          61.8734   88.2906   14.7375 C.ar    1  UNL1        0.0808
      9 C          62.5994   87.1346   14.4065 C.ar    1  UNL1        0.1457
     10 F          63.8752   86.9715   14.8389 F       1  UNL1       -0.2040
     11 C          62.0017   86.1228   13.6485 C.ar    1  UNL1        0.0443
     12 N          58.8845   82.8815   11.3874 N.pl3   1  UNL1       -0.3017
     13 C          60.0734   83.4144   10.7157 C.3     1  UNL1        0.1123
     14 C          60.8947   84.2460   11.7029 C.3     1  UNL1        0.1122
     15 N          60.0496   85.2004   12.4405 N.pl3   1  UNL1       -0.3040
     16 C          58.5894   85.1853   12.2660 C.3     1  UNL1        0.1122
     17 C          58.0648   83.7444   12.2487 C.3     1  UNL1        0.1123
     18 C          58.0180   80.9489   10.1181 C.ar    1  UNL1        0.1519
     19 C          57.7134   79.5741   10.0637 C.ar    1  UNL1        0.0390
     20 C          57.9730   78.7486   11.1608 C.ar    1  UNL1        0.0146
     21 C          58.5383   79.2813   12.3216 C.ar    1  UNL1        0.0591
     22 CL         58.8659   78.2417   13.6959 Cl      1  UNL1       -0.0822
     23 C          58.8402   80.6436   12.3881 C.ar    1  UNL1        0.0290
     24 C          58.5769   81.4824   11.2950 C.ar    1  UNL1        0.0832
     25 C          58.3865   81.6434    7.7420 C.3     1  UNL1        0.2525
     26 O          57.7948   81.8034    9.0269 O.3     1  UNL1       -0.4702
     27 C          63.8752   90.6976   13.8316 C.3     1  UNL1        0.1535
     28 C          65.0857   91.6012   13.8504 C.2     1  UNL1        0.2443
     29 O          65.1130   92.6371   13.1313 O.2     1  UNL1       -0.2730
     30 N          66.1810   91.2912   14.7296 N.am    1  UNL1       -0.2825
     31 H          66.0403   90.5019   15.4005 H       1  UNL1        0.1549
     32 C          67.3957   92.0569   14.8526 C.ar    1  UNL1        0.0535
     33 C          67.5025   93.0017   15.8838 C.ar    1  UNL1        0.0353
     34 C          68.6827   93.7322   16.0383 C.ar    1  UNL1        0.1002
     35 N          69.7314   93.5182   15.2016 N.ar    1  UNL1       -0.2422
     36 C          69.6679   92.5989   14.2032 C.ar    1  UNL1        0.1002
     37 C          68.5049   91.8483   14.0118 C.ar    1  UNL1        0.0353
     38 C          63.8913   89.7098   12.6442 C.3     1  UNL1        0.0569
     39 C          62.6625   89.8520   11.7891 C.ar    1  UNL1       -0.0017
     40 C          61.7816   90.9305   11.7834 C.ar    1  UNL1        0.0681
     41 N          60.7797   90.7189   10.9005 N.ar    1  UNL1       -0.3523
     42 C          61.0209   89.5189   10.3453 C.ar    1  UNL1        0.0563
     43 C          60.2596   88.8720    9.3728 C.ar    1  UNL1        0.0170
     44 C          60.6984   87.6136    8.9232 C.ar    1  UNL1        0.0015
     45 C          61.8766   87.0380    9.4472 C.ar    1  UNL1        0.0001
     46 C          62.6262   87.7143   10.4266 C.ar    1  UNL1        0.0012
     47 C          62.1634   88.9585   10.8589 C.ar    1  UNL1        0.0131
     48 H          59.9826   91.3611   10.6942 H       1  UNL1        0.1660
@<TRIPOS>BOND
     1    25    26    1
     2    26    18    1
     3    18    19   ar
     4    19    20   ar
     5    20    21   ar
     6    21    22    1
     7    21    23   ar
     8    23    24   ar
     9    24    12    1
    10    12    13    1
    11    13    14    1
    12    14    15    1
    13    15     5    1
    14     5     6   ar
    15     6     7   ar
    16     7     8   ar
    17     8     1    1
    18     1     2    2
    19     1     3   am
    20     3    27    1
    21    27    38    1
    22    38    39    1
    23    39    40   ar
    24    40    41   ar
    25    41    42   ar
    26    42    43   ar
    27    43    44   ar
    28    44    45   ar
    29    45    46   ar
    30    46    47   ar
    31    27    28    1
    32    28    29    2
    33    28    30   am
    34    30    32    1
    35    32    33   ar
    36    33    34   ar
    37    34    35   ar
    38    35    36   ar
    39    36    37   ar
    40     8     9   ar
    41     9    10    1
    42     9    11   ar
    43    15    16    1
    44    16    17    1
    45    24    18   ar
    46    17    12    1
    47    11     5   ar
    48    47    39   ar
    49    37    32   ar
    50    47    42   ar
    51     3     4    1
    52    41    48    1
    53    30    31    1
