@<TRIPOS>MOLECULE
*****
 51 56 0 0 0
SMALL
GASTEIGER

@<TRIPOS>ATOM
      1 N           9.4018   78.2203   23.9491 N.am    1  UNL1       -0.2945
      2 C          10.6175   78.2810   24.7111 C.2     1  UNL1        0.2483
      3 O          11.0324   77.2526   25.3128 O.2     1  UNL1       -0.2701
      4 H           8.9085   79.1148   23.7360 H       1  UNL1        0.1501
      5 C          11.3758   79.5472   24.8306 C.ar    1  UNL1        0.0808
      6 C          10.6821   80.7620   24.9637 C.ar    1  UNL1        0.0080
      7 C          11.3772   81.9690   25.0736 C.ar    1  UNL1        0.0148
      8 C          12.7804   81.9839   25.0653 C.ar    1  UNL1        0.0502
      9 C          13.4761   80.7719   24.9474 C.ar    1  UNL1        0.0443
     10 C          12.7845   79.5619   24.8352 C.ar    1  UNL1        0.1457
     11 F          13.4969   78.4095   24.7770 F       1  UNL1       -0.2040
     12 N          13.5027   83.2247   25.1768 N.pl3   1  UNL1       -0.3040
     13 C          14.1933   83.5747   26.4238 C.3     1  UNL1        0.1122
     14 C          14.0516   85.0726   26.6964 C.3     1  UNL1        0.1122
     15 N          14.3845   85.8390   25.4895 N.pl3   1  UNL1       -0.3041
     16 C          13.6940   85.4890   24.2426 C.3     1  UNL1        0.1122
     17 C          13.8358   83.9913   23.9700 C.3     1  UNL1        0.1122
     18 C          15.1037   87.0815   25.6019 C.ar    1  UNL1        0.0479
     19 C          14.7104   88.0533   26.5359 C.ar    1  UNL1        0.0145
     20 C          15.4208   89.2497   26.6490 C.ar    1  UNL1        0.0012
     21 C          16.5221   89.4937   25.8253 C.ar    1  UNL1        0.0039
     22 C          16.9132   88.5475   24.8624 C.ar    1  UNL1        0.0726
     23 C          16.2099   87.3327   24.7734 C.ar    1  UNL1        0.0184
     24 C          18.1282   88.7886   24.0020 C.3     1  UNL1        0.4186
     25 F          19.0871   89.5058   24.6966 F       1  UNL1       -0.1659
     26 F          18.6639   87.5728   23.6206 F       1  UNL1       -0.1659
     27 F          17.7882   89.5072   22.8689 F       1  UNL1       -0.1659
     28 C           8.7081   76.9560   23.6826 C.3     1  UNL1        0.1535
     29 C           7.2572   77.0787   24.0601 C.2     1  UNL1        0.2443
     30 O           6.9432   77.2905   25.2634 O.2     1  UNL1       -0.2730
     31 N           6.2471   77.0455   23.0397 N.am    1  UNL1       -0.2825
     32 H           6.5485   77.2000   22.0508 H       1  UNL1        0.1549
     33 C           4.8398   76.9170   23.3046 C.ar    1  UNL1        0.0535
     34 C           3.8768   77.2019   22.3214 C.ar    1  UNL1        0.0353
     35 C           2.5195   77.0871   22.6328 C.ar    1  UNL1        0.1002
     36 N           2.1348   76.7159   23.8825 N.ar    1  UNL1       -0.2422
     37 C           3.0436   76.4521   24.8581 C.ar    1  UNL1        0.1002
     38 C           4.4105   76.5561   24.5892 C.ar    1  UNL1        0.0353
     39 C           8.8402   76.5501   22.2028 C.3     1  UNL1        0.0569
     40 C           9.2865   73.1912   22.3743 C.ar    1  UNL1       -0.0211
     41 C           9.8014   71.8766   22.2830 C.ar    1  UNL1       -0.0042
     42 C          11.1166   71.6369   21.8482 C.ar    1  UNL1        0.0012
     43 C          11.9557   72.7032   21.5098 C.ar    1  UNL1        0.0169
     44 C          11.4506   73.9957   21.6121 C.ar    1  UNL1        0.0560
     45 N          12.1217   75.1229   21.3311 N.ar    1  UNL1       -0.3523
     46 C          11.2638   76.1352   21.5527 C.ar    1  UNL1        0.0681
     47 C          10.0319   75.6537   21.9830 C.ar    1  UNL1       -0.0020
     48 C          10.1556   74.2569   22.0230 C.ar    1  UNL1        0.0091
     49 H          13.1073   75.2038   20.9951 H       1  UNL1        0.1660
     50 C           6.8789   73.5080   21.7767 C.3     1  UNL1        0.0050
     51 C           7.8894   73.3713   22.9129 C.3     1  UNL1        0.0264
@<TRIPOS>BOND
     1    50    51    1
     2    51    40    1
     3    40    41   ar
     4    41    42   ar
     5    42    43   ar
     6    43    44   ar
     7    44    45   ar
     8    45    46   ar
     9    46    47   ar
    10    47    39    1
    11    39    28    1
    12    28     1    1
    13     1     2   am
    14     2     3    2
    15     2     5    1
    16     5     6   ar
    17     6     7   ar
    18     7     8   ar
    19     8    12    1
    20    12    13    1
    21    13    14    1
    22    14    15    1
    23    15    18    1
    24    18    19   ar
    25    19    20   ar
    26    20    21   ar
    27    21    22   ar
    28    22    24    1
    29    24    25    1
    30    24    26    1
    31    24    27    1
    32    22    23   ar
    33    15    16    1
    34    16    17    1
    35     8     9   ar
    36     9    10   ar
    37    10    11    1
    38    28    29    1
    39    29    30    2
    40    29    31   am
    41    31    33    1
    42    33    34   ar
    43    34    35   ar
    44    35    36   ar
    45    36    37   ar
    46    37    38   ar
    47    47    48   ar
    48    48    40   ar
    49    48    44   ar
    50    10     5   ar
    51    38    33   ar
    52    17    12    1
    53    23    18   ar
    54    45    49    1
    55     1     4    1
    56    31    32    1
@<TRIPOS>MOLECULE
*****
 51 56 0 0 0
SMALL
GASTEIGER

@<TRIPOS>ATOM
      1 N           9.2268   77.9803   24.6947 N.am    1  UNL1       -0.2945
      2 C          10.6622   78.0098   24.7264 C.2     1  UNL1        0.2483
      3 O          11.3126   76.9296   24.6846 O.2     1  UNL1       -0.2701
      4 H           8.7088   78.8145   25.0478 H       1  UNL1        0.1501
      5 C          11.3924   79.2926   24.8435 C.ar    1  UNL1        0.0808
      6 C          10.6730   80.4980   24.9054 C.ar    1  UNL1        0.0080
      7 C          11.3415   81.7202   25.0116 C.ar    1  UNL1        0.0148
      8 C          12.7431   81.7604   25.0709 C.ar    1  UNL1        0.0502
      9 C          13.4638   80.5582   25.0244 C.ar    1  UNL1        0.0443
     10 C          12.7988   79.3330   24.9161 C.ar    1  UNL1        0.1457
     11 F          13.5324   78.1925   24.9280 F       1  UNL1       -0.2040
     12 N          13.4381   83.0168   25.1791 N.pl3   1  UNL1       -0.3040
     13 C          14.1121   83.3897   26.4286 C.3     1  UNL1        0.1122
     14 C          13.9369   84.8860   26.6899 C.3     1  UNL1        0.1122
     15 N          14.2624   85.6512   25.4802 N.pl3   1  UNL1       -0.3041
     16 C          13.5886   85.2783   24.2308 C.3     1  UNL1        0.1122
     17 C          13.7640   83.7821   23.9696 C.3     1  UNL1        0.1122
     18 C          14.9545   86.9093   25.5893 C.ar    1  UNL1        0.0479
     19 C          14.5525   87.8669   26.5343 C.ar    1  UNL1        0.0145
     20 C          15.2369   89.0787   26.6439 C.ar    1  UNL1        0.0012
     21 C          16.3202   89.3523   25.8058 C.ar    1  UNL1        0.0039
     22 C          16.7188   88.4205   24.8320 C.ar    1  UNL1        0.0726
     23 C          16.0423   87.1904   24.7463 C.ar    1  UNL1        0.0184
     24 C          17.9152   88.6942   23.9556 C.3     1  UNL1        0.4186
     25 F          18.5565   87.5149   23.6178 F       1  UNL1       -0.1659
     26 F          17.4971   89.3263   22.7996 F       1  UNL1       -0.1659
     27 F          18.8238   89.5073   24.6110 F       1  UNL1       -0.1659
     28 C           8.4755   76.7496   24.4271 C.3     1  UNL1        0.1535
     29 C           9.2620   75.8603   23.5034 C.2     1  UNL1        0.2443
     30 O           9.3942   76.1840   22.2913 O.2     1  UNL1       -0.2730
     31 N           9.9313   74.7011   24.0239 N.am    1  UNL1       -0.2825
     32 H          10.0759   74.6454   25.0577 H       1  UNL1        0.1549
     33 C          10.5039   73.6672   23.2051 C.ar    1  UNL1        0.0535
     34 C          11.8569   73.6938   22.8254 C.ar    1  UNL1        0.0353
     35 C          12.3628   72.6801   22.0077 C.ar    1  UNL1        0.1002
     36 N          11.5475   71.6837   21.5718 N.ar    1  UNL1       -0.2422
     37 C          10.2313   71.6426   21.9081 C.ar    1  UNL1        0.1002
     38 C           9.6848   72.6372   22.7228 C.ar    1  UNL1        0.0353
     39 C           8.1480   76.0025   25.7335 C.3     1  UNL1        0.0569
     40 C           9.6741   77.4398   28.4010 C.ar    1  UNL1       -0.0211
     41 C           9.9944   78.2443   29.5198 C.ar    1  UNL1       -0.0042
     42 C           9.0553   79.1323   30.0726 C.ar    1  UNL1        0.0012
     43 C           7.7686   79.2276   29.5335 C.ar    1  UNL1        0.0169
     44 C           7.4522   78.4264   28.4406 C.ar    1  UNL1        0.0560
     45 N           6.2682   78.3937   27.8106 N.ar    1  UNL1       -0.3523
     46 C           6.3987   77.4997   26.8137 C.ar    1  UNL1        0.0681
     47 C           7.6768   76.9512   26.8058 C.ar    1  UNL1       -0.0020
     48 C           8.3632   77.5557   27.8695 C.ar    1  UNL1        0.0091
     49 H           5.4175   78.9560   28.0358 H       1  UNL1        0.1660
     50 C          10.5411   75.1004   28.5733 C.3     1  UNL1        0.0050
     51 C          10.7122   76.4635   27.9073 C.3     1  UNL1        0.0264
@<TRIPOS>BOND
     1    50    51    1
     2    51    40    1
     3    40    41   ar
     4    41    42   ar
     5    42    43   ar
     6    43    44   ar
     7    44    45   ar
     8    45    46   ar
     9    46    47   ar
    10    47    39    1
    11    39    28    1
    12    28     1    1
    13     1     2   am
    14     2     3    2
    15     2     5    1
    16     5     6   ar
    17     6     7   ar
    18     7     8   ar
    19     8    12    1
    20    12    13    1
    21    13    14    1
    22    14    15    1
    23    15    18    1
    24    18    19   ar
    25    19    20   ar
    26    20    21   ar
    27    21    22   ar
    28    22    24    1
    29    24    25    1
    30    24    26    1
    31    24    27    1
    32    22    23   ar
    33    15    16    1
    34    16    17    1
    35     8     9   ar
    36     9    10   ar
    37    10    11    1
    38    28    29    1
    39    29    30    2
    40    29    31   am
    41    31    33    1
    42    33    34   ar
    43    34    35   ar
    44    35    36   ar
    45    36    37   ar
    46    37    38   ar
    47    47    48   ar
    48    48    40   ar
    49    48    44   ar
    50    10     5   ar
    51    38    33   ar
    52    17    12    1
    53    23    18   ar
    54    45    49    1
    55     1     4    1
    56    31    32    1
@<TRIPOS>MOLECULE
*****
 51 56 0 0 0
SMALL
GASTEIGER

@<TRIPOS>ATOM
      1 N          13.2895   83.9657   24.1284 N.am    1  UNL1       -0.2945
      2 C          13.6821   82.6252   24.4617 C.2     1  UNL1        0.2483
      3 O          14.8950   82.2882   24.3789 O.2     1  UNL1       -0.2701
      4 H          12.2890   84.1411   23.8890 H       1  UNL1        0.1501
      5 C          12.6753   81.6186   24.8688 C.ar    1  UNL1        0.0808
      6 C          11.3678   82.0300   25.1778 C.ar    1  UNL1        0.0080
      7 C          10.4029   81.0979   25.5684 C.ar    1  UNL1        0.0148
      8 C          10.7234   79.7338   25.6454 C.ar    1  UNL1        0.0502
      9 C          12.0235   79.3178   25.3234 C.ar    1  UNL1        0.0443
     10 C          12.9925   80.2474   24.9340 C.ar    1  UNL1        0.1457
     11 F          14.2212   79.7955   24.5804 F       1  UNL1       -0.2040
     12 N           9.7340   78.7683   26.0485 N.pl3   1  UNL1       -0.3040
     13 C           9.3136   78.6746   27.4518 C.3     1  UNL1        0.1122
     14 C           9.0920   77.2107   27.8337 C.3     1  UNL1        0.1122
     15 N           8.2611   76.5454   26.8229 N.pl3   1  UNL1       -0.3041
     16 C           8.6815   76.6391   25.4198 C.3     1  UNL1        0.1122
     17 C           8.9029   78.1030   25.0379 C.3     1  UNL1        0.1122
     18 C           7.2743   75.5774   27.2263 C.ar    1  UNL1        0.0479
     19 C           6.9373   74.5061   26.3835 C.ar    1  UNL1        0.0145
     20 C           5.9899   73.5636   26.7871 C.ar    1  UNL1        0.0012
     21 C           5.3615   73.6859   28.0285 C.ar    1  UNL1        0.0039
     22 C           5.6614   74.7681   28.8736 C.ar    1  UNL1        0.0726
     23 C           6.6372   75.6981   28.4723 C.ar    1  UNL1        0.0184
     24 C           5.0173   74.8788   30.2328 C.3     1  UNL1        0.4186
     25 F           4.0969   75.9125   30.2573 F       1  UNL1       -0.1659
     26 F           4.3707   73.6932   30.5276 F       1  UNL1       -0.1659
     27 F           5.9708   75.1265   31.2053 F       1  UNL1       -0.1659
     28 C          14.2689   85.0262   23.8700 C.3     1  UNL1        0.1535
     29 C          14.5914   85.0786   22.4018 C.2     1  UNL1        0.2443
     30 O          15.7105   84.6618   21.9954 O.2     1  UNL1       -0.2730
     31 N          13.5941   85.5155   21.4652 N.am    1  UNL1       -0.2825
     32 H          12.5996   85.5355   21.7866 H       1  UNL1        0.1549
     33 C          13.8651   85.8263   20.0878 C.ar    1  UNL1        0.0535
     34 C          13.7207   87.1310   19.5855 C.ar    1  UNL1        0.0353
     35 C          13.9711   87.3803   18.2337 C.ar    1  UNL1        0.1002
     36 N          14.3380   86.3644   17.4086 N.ar    1  UNL1       -0.2422
     37 C          14.4676   85.0900   17.8629 C.ar    1  UNL1        0.1002
     38 C          14.2254   84.7971   19.2072 C.ar    1  UNL1        0.0353
     39 C          13.7475   86.3939   24.3492 C.3     1  UNL1        0.0569
     40 C          16.5468   88.3107   24.3635 C.ar    1  UNL1       -0.0211
     41 C          17.6353   89.1335   24.7374 C.ar    1  UNL1       -0.0042
     42 C          17.8967   89.4290   26.0866 C.ar    1  UNL1        0.0012
     43 C          17.0890   88.8977   27.0970 C.ar    1  UNL1        0.0169
     44 C          16.0264   88.0790   26.7273 C.ar    1  UNL1        0.0560
     45 N          15.1630   87.4894   27.5681 N.ar    1  UNL1       -0.3523
     46 C          14.2971   86.8060   26.7980 C.ar    1  UNL1        0.0681
     47 C          14.6094   86.9554   25.4509 C.ar    1  UNL1       -0.0020
     48 C          15.7395   87.7854   25.4060 C.ar    1  UNL1        0.0091
     49 H          15.1524   87.5549   28.6103 H       1  UNL1        0.1660
     50 C          15.5921   89.0857   22.1860 C.3     1  UNL1        0.0050
     51 C          16.3715   87.9850   22.9015 C.3     1  UNL1        0.0264
@<TRIPOS>BOND
     1    50    51    1
     2    51    40    1
     3    40    41   ar
     4    41    42   ar
     5    42    43   ar
     6    43    44   ar
     7    44    45   ar
     8    45    46   ar
     9    46    47   ar
    10    47    39    1
    11    39    28    1
    12    28     1    1
    13     1     2   am
    14     2     3    2
    15     2     5    1
    16     5     6   ar
    17     6     7   ar
    18     7     8   ar
    19     8    12    1
    20    12    13    1
    21    13    14    1
    22    14    15    1
    23    15    18    1
    24    18    19   ar
    25    19    20   ar
    26    20    21   ar
    27    21    22   ar
    28    22    24    1
    29    24    25    1
    30    24    26    1
    31    24    27    1
    32    22    23   ar
    33    15    16    1
    34    16    17    1
    35     8     9   ar
    36     9    10   ar
    37    10    11    1
    38    28    29    1
    39    29    30    2
    40    29    31   am
    41    31    33    1
    42    33    34   ar
    43    34    35   ar
    44    35    36   ar
    45    36    37   ar
    46    37    38   ar
    47    47    48   ar
    48    48    40   ar
    49    48    44   ar
    50    10     5   ar
    51    38    33   ar
    52    17    12    1
    53    23    18   ar
    54    45    49    1
    55     1     4    1
    56    31    32    1
@<TRIPOS>MOLECULE
*****
 51 56 0 0 0
SMALL
GASTEIGER

@<TRIPOS>ATOM
      1 N          13.1264   84.8077   24.2014 N.am    1  UNL1       -0.2945
      2 C          13.5668   83.4500   24.0439 C.2     1  UNL1        0.2483
      3 O          14.5639   83.1950   23.3142 O.2     1  UNL1       -0.2701
      4 H          12.1476   84.9742   24.5227 H       1  UNL1        0.1501
      5 C          12.8436   82.3367   24.6995 C.ar    1  UNL1        0.0808
      6 C          11.4755   82.4729   24.9898 C.ar    1  UNL1        0.0080
      7 C          10.7742   81.4369   25.6119 C.ar    1  UNL1        0.0148
      8 C          11.4246   80.2387   25.9449 C.ar    1  UNL1        0.0502
      9 C          12.7866   80.0936   25.6432 C.ar    1  UNL1        0.0443
     10 C          13.4925   81.1286   25.0225 C.ar    1  UNL1        0.1457
     11 F          14.7942   80.9254   24.7011 F       1  UNL1       -0.2040
     12 N          10.7080   79.1677   26.5874 N.pl3   1  UNL1       -0.3040
     13 C           9.3820   79.4041   27.1709 C.3     1  UNL1        0.1122
     14 C           9.2358   78.6143   28.4720 C.3     1  UNL1        0.1122
     15 N           9.6575   77.2231   28.2683 N.pl3   1  UNL1       -0.3041
     16 C          10.9833   76.9868   27.6849 C.3     1  UNL1        0.1122
     17 C          11.1293   77.7764   26.3837 C.3     1  UNL1        0.1122
     18 C           8.9426   76.1528   28.9139 C.ar    1  UNL1        0.0479
     19 C           9.5087   74.8715   29.0113 C.ar    1  UNL1        0.0145
     20 C           8.8158   73.8422   29.6510 C.ar    1  UNL1        0.0012
     21 C           7.5484   74.0766   30.1891 C.ar    1  UNL1        0.0039
     22 C           6.9506   75.3435   30.0746 C.ar    1  UNL1        0.0726
     23 C           7.6663   76.3828   29.4536 C.ar    1  UNL1        0.0184
     24 C           5.6015   75.6117   30.6931 C.3     1  UNL1        0.4186
     25 F           4.9515   76.6370   30.0279 F       1  UNL1       -0.1659
     26 F           4.8310   74.4666   30.6177 F       1  UNL1       -0.1659
     27 F           5.7381   75.9769   32.0213 F       1  UNL1       -0.1659
     28 C          13.9017   85.9452   23.6958 C.3     1  UNL1        0.1535
     29 C          13.1162   86.6703   22.6376 C.2     1  UNL1        0.2443
     30 O          11.8725   86.8249   22.7825 O.2     1  UNL1       -0.2730
     31 N          13.7969   87.2594   21.5186 N.am    1  UNL1       -0.2825
     32 H          14.8299   87.3993   21.5957 H       1  UNL1        0.1549
     33 C          13.1329   87.7613   20.3463 C.ar    1  UNL1        0.0535
     34 C          11.8528   88.3373   20.4153 C.ar    1  UNL1        0.0353
     35 C          11.2364   88.7884   19.2453 C.ar    1  UNL1        0.1002
     36 N          11.8660   88.6575   18.0478 N.ar    1  UNL1       -0.2422
     37 C          13.0961   88.0880   17.9489 C.ar    1  UNL1        0.1002
     38 C          13.7470   87.6226   19.0940 C.ar    1  UNL1        0.0353
     39 C          14.2788   86.9116   24.8341 C.3     1  UNL1        0.0569
     40 C          16.2924   88.7993   26.8070 C.ar    1  UNL1       -0.0211
     41 C          17.3960   89.4666   27.3888 C.ar    1  UNL1       -0.0042
     42 C          18.6599   89.4595   26.7735 C.ar    1  UNL1        0.0012
     43 C          18.8501   88.8008   25.5547 C.ar    1  UNL1        0.0169
     44 C          17.7602   88.1555   24.9786 C.ar    1  UNL1        0.0560
     45 N          17.7720   87.4844   23.8170 N.ar    1  UNL1       -0.3523
     46 C          16.5238   87.0135   23.6433 C.ar    1  UNL1        0.0681
     47 C          15.7024   87.3886   24.7012 C.ar    1  UNL1       -0.0020
     48 C          16.5103   88.1355   25.5716 C.ar    1  UNL1        0.0091
     49 H          18.5862   87.3417   23.1787 H       1  UNL1        0.1660
     50 C          14.7573   87.7725   28.4932 C.3     1  UNL1        0.0050
     51 C          14.9537   88.9089   27.4927 C.3     1  UNL1        0.0264
@<TRIPOS>BOND
     1    50    51    1
     2    51    40    1
     3    40    41   ar
     4    41    42   ar
     5    42    43   ar
     6    43    44   ar
     7    44    45   ar
     8    45    46   ar
     9    46    47   ar
    10    47    39    1
    11    39    28    1
    12    28     1    1
    13     1     2   am
    14     2     3    2
    15     2     5    1
    16     5     6   ar
    17     6     7   ar
    18     7     8   ar
    19     8    12    1
    20    12    13    1
    21    13    14    1
    22    14    15    1
    23    15    18    1
    24    18    19   ar
    25    19    20   ar
    26    20    21   ar
    27    21    22   ar
    28    22    24    1
    29    24    25    1
    30    24    26    1
    31    24    27    1
    32    22    23   ar
    33    15    16    1
    34    16    17    1
    35     8     9   ar
    36     9    10   ar
    37    10    11    1
    38    28    29    1
    39    29    30    2
    40    29    31   am
    41    31    33    1
    42    33    34   ar
    43    34    35   ar
    44    35    36   ar
    45    36    37   ar
    46    37    38   ar
    47    47    48   ar
    48    48    40   ar
    49    48    44   ar
    50    10     5   ar
    51    38    33   ar
    52    17    12    1
    53    23    18   ar
    54    45    49    1
    55     1     4    1
    56    31    32    1
@<TRIPOS>MOLECULE
*****
 51 56 0 0 0
SMALL
GASTEIGER

@<TRIPOS>ATOM
      1 N          10.0001   77.0433   25.9874 N.am    1  UNL1       -0.2945
      2 C           9.8972   75.9862   25.0208 C.2     1  UNL1        0.2483
      3 O          10.9134   75.2941   24.7382 O.2     1  UNL1       -0.2701
      4 H           9.2754   77.7940   25.9757 H       1  UNL1        0.1501
      5 C           8.6194   75.7184   24.3222 C.ar    1  UNL1        0.0808
      6 C           8.5022   76.0110   22.9528 C.ar    1  UNL1        0.0080
      7 C           7.3047   75.7705   22.2745 C.ar    1  UNL1        0.0148
      8 C           6.2041   75.2206   22.9496 C.ar    1  UNL1        0.0502
      9 C           6.3222   74.9137   24.3130 C.ar    1  UNL1        0.0443
     10 C           7.5182   75.1545   24.9960 C.ar    1  UNL1        0.1457
     11 F           7.6054   74.7933   26.3002 F       1  UNL1       -0.2040
     12 N           4.9666   74.9716   22.2566 N.pl3   1  UNL1       -0.3040
     13 C           4.8424   73.8311   21.3410 C.3     1  UNL1        0.1122
     14 C           3.9987   74.2247   20.1281 C.3     1  UNL1        0.1122
     15 N           2.7658   74.8906   20.5654 N.pl3   1  UNL1       -0.3041
     16 C           2.8900   76.0311   21.4810 C.3     1  UNL1        0.1122
     17 C           3.7335   75.6373   22.6939 C.3     1  UNL1        0.1122
     18 C           1.5293   74.6440   19.8699 C.ar    1  UNL1        0.0479
     19 C           0.7982   75.7055   19.3129 C.ar    1  UNL1        0.0145
     20 C          -0.3926   75.4575   18.6278 C.ar    1  UNL1        0.0012
     21 C          -0.8717   74.1516   18.5012 C.ar    1  UNL1        0.0039
     22 C          -0.1714   73.0783   19.0784 C.ar    1  UNL1        0.0726
     23 C           1.0418   73.3328   19.7428 C.ar    1  UNL1        0.0184
     24 C          -0.6627   71.6629   18.9056 C.3     1  UNL1        0.4186
     25 F          -0.6816   70.9982   20.1197 F       1  UNL1       -0.1659
     26 F          -1.9430   71.6863   18.3852 F       1  UNL1       -0.1659
     27 F           0.1624   70.9625   18.0426 F       1  UNL1       -0.1659
     28 C          11.2002   77.2396   26.8070 C.3     1  UNL1        0.1535
     29 C          12.1967   78.0846   26.0616 C.2     1  UNL1        0.2443
     30 O          11.8684   79.2406   25.6779 O.2     1  UNL1       -0.2730
     31 N          13.5384   77.6089   25.8721 N.am    1  UNL1       -0.2825
     32 H          13.8641   76.8178   26.4727 H       1  UNL1        0.1549
     33 C          14.4904   78.2189   24.9838 C.ar    1  UNL1        0.0535
     34 C          14.9398   79.5362   25.1787 C.ar    1  UNL1        0.0353
     35 C          15.8465   80.0955   24.2747 C.ar    1  UNL1        0.1002
     36 N          16.2790   79.3742   23.2069 N.ar    1  UNL1       -0.2422
     37 C          15.8472   78.1049   22.9834 C.ar    1  UNL1        0.1002
     38 C          14.9397   77.5085   23.8622 C.ar    1  UNL1        0.0353
     39 C          10.8513   77.8948   28.1565 C.3     1  UNL1        0.0569
     40 C           8.0595   76.2446   29.1531 C.ar    1  UNL1       -0.0211
     41 C           6.7433   75.9003   29.5414 C.ar    1  UNL1       -0.0042
     42 C           5.6963   76.8365   29.4806 C.ar    1  UNL1        0.0012
     43 C           5.9329   78.1338   29.0155 C.ar    1  UNL1        0.0169
     44 C           7.2258   78.4662   28.6228 C.ar    1  UNL1        0.0560
     45 N           7.6185   79.6596   28.1519 N.ar    1  UNL1       -0.3523
     46 C           8.9372   79.5510   27.9082 C.ar    1  UNL1        0.0681
     47 C           9.3944   78.2754   28.2222 C.ar    1  UNL1       -0.0020
     48 C           8.2759   77.5677   28.6871 C.ar    1  UNL1        0.0091
     49 H           7.0272   80.5091   28.0129 H       1  UNL1        0.1660
     50 C           8.5751   73.8926   29.8285 C.3     1  UNL1        0.0050
     51 C           9.1140   75.1669   29.1830 C.3     1  UNL1        0.0264
@<TRIPOS>BOND
     1    50    51    1
     2    51    40    1
     3    40    41   ar
     4    41    42   ar
     5    42    43   ar
     6    43    44   ar
     7    44    45   ar
     8    45    46   ar
     9    46    47   ar
    10    47    39    1
    11    39    28    1
    12    28     1    1
    13     1     2   am
    14     2     3    2
    15     2     5    1
    16     5     6   ar
    17     6     7   ar
    18     7     8   ar
    19     8    12    1
    20    12    13    1
    21    13    14    1
    22    14    15    1
    23    15    18    1
    24    18    19   ar
    25    19    20   ar
    26    20    21   ar
    27    21    22   ar
    28    22    24    1
    29    24    25    1
    30    24    26    1
    31    24    27    1
    32    22    23   ar
    33    15    16    1
    34    16    17    1
    35     8     9   ar
    36     9    10   ar
    37    10    11    1
    38    28    29    1
    39    29    30    2
    40    29    31   am
    41    31    33    1
    42    33    34   ar
    43    34    35   ar
    44    35    36   ar
    45    36    37   ar
    46    37    38   ar
    47    47    48   ar
    48    48    40   ar
    49    48    44   ar
    50    10     5   ar
    51    38    33   ar
    52    17    12    1
    53    23    18   ar
    54    45    49    1
    55     1     4    1
    56    31    32    1
@<TRIPOS>MOLECULE
*****
 51 56 0 0 0
SMALL
GASTEIGER

@<TRIPOS>ATOM
      1 N           9.2393   78.1635   24.2774 N.am    1  UNL1       -0.2945
      2 C          10.5884   78.1783   24.7695 C.2     1  UNL1        0.2483
      3 O          11.1323   77.1022   25.1405 O.2     1  UNL1       -0.2701
      4 H           8.7027   79.0584   24.2833 H       1  UNL1        0.1501
      5 C          11.3413   79.4484   24.8816 C.ar    1  UNL1        0.0808
      6 C          10.6440   80.6560   25.0547 C.ar    1  UNL1        0.0080
      7 C          11.3339   81.8666   25.1584 C.ar    1  UNL1        0.0148
      8 C          12.7360   81.8920   25.1038 C.ar    1  UNL1        0.0502
      9 C          13.4358   80.6869   24.9459 C.ar    1  UNL1        0.0443
     10 C          12.7493   79.4735   24.8398 C.ar    1  UNL1        0.1457
     11 F          13.4674   78.3274   24.7418 F       1  UNL1       -0.2040
     12 N          13.4528   83.1364   25.2087 N.pl3   1  UNL1       -0.3040
     13 C          14.1452   83.4943   26.4525 C.3     1  UNL1        0.1122
     14 C          13.9974   84.9925   26.7199 C.3     1  UNL1        0.1122
     15 N          14.3236   85.7559   25.5093 N.pl3   1  UNL1       -0.3041
     16 C          13.6313   85.3981   24.2656 C.3     1  UNL1        0.1122
     17 C          13.7793   83.9000   23.9982 C.3     1  UNL1        0.1122
     18 C          15.0374   87.0021   25.6151 C.ar    1  UNL1        0.0479
     19 C          14.6223   87.9889   26.5236 C.ar    1  UNL1        0.0145
     20 C          15.3275   89.1890   26.6307 C.ar    1  UNL1        0.0012
     21 C          16.4453   89.4215   25.8262 C.ar    1  UNL1        0.0039
     22 C          16.8587   88.4598   24.8883 C.ar    1  UNL1        0.0726
     23 C          16.1601   87.2418   24.8058 C.ar    1  UNL1        0.0184
     24 C          18.0909   88.6892   24.0496 C.3     1  UNL1        0.4186
     25 F          18.6386   87.4850   23.6421 F       1  UNL1       -0.1659
     26 F          17.7497   89.4293   22.9331 F       1  UNL1       -0.1659
     27 F          19.0505   89.3779   24.7713 F       1  UNL1       -0.1659
     28 C           8.5183   76.9149   24.0094 C.3     1  UNL1        0.1535
     29 C           9.3855   75.9854   23.2054 C.2     1  UNL1        0.2443
     30 O           9.7372   76.3151   22.0397 O.2     1  UNL1       -0.2730
     31 N           9.8811   74.7756   23.7999 N.am    1  UNL1       -0.2825
     32 H           9.8491   74.6963   24.8417 H       1  UNL1        0.1549
     33 C          10.5109   73.7153   23.0608 C.ar    1  UNL1        0.0535
     34 C          11.8801   73.7505   22.7454 C.ar    1  UNL1        0.0353
     35 C          12.4430   72.7091   22.0032 C.ar    1  UNL1        0.1002
     36 N          11.6674   71.6769   21.5780 N.ar    1  UNL1       -0.2422
     37 C          10.3373   71.6259   21.8525 C.ar    1  UNL1        0.1002
     38 C           9.7344   72.6473   22.5907 C.ar    1  UNL1        0.0353
     39 C           8.0797   76.2336   25.3191 C.3     1  UNL1        0.0569
     40 C           4.9501   76.1753   24.0104 C.ar    1  UNL1       -0.0211
     41 C           3.5530   76.2721   23.8095 C.ar    1  UNL1       -0.0042
     42 C           2.7117   76.8263   24.7899 C.ar    1  UNL1        0.0012
     43 C           3.2450   77.3126   25.9876 C.ar    1  UNL1        0.0169
     44 C           4.6208   77.2273   26.1775 C.ar    1  UNL1        0.0560
     45 N           5.2890   77.6487   27.2619 N.ar    1  UNL1       -0.3523
     46 C           6.5850   77.3667   27.0368 C.ar    1  UNL1        0.0681
     47 C           6.7508   76.7619   25.7953 C.ar    1  UNL1       -0.0020
     48 C           5.4679   76.6729   25.2345 C.ar    1  UNL1        0.0091
     49 H           4.8877   78.0944   28.1170 H       1  UNL1        0.1660
     50 C           5.9433   74.1156   22.9981 C.3     1  UNL1        0.0050
     51 C           5.7937   75.6307   22.8852 C.3     1  UNL1        0.0264
@<TRIPOS>BOND
     1    50    51    1
     2    51    40    1
     3    40    41   ar
     4    41    42   ar
     5    42    43   ar
     6    43    44   ar
     7    44    45   ar
     8    45    46   ar
     9    46    47   ar
    10    47    39    1
    11    39    28    1
    12    28     1    1
    13     1     2   am
    14     2     3    2
    15     2     5    1
    16     5     6   ar
    17     6     7   ar
    18     7     8   ar
    19     8    12    1
    20    12    13    1
    21    13    14    1
    22    14    15    1
    23    15    18    1
    24    18    19   ar
    25    19    20   ar
    26    20    21   ar
    27    21    22   ar
    28    22    24    1
    29    24    25    1
    30    24    26    1
    31    24    27    1
    32    22    23   ar
    33    15    16    1
    34    16    17    1
    35     8     9   ar
    36     9    10   ar
    37    10    11    1
    38    28    29    1
    39    29    30    2
    40    29    31   am
    41    31    33    1
    42    33    34   ar
    43    34    35   ar
    44    35    36   ar
    45    36    37   ar
    46    37    38   ar
    47    47    48   ar
    48    48    40   ar
    49    48    44   ar
    50    10     5   ar
    51    38    33   ar
    52    17    12    1
    53    23    18   ar
    54    45    49    1
    55     1     4    1
    56    31    32    1
@<TRIPOS>MOLECULE
*****
 51 56 0 0 0
SMALL
GASTEIGER

@<TRIPOS>ATOM
      1 N          10.0501   76.7874   25.9527 N.am    1  UNL1       -0.2945
      2 C           9.9257   75.7564   24.9608 C.2     1  UNL1        0.2483
      3 O          10.9306   75.0590   24.6519 O.2     1  UNL1       -0.2701
      4 H           9.3349   77.5471   25.9663 H       1  UNL1        0.1501
      5 C           8.6388   75.5223   24.2669 C.ar    1  UNL1        0.0808
      6 C           8.5598   75.6925   22.8744 C.ar    1  UNL1        0.0080
      7 C           7.3547   75.4813   22.1996 C.ar    1  UNL1        0.0148
      8 C           6.2073   75.0832   22.9028 C.ar    1  UNL1        0.0502
      9 C           6.2862   74.8980   24.2907 C.ar    1  UNL1        0.0443
     10 C           7.4896   75.1102   24.9701 C.ar    1  UNL1        0.1457
     11 F           7.5342   74.8680   26.3037 F       1  UNL1       -0.2040
     12 N           4.9620   74.8652   22.2135 N.pl3   1  UNL1       -0.3040
     13 C           4.8108   73.7356   21.2885 C.3     1  UNL1        0.1122
     14 C           3.9696   74.1568   20.0831 C.3     1  UNL1        0.1122
     15 N           2.7523   74.8433   20.5321 N.pl3   1  UNL1       -0.3041
     16 C           2.9035   75.9728   21.4570 C.3     1  UNL1        0.1122
     17 C           3.7444   75.5515   22.6624 C.3     1  UNL1        0.1122
     18 C           1.5079   74.6276   19.8402 C.ar    1  UNL1        0.0479
     19 C           0.7837   75.7108   19.3170 C.ar    1  UNL1        0.0145
     20 C          -0.4149   75.4930   18.6352 C.ar    1  UNL1        0.0012
     21 C          -0.9086   74.1959   18.4784 C.ar    1  UNL1        0.0039
     22 C          -0.2152   73.1007   19.0218 C.ar    1  UNL1        0.0726
     23 C           1.0058   73.3252   19.6830 C.ar    1  UNL1        0.0184
     24 C          -0.7226   71.6955   18.8162 C.3     1  UNL1        0.4186
     25 F           0.1132   70.9912   17.9666 F       1  UNL1       -0.1659
     26 F          -0.7741   71.0475   20.0360 F       1  UNL1       -0.1659
     27 F          -1.9899   71.7114   18.2598 F       1  UNL1       -0.1659
     28 C          11.2595   76.9479   26.7665 C.3     1  UNL1        0.1535
     29 C          12.2105   77.8960   26.0887 C.2     1  UNL1        0.2443
     30 O          11.8304   79.0667   25.8123 O.2     1  UNL1       -0.2730
     31 N          13.5677   77.4950   25.8439 N.am    1  UNL1       -0.2825
     32 H          13.9335   76.6683   26.3688 H       1  UNL1        0.1549
     33 C          14.4817   78.2198   25.0034 C.ar    1  UNL1        0.0535
     34 C          14.8167   79.5596   25.2641 C.ar    1  UNL1        0.0353
     35 C          15.6901   80.2311   24.4048 C.ar    1  UNL1        0.1002
     36 N          16.2003   79.5957   23.3168 N.ar    1  UNL1       -0.2422
     37 C          15.8795   78.3065   23.0300 C.ar    1  UNL1        0.1002
     38 C          15.0088   77.5992   23.8625 C.ar    1  UNL1        0.0353
     39 C          10.9164   77.4580   28.1786 C.3     1  UNL1        0.0569
     40 C           8.0712   78.1121   29.9070 C.ar    1  UNL1       -0.0211
     41 C           6.8350   78.0133   30.5879 C.ar    1  UNL1       -0.0042
     42 C           6.2447   76.7649   30.8510 C.ar    1  UNL1        0.0012
     43 C           6.8808   75.5839   30.4562 C.ar    1  UNL1        0.0169
     44 C           8.1025   75.6833   29.7974 C.ar    1  UNL1        0.0560
     45 N           8.8410   74.6531   29.3578 N.ar    1  UNL1       -0.3523
     46 C           9.9274   75.1921   28.7755 C.ar    1  UNL1        0.0681
     47 C           9.8877   76.5807   28.8449 C.ar    1  UNL1       -0.0020
     48 C           8.6966   76.9002   29.5137 C.ar    1  UNL1        0.0091
     49 H           8.6164   73.6363   29.4370 H       1  UNL1        0.1660
     50 C           9.4924   79.8895   30.9439 C.3     1  UNL1        0.0050
     51 C           8.6729   79.4825   29.7217 C.3     1  UNL1        0.0264
@<TRIPOS>BOND
     1    50    51    1
     2    51    40    1
     3    40    41   ar
     4    41    42   ar
     5    42    43   ar
     6    43    44   ar
     7    44    45   ar
     8    45    46   ar
     9    46    47   ar
    10    47    39    1
    11    39    28    1
    12    28     1    1
    13     1     2   am
    14     2     3    2
    15     2     5    1
    16     5     6   ar
    17     6     7   ar
    18     7     8   ar
    19     8    12    1
    20    12    13    1
    21    13    14    1
    22    14    15    1
    23    15    18    1
    24    18    19   ar
    25    19    20   ar
    26    20    21   ar
    27    21    22   ar
    28    22    24    1
    29    24    25    1
    30    24    26    1
    31    24    27    1
    32    22    23   ar
    33    15    16    1
    34    16    17    1
    35     8     9   ar
    36     9    10   ar
    37    10    11    1
    38    28    29    1
    39    29    30    2
    40    29    31   am
    41    31    33    1
    42    33    34   ar
    43    34    35   ar
    44    35    36   ar
    45    36    37   ar
    46    37    38   ar
    47    47    48   ar
    48    48    40   ar
    49    48    44   ar
    50    10     5   ar
    51    38    33   ar
    52    17    12    1
    53    23    18   ar
    54    45    49    1
    55     1     4    1
    56    31    32    1
@<TRIPOS>MOLECULE
*****
 51 56 0 0 0
SMALL
GASTEIGER

@<TRIPOS>ATOM
      1 N           9.1625   78.0958   24.5929 N.am    1  UNL1       -0.2945
      2 C          10.5219   78.1366   25.0538 C.2     1  UNL1        0.2483
      3 O          11.0745   77.0818   25.4708 O.2     1  UNL1       -0.2701
      4 H           8.6255   78.9900   24.5619 H       1  UNL1        0.1501
      5 C          11.2764   79.4104   25.0802 C.ar    1  UNL1        0.0808
      6 C          10.5921   80.6182   25.2979 C.ar    1  UNL1        0.0080
      7 C          11.2832   81.8323   25.3225 C.ar    1  UNL1        0.0148
      8 C          12.6747   81.8612   25.1423 C.ar    1  UNL1        0.0502
      9 C          13.3628   80.6561   24.9395 C.ar    1  UNL1        0.0443
     10 C          12.6749   79.4392   24.9123 C.ar    1  UNL1        0.1457
     11 F          13.3863   78.2939   24.7667 F       1  UNL1       -0.2040
     12 N          13.3927   83.1092   25.1651 N.pl3   1  UNL1       -0.3040
     13 C          14.1180   83.5289   26.3702 C.3     1  UNL1        0.1122
     14 C          13.9758   85.0387   26.5659 C.3     1  UNL1        0.1122
     15 N          14.2682   85.7403   25.3101 N.pl3   1  UNL1       -0.3041
     16 C          13.5429   85.3206   24.1051 C.3     1  UNL1        0.1122
     17 C          13.6853   83.8109   23.9094 C.3     1  UNL1        0.1122
     18 C          14.9832   86.9901   25.3338 C.ar    1  UNL1        0.0479
     19 C          14.5152   88.0669   26.1038 C.ar    1  UNL1        0.0145
     20 C          15.2211   89.2710   26.1331 C.ar    1  UNL1        0.0012
     21 C          16.3928   89.4171   25.3870 C.ar    1  UNL1        0.0039
     22 C          16.8612   88.3621   24.5850 C.ar    1  UNL1        0.0726
     23 C          16.1601   87.1428   24.5825 C.ar    1  UNL1        0.0184
     24 C          18.1492   88.5015   23.8131 C.3     1  UNL1        0.4186
     25 F          19.0103   89.3791   24.4491 F       1  UNL1       -0.1659
     26 F          18.7579   87.2641   23.7168 F       1  UNL1       -0.1659
     27 F          17.9042   88.9840   22.5390 F       1  UNL1       -0.1659
     28 C           8.4365   76.8349   24.4090 C.3     1  UNL1        0.1535
     29 C           9.2000   75.9359   23.4755 C.2     1  UNL1        0.2443
     30 O           9.3045   76.2483   22.2577 O.2     1  UNL1       -0.2730
     31 N           9.8796   74.7805   23.9909 N.am    1  UNL1       -0.2825
     32 H          10.0482   74.7341   25.0216 H       1  UNL1        0.1549
     33 C          10.4317   73.7383   23.1687 C.ar    1  UNL1        0.0535
     34 C           9.6334   72.6960   22.6670 C.ar    1  UNL1        0.0353
     35 C          10.2191   71.6910   21.8929 C.ar    1  UNL1        0.1002
     36 N          11.5543   71.7153   21.6395 N.ar    1  UNL1       -0.2422
     37 C          12.3535   72.7007   22.1268 C.ar    1  UNL1        0.1002
     38 C          11.8084   73.7239   22.9063 C.ar    1  UNL1        0.0353
     39 C           8.2017   76.1264   25.7562 C.3     1  UNL1        0.0569
     40 C           7.1189   77.2865   28.7549 C.ar    1  UNL1       -0.0211
     41 C           6.3428   77.8068   29.8172 C.ar    1  UNL1       -0.0042
     42 C           4.9583   78.0070   29.6792 C.ar    1  UNL1        0.0012
     43 C           4.3111   77.6777   28.4841 C.ar    1  UNL1        0.0169
     44 C           5.0747   77.1548   27.4451 C.ar    1  UNL1        0.0560
     45 N           4.6107   76.7855   26.2416 N.ar    1  UNL1       -0.3523
     46 C           5.6770   76.3509   25.5459 C.ar    1  UNL1        0.0681
     47 C           6.8354   76.4388   26.3108 C.ar    1  UNL1       -0.0020
     48 C           6.4407   76.9623   27.5510 C.ar    1  UNL1        0.0091
     49 H           3.6241   76.8354   25.9029 H       1  UNL1        0.1660
     50 C           9.4047   78.3009   28.7503 C.3     1  UNL1        0.0050
     51 C           8.5856   77.0374   29.0021 C.3     1  UNL1        0.0264
@<TRIPOS>BOND
     1    50    51    1
     2    51    40    1
     3    40    41   ar
     4    41    42   ar
     5    42    43   ar
     6    43    44   ar
     7    44    45   ar
     8    45    46   ar
     9    46    47   ar
    10    47    39    1
    11    39    28    1
    12    28     1    1
    13     1     2   am
    14     2     3    2
    15     2     5    1
    16     5     6   ar
    17     6     7   ar
    18     7     8   ar
    19     8    12    1
    20    12    13    1
    21    13    14    1
    22    14    15    1
    23    15    18    1
    24    18    19   ar
    25    19    20   ar
    26    20    21   ar
    27    21    22   ar
    28    22    24    1
    29    24    25    1
    30    24    26    1
    31    24    27    1
    32    22    23   ar
    33    15    16    1
    34    16    17    1
    35     8     9   ar
    36     9    10   ar
    37    10    11    1
    38    28    29    1
    39    29    30    2
    40    29    31   am
    41    31    33    1
    42    33    34   ar
    43    34    35   ar
    44    35    36   ar
    45    36    37   ar
    46    37    38   ar
    47    47    48   ar
    48    48    40   ar
    49    48    44   ar
    50    10     5   ar
    51    38    33   ar
    52    17    12    1
    53    23    18   ar
    54    45    49    1
    55     1     4    1
    56    31    32    1
@<TRIPOS>MOLECULE
*****
 51 56 0 0 0
SMALL
GASTEIGER

@<TRIPOS>ATOM
      1 N           9.4378   77.8256   24.9739 N.am    1  UNL1       -0.2945
      2 C          10.8101   77.9848   24.5821 C.2     1  UNL1        0.2483
      3 O          11.4600   76.9907   24.1566 O.2     1  UNL1       -0.2701
      4 H           9.0201   78.5413   25.6081 H       1  UNL1        0.1501
      5 C          11.4870   79.2961   24.7041 C.ar    1  UNL1        0.0808
      6 C          12.8627   79.3438   24.9861 C.ar    1  UNL1        0.0080
      7 C          13.5208   80.5701   25.1098 C.ar    1  UNL1        0.0148
      8 C          12.8185   81.7733   24.9413 C.ar    1  UNL1        0.0502
      9 C          11.4483   81.7292   24.6451 C.ar    1  UNL1        0.0443
     10 C          10.7854   80.5043   24.5224 C.ar    1  UNL1        0.1457
     11 F           9.4726   80.5073   24.1827 F       1  UNL1       -0.2040
     12 N          13.4905   83.0404   25.0688 N.pl3   1  UNL1       -0.3040
     13 C          14.1574   83.4065   26.3241 C.3     1  UNL1        0.1122
     14 C          13.9550   84.8952   26.6080 C.3     1  UNL1        0.1122
     15 N          14.2667   85.6845   25.4102 N.pl3   1  UNL1       -0.3041
     16 C          13.5999   85.3184   24.1550 C.3     1  UNL1        0.1122
     17 C          13.8025   83.8298   23.8711 C.3     1  UNL1        0.1122
     18 C          14.9357   86.9532   25.5386 C.ar    1  UNL1        0.0479
     19 C          14.4410   87.9375   26.4092 C.ar    1  UNL1        0.0145
     20 C          15.1027   89.1599   26.5390 C.ar    1  UNL1        0.0012
     21 C          16.2562   89.4172   25.7947 C.ar    1  UNL1        0.0039
     22 C          16.7501   88.4576   24.8943 C.ar    1  UNL1        0.0726
     23 C          16.0942   87.2178   24.7896 C.ar    1  UNL1        0.0184
     24 C          18.0198   88.7149   24.1222 C.3     1  UNL1        0.4186
     25 F          18.9457   89.3800   24.9074 F       1  UNL1       -0.1659
     26 F          18.5579   87.5080   23.7166 F       1  UNL1       -0.1659
     27 F          17.7625   89.4921   23.0060 F       1  UNL1       -0.1659
     28 C           8.6923   76.5872   24.7264 C.3     1  UNL1        0.1535
     29 C           9.4153   75.7494   23.7076 C.2     1  UNL1        0.2443
     30 O           9.4085   76.1002   22.4958 O.2     1  UNL1       -0.2730
     31 N          10.1817   74.6111   24.1310 N.am    1  UNL1       -0.2825
     32 H          10.4343   74.5431   25.1431 H       1  UNL1        0.1549
     33 C          10.7089   73.6177   23.2352 C.ar    1  UNL1        0.0535
     34 C          12.0376   73.6682   22.7799 C.ar    1  UNL1        0.0353
     35 C          12.4983   72.6946   21.8899 C.ar    1  UNL1        0.1002
     36 N          11.6618   71.7144   21.4573 N.ar    1  UNL1       -0.2422
     37 C          10.3672   71.6516   21.8665 C.ar    1  UNL1        0.1002
     38 C           9.8660   72.6060   22.7550 C.ar    1  UNL1        0.0353
     39 C           8.4936   75.7879   26.0278 C.3     1  UNL1        0.0569
     40 C           7.2734   77.8626   28.4189 C.ar    1  UNL1       -0.0211
     41 C           7.1015   78.6639   29.5722 C.ar    1  UNL1       -0.0042
     42 C           8.1606   78.8884   30.4689 C.ar    1  UNL1        0.0012
     43 C           9.4213   78.3330   30.2287 C.ar    1  UNL1        0.0169
     44 C           9.5908   77.5554   29.0873 C.ar    1  UNL1        0.0560
     45 N          10.7307   76.9567   28.7101 N.ar    1  UNL1       -0.3523
     46 C          10.4513   76.3048   27.5669 C.ar    1  UNL1        0.0681
     47 C           9.1211   76.4896   27.2050 C.ar    1  UNL1       -0.0020
     48 C           8.5607   77.3075   28.1975 C.ar    1  UNL1        0.0091
     49 H          11.6492   76.9778   29.2067 H       1  UNL1        0.1660
     50 C           4.8347   77.3453   28.2208 C.3     1  UNL1        0.0050
     51 C           6.1092   77.7237   27.4703 C.3     1  UNL1        0.0264
@<TRIPOS>BOND
     1    50    51    1
     2    51    40    1
     3    40    41   ar
     4    41    42   ar
     5    42    43   ar
     6    43    44   ar
     7    44    45   ar
     8    45    46   ar
     9    46    47   ar
    10    47    39    1
    11    39    28    1
    12    28     1    1
    13     1     2   am
    14     2     3    2
    15     2     5    1
    16     5     6   ar
    17     6     7   ar
    18     7     8   ar
    19     8    12    1
    20    12    13    1
    21    13    14    1
    22    14    15    1
    23    15    18    1
    24    18    19   ar
    25    19    20   ar
    26    20    21   ar
    27    21    22   ar
    28    22    24    1
    29    24    25    1
    30    24    26    1
    31    24    27    1
    32    22    23   ar
    33    15    16    1
    34    16    17    1
    35     8     9   ar
    36     9    10   ar
    37    10    11    1
    38    28    29    1
    39    29    30    2
    40    29    31   am
    41    31    33    1
    42    33    34   ar
    43    34    35   ar
    44    35    36   ar
    45    36    37   ar
    46    37    38   ar
    47    47    48   ar
    48    48    40   ar
    49    48    44   ar
    50    10     5   ar
    51    38    33   ar
    52    17    12    1
    53    23    18   ar
    54    45    49    1
    55     1     4    1
    56    31    32    1
