@<TRIPOS>MOLECULE
*****
 59 63 0 0 0
SMALL
GASTEIGER

@<TRIPOS>ATOM
      1 C          49.8280   12.4985  -18.5833 C.ar    1  UNL1        0.0601
      2 C          51.0470   12.9764  -19.0804 C.ar    1  UNL1        0.0082
      3 C          51.1789   13.3202  -20.4232 C.ar    1  UNL1        0.0390
      4 C          50.0974   13.2060  -21.2978 C.ar    1  UNL1        0.1602
      5 C          48.8310   12.8185  -20.7909 C.ar    1  UNL1        0.1046
      6 C          48.7058   12.4300  -19.4391 C.ar    1  UNL1        0.0520
      7 I          46.7824   11.8820  -18.6858 I       1  UNL1       -0.0409
      8 N          49.3618   13.0505  -16.1608 N.am    1  UNL1       -0.3040
      9 C          49.7565   12.0975  -17.1650 C.2     1  UNL1        0.2462
     10 O          49.9916   10.8984  -16.8570 O.2     1  UNL1       -0.2701
     11 H          49.0206   13.9775  -16.5055 H       1  UNL1        0.1496
     12 C          48.7677   14.0183  -13.9820 C.3     1  UNL1        0.0196
     13 C          49.4099   12.8161  -14.7043 C.3     1  UNL1        0.0572
     14 C          48.6159   11.5461  -14.3430 C.3     1  UNL1        0.0196
     15 C          50.8714   12.6866  -14.2317 C.3     1  UNL1        0.0196
     16 N          47.6699   12.8347  -21.6298 N.pl3   1  UNL1       -0.2116
     17 H          47.2628   13.7539  -21.9124 H       1  UNL1        0.1739
     18 S          47.2005   11.4400  -22.5457 S.O2    1  UNL1        0.0745
     19 O          46.0122   11.7954  -23.3949 O.2     1  UNL1       -0.1499
     20 O          46.7989   10.3184  -21.6290 O.2     1  UNL1       -0.1499
     21 C          48.5408   10.9348  -23.5797 C.ar    1  UNL1        0.1356
     22 C          48.6049   11.4302  -24.8880 C.ar    1  UNL1        0.0207
     23 C          49.6718   11.1005  -25.7248 C.ar    1  UNL1       -0.0028
     24 C          50.7084   10.2631  -25.2659 C.ar    1  UNL1       -0.0216
     25 C          50.6362    9.7612  -23.9573 C.ar    1  UNL1        0.0085
     26 C          49.5667   10.0869  -23.1148 C.ar    1  UNL1        0.0762
     27 CL         49.5724    9.4241  -21.4835 Cl      1  UNL1       -0.0809
     28 C          51.9144    9.8764  -26.1056 C.3     1  UNL1        0.0224
     29 C          52.4112   10.9040  -27.1135 C.3     1  UNL1        0.0047
     30 C          51.6930    9.6491  -27.5949 C.3     1  UNL1        0.0047
     31 O          50.3285   13.4917  -22.6545 O.3     1  UNL1       -0.4513
     32 C          49.7369   14.5370  -23.3774 C.ar    1  UNL1        0.1580
     33 C          48.8250   15.3643  -22.7133 C.ar    1  UNL1        0.0677
     34 C          48.0930   16.3231  -23.4173 C.ar    1  UNL1        0.1398
     35 F          47.1428   17.0407  -22.7661 F       1  UNL1       -0.2044
     36 C          48.2998   16.4943  -24.7961 C.ar    1  UNL1        0.0175
     37 C          49.2871   15.7343  -25.4427 C.ar    1  UNL1        0.0130
     38 C          50.0200   14.7729  -24.7400 C.ar    1  UNL1        0.0919
     39 CL         51.2927   13.9073  -25.5927 Cl      1  UNL1       -0.0791
     40 C          47.3853   17.3731  -25.6045 C.3     1  UNL1        0.1382
     41 C          47.2376   16.7951  -26.9770 C.2     1  UNL1        0.3234
     42 O          47.9509   17.2285  -27.9224 O.2     1  UNL1       -0.2497
     43 O          46.2726   15.8040  -27.1979 O.3     1  UNL1       -0.4215
     44 C          46.5709   14.4303  -27.4459 C.3     1  UNL1        0.3207
     45 O          46.1086   14.1201  -28.7495 O.3     1  UNL1       -0.3070
     46 C          46.4586   12.7949  -29.1104 C.3     1  UNL1        0.2456
     47 C          45.7437   11.7784  -28.1913 C.3     1  UNL1        0.1781
     48 O          46.0777   10.4556  -28.5357 O.3     1  UNL1       -0.3790
     49 C          46.0959   12.0610  -26.7210 C.3     1  UNL1        0.1733
     50 O          45.3007   11.2528  -25.8923 O.3     1  UNL1       -0.3793
     51 C          45.8541   13.5457  -26.4007 C.3     1  UNL1        0.2106
     52 O          46.3414   13.8218  -25.1125 O.3     1  UNL1       -0.3766
     53 H          47.0628   10.3611  -28.4523 H       1  UNL1        0.2106
     54 H          45.7563   11.2064  -25.0115 H       1  UNL1        0.2105
     55 H          45.7685   14.5373  -24.7315 H       1  UNL1        0.2107
     56 C          46.0547   12.5649  -30.5398 C.2     1  UNL1        0.3439
     57 O          45.7774   13.5452  -31.2799 O.2     1  UNL1       -0.2475
     58 O          46.0241   11.2790  -31.0737 O.3     1  UNL1       -0.4785
     59 H          46.2588   10.4693  -30.5121 H       1  UNL1        0.2951
@<TRIPOS>BOND
     1    12    13    1
     2    13    14    1
     3    13    15    1
     4    13     8    1
     5     8     9   am
     6     9    10    2
     7     9     1    1
     8     1     2   ar
     9     2     3   ar
    10     3     4   ar
    11     4    31    1
    12    31    32    1
    13    32    33   ar
    14    33    34   ar
    15    34    35    1
    16    34    36   ar
    17    36    40    1
    18    40    41    1
    19    41    42    2
    20    41    43    1
    21    43    44    1
    22    44    45    1
    23    45    46    1
    24    46    56    1
    25    56    57    2
    26    56    58    1
    27    46    47    1
    28    47    48    1
    29    47    49    1
    30    49    50    1
    31    49    51    1
    32    51    52    1
    33    36    37   ar
    34    37    38   ar
    35    38    39    1
    36     4     5   ar
    37     5    16    1
    38    16    18    1
    39    18    19    2
    40    18    20    2
    41    18    21    1
    42    21    22   ar
    43    22    23   ar
    44    23    24   ar
    45    24    28    1
    46    28    29    1
    47    29    30    1
    48    24    25   ar
    49    25    26   ar
    50    26    27    1
    51     5     6   ar
    52     6     7    1
    53     6     1   ar
    54    38    32   ar
    55    26    21   ar
    56    51    44    1
    57    30    28    1
    58     8    11    1
    59    58    59    1
    60    48    53    1
    61    50    54    1
    62    52    55    1
    63    16    17    1
@<TRIPOS>MOLECULE
*****
 59 63 0 0 0
SMALL
GASTEIGER

@<TRIPOS>ATOM
      1 C          48.4922   12.0562  -19.1001 C.ar    1  UNL1        0.0601
      2 C          47.1701   11.6851  -19.3758 C.ar    1  UNL1        0.0082
      3 C          46.5925   11.9830  -20.6072 C.ar    1  UNL1        0.0390
      4 C          47.3217   12.6468  -21.5947 C.ar    1  UNL1        0.1602
      5 C          48.6904   12.9413  -21.3689 C.ar    1  UNL1        0.1046
      6 C          49.2654   12.6775  -20.1064 C.ar    1  UNL1        0.0520
      7 I          51.3379   13.0968  -19.7967 I       1  UNL1       -0.0409
      8 N          48.7824   12.6588  -16.6622 N.am    1  UNL1       -0.3040
      9 C          49.0389   11.7646  -17.7609 C.2     1  UNL1        0.2462
     10 O          49.6838   10.6965  -17.5841 O.2     1  UNL1       -0.2701
     11 H          48.1035   13.4346  -16.8406 H       1  UNL1        0.1496
     12 C          48.8621   11.3072  -14.6121 C.3     1  UNL1        0.0196
     13 C          49.4046   12.5616  -15.3273 C.3     1  UNL1        0.0572
     14 C          50.9336   12.4266  -15.4611 C.3     1  UNL1        0.0196
     15 C          49.0482   13.7990  -14.4800 C.3     1  UNL1        0.0196
     16 N          49.5047   13.4864  -22.4139 N.pl3   1  UNL1       -0.2116
     17 H          49.9083   12.8416  -23.1292 H       1  UNL1        0.1739
     18 S          49.4691   15.1770  -22.7947 S.O2    1  UNL1        0.0745
     19 O          50.8798   15.6616  -22.9805 O.2     1  UNL1       -0.1499
     20 O          48.8531   15.9581  -21.6678 O.2     1  UNL1       -0.1499
     21 C          48.5532   15.4270  -24.2845 C.ar    1  UNL1        0.1356
     22 C          47.3280   16.1018  -24.2158 C.ar    1  UNL1        0.0207
     23 C          46.5937   16.3680  -25.3722 C.ar    1  UNL1       -0.0028
     24 C          47.0749   15.9641  -26.6338 C.ar    1  UNL1       -0.0216
     25 C          48.2987   15.2802  -26.6978 C.ar    1  UNL1        0.0085
     26 C          49.0378   15.0084  -25.5404 C.ar    1  UNL1        0.0762
     27 CL         50.5706   14.1612  -25.7225 Cl      1  UNL1       -0.0809
     28 C          46.3481   16.2361  -27.9402 C.3     1  UNL1        0.0224
     29 C          44.8267   16.2731  -27.8884 C.3     1  UNL1        0.0047
     30 C          45.5389   15.0979  -28.5472 C.3     1  UNL1        0.0047
     31 O          46.6469   12.9872  -22.7798 O.3     1  UNL1       -0.4513
     32 C          46.8869   12.4260  -24.0418 C.ar    1  UNL1        0.1580
     33 C          48.1111   11.7836  -24.2557 C.ar    1  UNL1        0.0677
     34 C          48.4669   11.3404  -25.5315 C.ar    1  UNL1        0.1398
     35 F          49.7019   10.8135  -25.7291 F       1  UNL1       -0.2044
     36 C          47.5756   11.4979  -26.6056 C.ar    1  UNL1        0.0175
     37 C          46.3066   12.0503  -26.3707 C.ar    1  UNL1        0.0130
     38 C          45.9491   12.4960  -25.0944 C.ar    1  UNL1        0.0919
     39 CL         44.3179   13.1097  -24.8524 Cl      1  UNL1       -0.0791
     40 C          48.0169   11.2141  -28.0152 C.3     1  UNL1        0.1382
     41 C          47.3510    9.9623  -28.4941 C.2     1  UNL1        0.3234
     42 O          46.1107    9.9572  -28.7227 O.2     1  UNL1       -0.2497
     43 O          48.1158    8.7979  -28.6412 O.3     1  UNL1       -0.4215
     44 C          49.0485    8.5750  -29.6985 C.3     1  UNL1        0.3207
     45 O          48.5767    7.4777  -30.4617 O.3     1  UNL1       -0.3070
     46 C          49.3994    7.2558  -31.5943 C.3     1  UNL1        0.2456
     47 C          50.8223    6.8418  -31.1552 C.3     1  UNL1        0.1781
     48 O          51.6543    6.6151  -32.2672 O.3     1  UNL1       -0.3790
     49 C          51.4242    7.9206  -30.2390 C.3     1  UNL1        0.1733
     50 O          52.6340    7.4491  -29.7037 O.3     1  UNL1       -0.3793
     51 C          50.4395    8.2543  -29.1058 C.3     1  UNL1        0.2106
     52 O          50.9274    9.3564  -28.3843 O.3     1  UNL1       -0.3766
     53 H          51.6882    7.4553  -32.7955 H       1  UNL1        0.2106
     54 H          53.1456    8.2447  -29.4023 H       1  UNL1        0.2105
     55 H          50.6278    9.2451  -27.4445 H       1  UNL1        0.2107
     56 C          48.7838    6.1670  -32.4280 C.2     1  UNL1        0.3439
     57 O          47.5310    6.0669  -32.5050 O.2     1  UNL1       -0.2475
     58 O          49.5827    5.2884  -33.1554 O.3     1  UNL1       -0.4785
     59 H          50.5934    5.3516  -33.1310 H       1  UNL1        0.2951
@<TRIPOS>BOND
     1    12    13    1
     2    13    14    1
     3    13    15    1
     4    13     8    1
     5     8     9   am
     6     9    10    2
     7     9     1    1
     8     1     2   ar
     9     2     3   ar
    10     3     4   ar
    11     4    31    1
    12    31    32    1
    13    32    33   ar
    14    33    34   ar
    15    34    35    1
    16    34    36   ar
    17    36    40    1
    18    40    41    1
    19    41    42    2
    20    41    43    1
    21    43    44    1
    22    44    45    1
    23    45    46    1
    24    46    56    1
    25    56    57    2
    26    56    58    1
    27    46    47    1
    28    47    48    1
    29    47    49    1
    30    49    50    1
    31    49    51    1
    32    51    52    1
    33    36    37   ar
    34    37    38   ar
    35    38    39    1
    36     4     5   ar
    37     5    16    1
    38    16    18    1
    39    18    19    2
    40    18    20    2
    41    18    21    1
    42    21    22   ar
    43    22    23   ar
    44    23    24   ar
    45    24    28    1
    46    28    29    1
    47    29    30    1
    48    24    25   ar
    49    25    26   ar
    50    26    27    1
    51     5     6   ar
    52     6     7    1
    53     6     1   ar
    54    38    32   ar
    55    26    21   ar
    56    51    44    1
    57    30    28    1
    58     8    11    1
    59    58    59    1
    60    48    53    1
    61    50    54    1
    62    52    55    1
    63    16    17    1
@<TRIPOS>MOLECULE
*****
 59 63 0 0 0
SMALL
GASTEIGER

@<TRIPOS>ATOM
      1 C          49.1696   11.7490  -18.5007 C.ar    1  UNL1        0.0601
      2 C          47.9501   11.4001  -19.0945 C.ar    1  UNL1        0.0082
      3 C          47.7700   11.5251  -20.4695 C.ar    1  UNL1        0.0390
      4 C          48.8031   11.9898  -21.2845 C.ar    1  UNL1        0.1602
      5 C          50.0743   12.2533  -20.7138 C.ar    1  UNL1        0.1046
      6 C          50.2463   12.1667  -19.3149 C.ar    1  UNL1        0.0520
      7 I          52.1778   12.5342  -18.4774 I       1  UNL1       -0.0409
      8 N          48.8658   12.7385  -16.1944 N.am    1  UNL1       -0.3040
      9 C          49.2907   11.6486  -17.0335 C.2     1  UNL1        0.2462
     10 O          49.7182   10.5763  -16.5282 O.2     1  UNL1       -0.2701
     11 H          48.3680   13.5266  -16.6693 H       1  UNL1        0.1496
     12 C          48.4049   14.0976  -14.2002 C.3     1  UNL1        0.0196
     13 C          49.0854   12.8216  -14.7372 C.3     1  UNL1        0.0572
     14 C          48.4616   11.6007  -14.0342 C.3     1  UNL1        0.0196
     15 C          50.5932   12.9054  -14.4277 C.3     1  UNL1        0.0196
     16 N          51.1942   12.5878  -21.5420 N.pl3   1  UNL1       -0.2116
     17 H          51.6145   11.8481  -22.1475 H       1  UNL1        0.1739
     18 S          51.5778   14.2364  -21.9156 S.O2    1  UNL1        0.0745
     19 O          53.0668   14.3626  -22.0774 O.2     1  UNL1       -0.1499
     20 O          51.1527   15.1432  -20.7947 O.2     1  UNL1       -0.1499
     21 C          50.7745   14.7031  -23.4181 C.ar    1  UNL1        0.1356
     22 C          49.8385   15.7442  -23.3854 C.ar    1  UNL1        0.0207
     23 C          49.2165   16.1823  -24.5551 C.ar    1  UNL1       -0.0028
     24 C          49.5224   15.5851  -25.7946 C.ar    1  UNL1       -0.0216
     25 C          50.4541   14.5359  -25.8223 C.ar    1  UNL1        0.0085
     26 C          51.0788   14.0911  -24.6512 C.ar    1  UNL1        0.0762
     27 CL         52.2475   12.7812  -24.7881 Cl      1  UNL1       -0.0809
     28 C          48.9074   16.0192  -27.1145 C.3     1  UNL1        0.0224
     29 C          48.4489   17.4675  -27.2186 C.3     1  UNL1        0.0047
     30 C          47.4203   16.3469  -27.1256 C.3     1  UNL1        0.0047
     31 O          48.5208   12.1686  -22.6498 O.3     1  UNL1       -0.4513
     32 C          48.9915   11.3558  -23.6904 C.ar    1  UNL1        0.1580
     33 C          49.8680   10.3142  -23.3686 C.ar    1  UNL1        0.0677
     34 C          50.4862    9.5697  -24.3756 C.ar    1  UNL1        0.1398
     35 F          51.4089    8.6341  -24.0362 F       1  UNL1       -0.2044
     36 C          50.1974    9.8338  -25.7247 C.ar    1  UNL1        0.0175
     37 C          49.2413   10.8106  -26.0446 C.ar    1  UNL1        0.0130
     38 C          48.6224   11.5581  -25.0378 C.ar    1  UNL1        0.0919
     39 CL         47.3800   12.7143  -25.5022 Cl      1  UNL1       -0.0791
     40 C          50.9982    9.1859  -26.8206 C.3     1  UNL1        0.1382
     41 C          51.7800   10.2377  -27.5433 C.2     1  UNL1        0.3234
     42 O          51.9613   11.3655  -27.0087 O.2     1  UNL1       -0.2497
     43 O          52.2647    9.9630  -28.8286 O.3     1  UNL1       -0.4215
     44 C          52.9721    8.7758  -29.1859 C.3     1  UNL1        0.3207
     45 O          54.3221    9.1368  -29.4235 O.3     1  UNL1       -0.3070
     46 C          55.1149    7.9919  -29.6876 C.3     1  UNL1        0.2456
     47 C          54.6580    7.3092  -30.9968 C.3     1  UNL1        0.1781
     48 O          55.4353    6.1703  -31.2771 O.3     1  UNL1       -0.3790
     49 C          53.1680    6.9390  -30.9041 C.3     1  UNL1        0.1733
     50 O          52.7249    6.4905  -32.1591 O.3     1  UNL1       -0.3793
     51 C          52.3505    8.1644  -30.4621 C.3     1  UNL1        0.2106
     52 O          51.0258    7.7671  -30.2165 O.3     1  UNL1       -0.3766
     53 H          55.3412    5.5443  -30.5118 H       1  UNL1        0.2106
     54 H          51.8970    5.9657  -32.0020 H       1  UNL1        0.2105
     55 H          50.4437    8.5393  -30.4408 H       1  UNL1        0.2107
     56 C          56.5506    8.4204  -29.8077 C.2     1  UNL1        0.3439
     57 O          57.4583    7.5540  -29.9120 O.2     1  UNL1       -0.2475
     58 O          56.8904    9.7703  -29.8490 O.3     1  UNL1       -0.4785
     59 H          56.1843   10.4939  -29.7859 H       1  UNL1        0.2951
@<TRIPOS>BOND
     1    12    13    1
     2    13    14    1
     3    13    15    1
     4    13     8    1
     5     8     9   am
     6     9    10    2
     7     9     1    1
     8     1     2   ar
     9     2     3   ar
    10     3     4   ar
    11     4    31    1
    12    31    32    1
    13    32    33   ar
    14    33    34   ar
    15    34    35    1
    16    34    36   ar
    17    36    40    1
    18    40    41    1
    19    41    42    2
    20    41    43    1
    21    43    44    1
    22    44    45    1
    23    45    46    1
    24    46    56    1
    25    56    57    2
    26    56    58    1
    27    46    47    1
    28    47    48    1
    29    47    49    1
    30    49    50    1
    31    49    51    1
    32    51    52    1
    33    36    37   ar
    34    37    38   ar
    35    38    39    1
    36     4     5   ar
    37     5    16    1
    38    16    18    1
    39    18    19    2
    40    18    20    2
    41    18    21    1
    42    21    22   ar
    43    22    23   ar
    44    23    24   ar
    45    24    28    1
    46    28    29    1
    47    29    30    1
    48    24    25   ar
    49    25    26   ar
    50    26    27    1
    51     5     6   ar
    52     6     7    1
    53     6     1   ar
    54    38    32   ar
    55    26    21   ar
    56    51    44    1
    57    30    28    1
    58     8    11    1
    59    58    59    1
    60    48    53    1
    61    50    54    1
    62    52    55    1
    63    16    17    1
@<TRIPOS>MOLECULE
*****
 59 63 0 0 0
SMALL
GASTEIGER

@<TRIPOS>ATOM
      1 C          50.0076   12.7397  -18.7651 C.ar    1  UNL1        0.0601
      2 C          51.2189   13.3263  -19.1525 C.ar    1  UNL1        0.0082
      3 C          51.3640   13.8804  -20.4217 C.ar    1  UNL1        0.0390
      4 C          50.3034   13.8722  -21.3286 C.ar    1  UNL1        0.1602
      5 C          49.0415   13.3718  -20.9185 C.ar    1  UNL1        0.1046
      6 C          48.9044   12.7725  -19.6473 C.ar    1  UNL1        0.0520
      7 I          46.9868   12.0552  -19.0344 I       1  UNL1       -0.0409
      8 N          49.6353   12.9255  -16.2716 N.am    1  UNL1       -0.3040
      9 C          49.9232   12.1192  -17.4289 C.2     1  UNL1        0.2462
     10 O          50.0517   10.8698  -17.3269 O.2     1  UNL1       -0.2701
     11 H          49.3755   13.9230  -16.4506 H       1  UNL1        0.1496
     12 C          49.3088   13.6168  -13.9366 C.3     1  UNL1        0.0196
     13 C          49.6861   12.4517  -14.8746 C.3     1  UNL1        0.0572
     14 C          48.6772   11.3065  -14.6638 C.3     1  UNL1        0.0196
     15 C          51.1111   11.9822  -14.5209 C.3     1  UNL1        0.0196
     16 N          47.8962   13.4844  -21.7716 N.pl3   1  UNL1       -0.2116
     17 H          47.4380   14.4162  -21.8830 H       1  UNL1        0.1739
     18 S          47.5299   12.2700  -22.9529 S.O2    1  UNL1        0.0745
     19 O          46.4357   11.3888  -22.4186 O.2     1  UNL1       -0.1499
     20 O          48.7343   11.4097  -23.2150 O.2     1  UNL1       -0.1499
     21 C          46.9939   13.0438  -24.4478 C.ar    1  UNL1        0.1356
     22 C          46.1776   14.1785  -24.3629 C.ar    1  UNL1        0.0207
     23 C          45.7716   14.8539  -25.5145 C.ar    1  UNL1       -0.0028
     24 C          46.1796   14.4066  -26.7872 C.ar    1  UNL1       -0.0216
     25 C          46.9902   13.2639  -26.8690 C.ar    1  UNL1        0.0085
     26 C          47.3980   12.5813  -25.7168 C.ar    1  UNL1        0.0762
     27 CL         48.4295   11.1686  -25.9186 Cl      1  UNL1       -0.0809
     28 C          45.8006   15.0987  -28.0858 C.3     1  UNL1        0.0224
     29 C          46.3324   16.5100  -28.2960 C.3     1  UNL1        0.0047
     30 C          44.8539   16.2883  -28.0006 C.3     1  UNL1        0.0047
     31 O          50.5499   14.3741  -22.6182 O.3     1  UNL1       -0.4513
     32 C          50.9704   13.6151  -23.7192 C.ar    1  UNL1        0.1580
     33 C          51.7043   12.4495  -23.4749 C.ar    1  UNL1        0.0677
     34 C          52.2776   11.7370  -24.5305 C.ar    1  UNL1        0.1398
     35 F          53.0688   10.6689  -24.2563 F       1  UNL1       -0.2044
     36 C          52.0838   12.1631  -25.8549 C.ar    1  UNL1        0.0175
     37 C          51.2634   13.2740  -26.1066 C.ar    1  UNL1        0.0130
     38 C          50.6898   13.9895  -25.0509 C.ar    1  UNL1        0.0919
     39 CL         49.6128   15.3261  -25.4379 Cl      1  UNL1       -0.0791
     40 C          52.8536   11.5327  -26.9828 C.3     1  UNL1        0.1382
     41 C          52.0476   10.4111  -27.5591 C.2     1  UNL1        0.3234
     42 O          51.1766    9.8344  -26.8524 O.2     1  UNL1       -0.2497
     43 O          52.3060    9.9907  -28.8701 O.3     1  UNL1       -0.4215
     44 C          53.0193    8.8017  -29.2089 C.3     1  UNL1        0.3207
     45 O          54.3708    9.1632  -29.4372 O.3     1  UNL1       -0.3070
     46 C          55.1684    8.0175  -29.6824 C.3     1  UNL1        0.2456
     47 C          54.7254    7.3208  -30.9890 C.3     1  UNL1        0.1781
     48 O          55.5078    6.1809  -31.2505 O.3     1  UNL1       -0.3790
     49 C          53.2354    6.9483  -30.9068 C.3     1  UNL1        0.1733
     50 O          52.8052    6.4864  -32.1614 O.3     1  UNL1       -0.3793
     51 C          52.4111    8.1762  -30.4848 C.3     1  UNL1        0.2106
     52 O          51.0850    7.7785  -30.2478 O.3     1  UNL1       -0.3766
     53 H          55.4077    5.5624  -30.4800 H       1  UNL1        0.2106
     54 H          51.9770    5.9613  -32.0070 H       1  UNL1        0.2105
     55 H          50.5034    8.5471  -30.4853 H       1  UNL1        0.2107
     56 C          56.6043    8.4480  -29.7931 C.2     1  UNL1        0.3439
     57 O          57.5134    7.5828  -29.8959 O.2     1  UNL1       -0.2475
     58 O          56.9429    9.7983  -29.8273 O.3     1  UNL1       -0.4785
     59 H          56.2357   10.5209  -29.7653 H       1  UNL1        0.2951
@<TRIPOS>BOND
     1    12    13    1
     2    13    14    1
     3    13    15    1
     4    13     8    1
     5     8     9   am
     6     9    10    2
     7     9     1    1
     8     1     2   ar
     9     2     3   ar
    10     3     4   ar
    11     4    31    1
    12    31    32    1
    13    32    33   ar
    14    33    34   ar
    15    34    35    1
    16    34    36   ar
    17    36    40    1
    18    40    41    1
    19    41    42    2
    20    41    43    1
    21    43    44    1
    22    44    45    1
    23    45    46    1
    24    46    56    1
    25    56    57    2
    26    56    58    1
    27    46    47    1
    28    47    48    1
    29    47    49    1
    30    49    50    1
    31    49    51    1
    32    51    52    1
    33    36    37   ar
    34    37    38   ar
    35    38    39    1
    36     4     5   ar
    37     5    16    1
    38    16    18    1
    39    18    19    2
    40    18    20    2
    41    18    21    1
    42    21    22   ar
    43    22    23   ar
    44    23    24   ar
    45    24    28    1
    46    28    29    1
    47    29    30    1
    48    24    25   ar
    49    25    26   ar
    50    26    27    1
    51     5     6   ar
    52     6     7    1
    53     6     1   ar
    54    38    32   ar
    55    26    21   ar
    56    51    44    1
    57    30    28    1
    58     8    11    1
    59    58    59    1
    60    48    53    1
    61    50    54    1
    62    52    55    1
    63    16    17    1
@<TRIPOS>MOLECULE
*****
 59 63 0 0 0
SMALL
GASTEIGER

@<TRIPOS>ATOM
      1 C          49.0116   11.6790  -18.0389 C.ar    1  UNL1        0.0601
      2 C          47.7714   11.2524  -18.5301 C.ar    1  UNL1        0.0082
      3 C          47.5154   11.2462  -19.8988 C.ar    1  UNL1        0.0390
      4 C          48.4918   11.6541  -20.8085 C.ar    1  UNL1        0.1602
      5 C          49.7846   11.9945  -20.3352 C.ar    1  UNL1        0.1046
      6 C          50.0327   12.0411  -18.9459 C.ar    1  UNL1        0.0520
      7 I          51.9962   12.5230  -18.2533 I       1  UNL1       -0.0409
      8 N          48.6947   12.8140  -15.8023 N.am    1  UNL1       -0.3040
      9 C          49.2129   11.7172  -16.5775 C.2     1  UNL1        0.2462
     10 O          49.7945   10.7505  -16.0160 O.2     1  UNL1       -0.2701
     11 H          48.0805   13.4936  -16.3077 H       1  UNL1        0.1496
     12 C          50.4950   13.1577  -14.1660 C.3     1  UNL1        0.0196
     13 C          48.9702   13.0447  -14.3707 C.3     1  UNL1        0.0572
     14 C          48.3149   14.3601  -13.9077 C.3     1  UNL1        0.0196
     15 C          48.4510   11.8623  -13.5290 C.3     1  UNL1        0.0196
     16 N          50.8502   12.2734  -21.2511 N.pl3   1  UNL1       -0.2116
     17 H          51.1133   11.5498  -21.9565 H       1  UNL1        0.1739
     18 S          51.3974   13.8943  -21.5300 S.O2    1  UNL1        0.0745
     19 O          52.9005   13.9047  -21.5309 O.2     1  UNL1       -0.1499
     20 O          50.9261   14.8058  -20.4316 O.2     1  UNL1       -0.1499
     21 C          50.7976   14.4587  -23.0928 C.ar    1  UNL1        0.1356
     22 C          49.8831   15.5189  -23.1194 C.ar    1  UNL1        0.0207
     23 C          49.4208   16.0328  -24.3316 C.ar    1  UNL1       -0.0028
     24 C          49.8698   15.4945  -25.5543 C.ar    1  UNL1       -0.0216
     25 C          50.7793   14.4262  -25.5237 C.ar    1  UNL1        0.0085
     26 C          51.2440   13.9054  -24.3102 C.ar    1  UNL1        0.0762
     27 CL         52.3979   12.5768  -24.3727 Cl      1  UNL1       -0.0809
     28 C          49.4332   16.0122  -26.9146 C.3     1  UNL1        0.0224
     29 C          48.6974   17.3451  -26.9417 C.3     1  UNL1        0.0047
     30 C          47.9396   16.0502  -27.2085 C.3     1  UNL1        0.0047
     31 O          48.1330   11.7002  -22.1668 O.3     1  UNL1       -0.4513
     32 C          48.7926   11.0280  -23.2051 C.ar    1  UNL1        0.1580
     33 C          49.4878    9.8546  -22.8939 C.ar    1  UNL1        0.0677
     34 C          50.2861    9.2268  -23.8526 C.ar    1  UNL1        0.1398
     35 F          51.0287    8.1490  -23.4935 F       1  UNL1       -0.2044
     36 C          50.3627    9.7469  -25.1552 C.ar    1  UNL1        0.0175
     37 C          49.5857   10.8655  -25.4955 C.ar    1  UNL1        0.0130
     38 C          48.7870   11.4963  -24.5366 C.ar    1  UNL1        0.0919
     39 CL         47.7820   12.8474  -25.0470 Cl      1  UNL1       -0.0791
     40 C          51.3662    9.2082  -26.1375 C.3     1  UNL1        0.1382
     41 C          50.9183    9.5393  -27.5265 C.2     1  UNL1        0.3234
     42 O          49.7151    9.3600  -27.8592 O.2     1  UNL1       -0.2497
     43 O          51.8601   10.0068  -28.4521 O.3     1  UNL1       -0.4215
     44 C          52.1949    9.3384  -29.6681 C.3     1  UNL1        0.3207
     45 O          51.1535    8.4200  -29.9529 O.3     1  UNL1       -0.3070
     46 C          51.3638    7.7853  -31.2026 C.3     1  UNL1        0.2456
     47 C          52.6446    6.9211  -31.1604 C.3     1  UNL1        0.1781
     48 O          52.8695    6.2808  -32.3931 O.3     1  UNL1       -0.3790
     49 C          53.8527    7.7907  -30.7731 C.3     1  UNL1        0.1733
     50 O          54.9676    6.9635  -30.5604 O.3     1  UNL1       -0.3793
     51 C          53.5358    8.5889  -29.4973 C.3     1  UNL1        0.2106
     52 O          54.5766    9.5011  -29.2571 O.3     1  UNL1       -0.3766
     53 H          52.9523    6.9848  -33.0886 H       1  UNL1        0.2106
     54 H          55.7728    7.5388  -30.6394 H       1  UNL1        0.2105
     55 H          54.6448    9.6128  -28.2731 H       1  UNL1        0.2107
     56 C          50.1727    6.9206  -31.5075 C.2     1  UNL1        0.3439
     57 O          50.1863    6.1648  -32.5146 O.2     1  UNL1       -0.2475
     58 O          49.0647    6.9106  -30.6640 O.3     1  UNL1       -0.4785
     59 H          49.0275    7.4922  -29.8356 H       1  UNL1        0.2951
@<TRIPOS>BOND
     1    12    13    1
     2    13    14    1
     3    13    15    1
     4    13     8    1
     5     8     9   am
     6     9    10    2
     7     9     1    1
     8     1     2   ar
     9     2     3   ar
    10     3     4   ar
    11     4    31    1
    12    31    32    1
    13    32    33   ar
    14    33    34   ar
    15    34    35    1
    16    34    36   ar
    17    36    40    1
    18    40    41    1
    19    41    42    2
    20    41    43    1
    21    43    44    1
    22    44    45    1
    23    45    46    1
    24    46    56    1
    25    56    57    2
    26    56    58    1
    27    46    47    1
    28    47    48    1
    29    47    49    1
    30    49    50    1
    31    49    51    1
    32    51    52    1
    33    36    37   ar
    34    37    38   ar
    35    38    39    1
    36     4     5   ar
    37     5    16    1
    38    16    18    1
    39    18    19    2
    40    18    20    2
    41    18    21    1
    42    21    22   ar
    43    22    23   ar
    44    23    24   ar
    45    24    28    1
    46    28    29    1
    47    29    30    1
    48    24    25   ar
    49    25    26   ar
    50    26    27    1
    51     5     6   ar
    52     6     7    1
    53     6     1   ar
    54    38    32   ar
    55    26    21   ar
    56    51    44    1
    57    30    28    1
    58     8    11    1
    59    58    59    1
    60    48    53    1
    61    50    54    1
    62    52    55    1
    63    16    17    1
@<TRIPOS>MOLECULE
*****
 59 63 0 0 0
SMALL
GASTEIGER

@<TRIPOS>ATOM
      1 C          51.0140   12.8270  -19.1488 C.ar    1  UNL1        0.0601
      2 C          51.6338   13.9579  -19.6950 C.ar    1  UNL1        0.0082
      3 C          51.5051   14.2516  -21.0499 C.ar    1  UNL1        0.0390
      4 C          50.7479   13.4321  -21.8882 C.ar    1  UNL1        0.1602
      5 C          50.0336   12.3400  -21.3332 C.ar    1  UNL1        0.1046
      6 C          50.1963   12.0168  -19.9682 C.ar    1  UNL1        0.0520
      7 I          49.0852   10.3885  -19.1429 I       1  UNL1       -0.0409
      8 N          50.1619   12.7341  -16.7705 N.am    1  UNL1       -0.3040
      9 C          51.2261   12.5315  -17.7186 C.2     1  UNL1        0.2462
     10 O          52.3310   12.0488  -17.3523 O.2     1  UNL1       -0.2701
     11 H          49.2242   12.9764  -17.1661 H       1  UNL1        0.1496
     12 C          50.0938   11.1615  -14.8840 C.3     1  UNL1        0.0196
     13 C          50.3017   12.6310  -15.3047 C.3     1  UNL1        0.0572
     14 C          51.7141   13.0693  -14.8724 C.3     1  UNL1        0.0196
     15 C          49.2347   13.4950  -14.6039 C.3     1  UNL1        0.0196
     16 N          49.1316   11.5702  -22.1369 N.pl3   1  UNL1       -0.2116
     17 H          49.4286   10.6248  -22.4663 H       1  UNL1        0.1739
     18 S          47.4392   11.9397  -22.1973 S.O2    1  UNL1        0.0745
     19 O          47.1024   12.8564  -21.0546 O.2     1  UNL1       -0.1499
     20 O          46.6209   10.6879  -22.0466 O.2     1  UNL1       -0.1499
     21 C          47.0635   12.7356  -23.7290 C.ar    1  UNL1        0.1356
     22 C          46.5500   11.9648  -24.7794 C.ar    1  UNL1        0.0207
     23 C          46.1901   12.5575  -25.9904 C.ar    1  UNL1       -0.0028
     24 C          46.3345   13.9470  -26.1773 C.ar    1  UNL1       -0.0216
     25 C          46.8579   14.7149  -25.1256 C.ar    1  UNL1        0.0085
     26 C          47.2228   14.1246  -23.9098 C.ar    1  UNL1        0.0762
     27 CL         47.8531   15.1721  -22.6425 Cl      1  UNL1       -0.0809
     28 C          45.9446   14.6710  -27.4550 C.3     1  UNL1        0.0224
     29 C          46.7318   15.9270  -27.8039 C.3     1  UNL1        0.0047
     30 C          45.2917   16.0399  -27.3187 C.3     1  UNL1        0.0047
     31 O          50.7324   13.7449  -23.2585 O.3     1  UNL1       -0.4513
     32 C          51.0891   12.8719  -24.2956 C.ar    1  UNL1        0.1580
     33 C          50.0954   12.4803  -25.1990 C.ar    1  UNL1        0.0677
     34 C          50.3543   11.4984  -26.1578 C.ar    1  UNL1        0.1398
     35 F          49.3431   11.0660  -26.9530 F       1  UNL1       -0.2044
     36 C          51.6334   10.9253  -26.2510 C.ar    1  UNL1        0.0175
     37 C          52.6580   11.3907  -25.4119 C.ar    1  UNL1        0.0130
     38 C          52.4003   12.3726  -24.4503 C.ar    1  UNL1        0.0919
     39 CL         53.7449   12.9639  -23.4816 Cl      1  UNL1       -0.0791
     40 C          51.8757    9.7322  -27.1342 C.3     1  UNL1        0.1382
     41 C          52.5144   10.1879  -28.4086 C.2     1  UNL1        0.3234
     42 O          52.9440   11.3694  -28.5097 O.2     1  UNL1       -0.2497
     43 O          52.5865    9.2998  -29.4895 O.3     1  UNL1       -0.4215
     44 C          53.5955    8.3023  -29.6464 C.3     1  UNL1        0.3207
     45 O          54.8529    8.9558  -29.6124 O.3     1  UNL1       -0.3070
     46 C          55.9142    8.0177  -29.6622 C.3     1  UNL1        0.2456
     47 C          55.9041    7.2621  -31.0105 C.3     1  UNL1        0.1781
     48 O          56.9528    6.3264  -31.0794 O.3     1  UNL1       -0.3790
     49 C          54.5459    6.5698  -31.2148 C.3     1  UNL1        0.1733
     50 O          54.4864    6.0452  -32.5162 O.3     1  UNL1       -0.3793
     51 C          53.4059    7.5794  -30.9993 C.3     1  UNL1        0.2106
     52 O          52.1788    6.8960  -31.0188 O.3     1  UNL1       -0.3766
     53 H          56.8387    5.6885  -30.3269 H       1  UNL1        0.2106
     54 H          53.7792    5.3484  -32.5142 H       1  UNL1        0.2105
     55 H          51.5027    7.5218  -31.3885 H       1  UNL1        0.2107
     56 C          57.2137    8.7550  -29.4982 C.2     1  UNL1        0.3439
     57 O          58.3027    8.1235  -29.5296 O.2     1  UNL1       -0.2475
     58 O          57.2340   10.1400  -29.3543 O.3     1  UNL1       -0.4785
     59 H          56.3781   10.6815  -29.3430 H       1  UNL1        0.2951
@<TRIPOS>BOND
     1    12    13    1
     2    13    14    1
     3    13    15    1
     4    13     8    1
     5     8     9   am
     6     9    10    2
     7     9     1    1
     8     1     2   ar
     9     2     3   ar
    10     3     4   ar
    11     4    31    1
    12    31    32    1
    13    32    33   ar
    14    33    34   ar
    15    34    35    1
    16    34    36   ar
    17    36    40    1
    18    40    41    1
    19    41    42    2
    20    41    43    1
    21    43    44    1
    22    44    45    1
    23    45    46    1
    24    46    56    1
    25    56    57    2
    26    56    58    1
    27    46    47    1
    28    47    48    1
    29    47    49    1
    30    49    50    1
    31    49    51    1
    32    51    52    1
    33    36    37   ar
    34    37    38   ar
    35    38    39    1
    36     4     5   ar
    37     5    16    1
    38    16    18    1
    39    18    19    2
    40    18    20    2
    41    18    21    1
    42    21    22   ar
    43    22    23   ar
    44    23    24   ar
    45    24    28    1
    46    28    29    1
    47    29    30    1
    48    24    25   ar
    49    25    26   ar
    50    26    27    1
    51     5     6   ar
    52     6     7    1
    53     6     1   ar
    54    38    32   ar
    55    26    21   ar
    56    51    44    1
    57    30    28    1
    58     8    11    1
    59    58    59    1
    60    48    53    1
    61    50    54    1
    62    52    55    1
    63    16    17    1
@<TRIPOS>MOLECULE
*****
 59 63 0 0 0
SMALL
GASTEIGER

@<TRIPOS>ATOM
      1 C          51.7707   10.6187  -27.4318 C.ar    1  UNL1        0.0601
      2 C          52.5158   11.6690  -26.8812 C.ar    1  UNL1        0.0082
      3 C          51.9378   12.5436  -25.9648 C.ar    1  UNL1        0.0390
      4 C          50.6092   12.3850  -25.5684 C.ar    1  UNL1        0.1602
      5 C          49.8711   11.2697  -26.0399 C.ar    1  UNL1        0.1046
      6 C          50.4421   10.4065  -27.0005 C.ar    1  UNL1        0.0520
      7 I          49.3268    8.7121  -27.6732 I       1  UNL1       -0.0409
      8 N          51.6132    9.0155  -29.3801 N.am    1  UNL1       -0.3040
      9 C          52.4146    9.7532  -28.4388 C.2     1  UNL1        0.2462
     10 O          53.6728    9.7148  -28.4959 O.2     1  UNL1       -0.2701
     11 H          50.5878    9.2233  -29.3838 H       1  UNL1        0.1496
     12 C          52.5449    8.6973  -31.6311 C.3     1  UNL1        0.0196
     13 C          52.1285    8.0003  -30.3195 C.3     1  UNL1        0.0572
     14 C          53.3649    7.3012  -29.7222 C.3     1  UNL1        0.0196
     15 C          51.0323    6.9660  -30.6430 C.3     1  UNL1        0.0196
     16 N          48.5575   10.9955  -25.5385 N.pl3   1  UNL1       -0.2116
     17 H          48.4472   10.3147  -24.7544 H       1  UNL1        0.1739
     18 S          47.2294   12.0617  -25.8607 S.O2    1  UNL1        0.0745
     19 O          47.6010   13.4476  -25.4127 O.2     1  UNL1       -0.1499
     20 O          46.0116   11.6342  -25.0903 O.2     1  UNL1       -0.1499
     21 C          46.8856   12.0689  -27.5935 C.ar    1  UNL1        0.1356
     22 C          47.0588   10.8835  -28.3187 C.ar    1  UNL1        0.0207
     23 C          46.7510   10.8270  -29.6786 C.ar    1  UNL1       -0.0028
     24 C          46.2559   11.9643  -30.3477 C.ar    1  UNL1       -0.0216
     25 C          46.0922   13.1530  -29.6198 C.ar    1  UNL1        0.0085
     26 C          46.4020   13.2156  -28.2561 C.ar    1  UNL1        0.0762
     27 CL         46.1463   14.7457  -27.4231 Cl      1  UNL1       -0.0809
     28 C          45.8756   11.9783  -31.8188 C.3     1  UNL1        0.0224
     29 C          45.9559   13.3174  -32.5393 C.3     1  UNL1        0.0047
     30 C          44.5982   12.7089  -32.2099 C.3     1  UNL1        0.0047
     31 O          50.0706   13.3547  -24.7050 O.3     1  UNL1       -0.4513
     32 C          50.5615   13.6710  -23.4306 C.ar    1  UNL1        0.1580
     33 C          51.9284   13.4975  -23.1888 C.ar    1  UNL1        0.0677
     34 C          52.4467   13.6507  -21.9010 C.ar    1  UNL1        0.1398
     35 F          53.7570   13.3765  -21.6774 F       1  UNL1       -0.2044
     36 C          51.6028   14.0246  -20.8422 C.ar    1  UNL1        0.0175
     37 C          50.2509   14.2976  -21.1041 C.ar    1  UNL1        0.0130
     38 C          49.7298   14.1434  -22.3925 C.ar    1  UNL1        0.0919
     39 CL         48.0458   14.5729  -22.6675 Cl      1  UNL1       -0.0791
     40 C          52.0974   13.9975  -19.4221 C.3     1  UNL1        0.1382
     41 C          51.8008   12.6573  -18.8257 C.2     1  UNL1        0.3234
     42 O          52.6475   11.7270  -18.9162 O.2     1  UNL1       -0.2497
     43 O          50.5608   12.4459  -18.2092 O.3     1  UNL1       -0.4215
     44 C          49.5037   11.6688  -18.7716 C.3     1  UNL1        0.3207
     45 O          49.8243   11.4300  -20.1315 O.3     1  UNL1       -0.3070
     46 C          48.8679   10.5766  -20.7364 C.3     1  UNL1        0.2456
     47 C          47.4827   11.2610  -20.7769 C.3     1  UNL1        0.1781
     48 O          46.5192   10.4288  -21.3762 O.3     1  UNL1       -0.3790
     49 C          47.0493   11.6548  -19.3547 C.3     1  UNL1        0.1733
     50 O          45.8831   12.4342  -19.4267 O.3     1  UNL1       -0.3793
     51 C          48.1728   12.4473  -18.6655 C.3     1  UNL1        0.2106
     52 O          47.8318   12.6479  -17.3177 O.3     1  UNL1       -0.3766
     53 H          46.4729    9.5899  -20.8466 H       1  UNL1        0.2106
     54 H          45.4542   12.3947  -18.5323 H       1  UNL1        0.2105
     55 H          48.2289   13.5151  -17.0427 H       1  UNL1        0.2107
     56 C          49.3235   10.2599  -22.1333 C.2     1  UNL1        0.3439
     57 O          48.4758    9.9946  -23.0258 O.2     1  UNL1       -0.2475
     58 O          50.6748   10.2979  -22.4680 O.3     1  UNL1       -0.4785
     59 H          51.3822   10.5254  -21.7796 H       1  UNL1        0.2951
@<TRIPOS>BOND
     1    12    13    1
     2    13    14    1
     3    13    15    1
     4    13     8    1
     5     8     9   am
     6     9    10    2
     7     9     1    1
     8     1     2   ar
     9     2     3   ar
    10     3     4   ar
    11     4    31    1
    12    31    32    1
    13    32    33   ar
    14    33    34   ar
    15    34    35    1
    16    34    36   ar
    17    36    40    1
    18    40    41    1
    19    41    42    2
    20    41    43    1
    21    43    44    1
    22    44    45    1
    23    45    46    1
    24    46    56    1
    25    56    57    2
    26    56    58    1
    27    46    47    1
    28    47    48    1
    29    47    49    1
    30    49    50    1
    31    49    51    1
    32    51    52    1
    33    36    37   ar
    34    37    38   ar
    35    38    39    1
    36     4     5   ar
    37     5    16    1
    38    16    18    1
    39    18    19    2
    40    18    20    2
    41    18    21    1
    42    21    22   ar
    43    22    23   ar
    44    23    24   ar
    45    24    28    1
    46    28    29    1
    47    29    30    1
    48    24    25   ar
    49    25    26   ar
    50    26    27    1
    51     5     6   ar
    52     6     7    1
    53     6     1   ar
    54    38    32   ar
    55    26    21   ar
    56    51    44    1
    57    30    28    1
    58     8    11    1
    59    58    59    1
    60    48    53    1
    61    50    54    1
    62    52    55    1
    63    16    17    1
@<TRIPOS>MOLECULE
*****
 59 63 0 0 0
SMALL
GASTEIGER

@<TRIPOS>ATOM
      1 C          49.9966   12.2791  -19.0431 C.ar    1  UNL1        0.0601
      2 C          51.2698   12.6212  -19.5157 C.ar    1  UNL1        0.0082
      3 C          51.4730   12.9037  -20.8639 C.ar    1  UNL1        0.0390
      4 C          50.4114   12.8624  -21.7688 C.ar    1  UNL1        0.1602
      5 C          49.0994   12.6150  -21.2909 C.ar    1  UNL1        0.1046
      6 C          48.8983   12.2877  -19.9320 C.ar    1  UNL1        0.0520
      7 I          46.9101   11.9519  -19.2240 I       1  UNL1       -0.0409
      8 N          49.5244   12.9591  -16.6545 N.am    1  UNL1       -0.3040
      9 C          49.8457   11.9366  -17.6157 C.2     1  UNL1        0.2462
     10 O          49.9474   10.7311  -17.2631 O.2     1  UNL1       -0.2701
     11 H          49.2902   13.9036  -17.0385 H       1  UNL1        0.1496
     12 C          48.7607   13.9541  -14.5419 C.3     1  UNL1        0.0196
     13 C          49.5087   12.7712  -15.1906 C.3     1  UNL1        0.0572
     14 C          48.7712   11.4676  -14.8290 C.3     1  UNL1        0.0196
     15 C          50.9481   12.7428  -14.6397 C.3     1  UNL1        0.0196
     16 N          47.9701   12.7123  -22.1668 N.pl3   1  UNL1       -0.2116
     17 H          47.6326   13.6578  -22.4540 H       1  UNL1        0.1739
     18 S          47.4424   11.3574  -23.1103 S.O2    1  UNL1        0.0745
     19 O          46.2533   11.7722  -23.9310 O.2     1  UNL1       -0.1499
     20 O          47.0191   10.2256  -22.2162 O.2     1  UNL1       -0.1499
     21 C          48.7499   10.8371  -24.1782 C.ar    1  UNL1        0.1356
     22 C          48.7916   11.3394  -25.4848 C.ar    1  UNL1        0.0207
     23 C          49.8332   10.9977  -26.3482 C.ar    1  UNL1       -0.0028
     24 C          50.8665   10.1409  -25.9184 C.ar    1  UNL1       -0.0216
     25 C          50.8167    9.6323  -24.6114 C.ar    1  UNL1        0.0085
     26 C          49.7725    9.9700  -23.7422 C.ar    1  UNL1        0.0762
     27 CL         49.8054    9.2972  -22.1154 Cl      1  UNL1       -0.0809
     28 C          52.0463    9.7401  -26.7882 C.3     1  UNL1        0.0224
     29 C          52.5212   10.7568  -27.8176 C.3     1  UNL1        0.0047
     30 C          51.7821    9.5029  -28.2690 C.3     1  UNL1        0.0047
     31 O          50.7082   13.0771  -23.1258 O.3     1  UNL1       -0.4513
     32 C          50.5094   14.2779  -23.8213 C.ar    1  UNL1        0.1580
     33 C          50.4882   14.2344  -25.2194 C.ar    1  UNL1        0.0677
     34 C          50.4459   15.4140  -25.9659 C.ar    1  UNL1        0.1398
     35 F          50.5295   15.3452  -27.3187 F       1  UNL1       -0.2044
     36 C          50.3799   16.6571  -25.3151 C.ar    1  UNL1        0.0175
     37 C          50.2986   16.6963  -23.9142 C.ar    1  UNL1        0.0130
     38 C          50.3423   15.5164  -23.1650 C.ar    1  UNL1        0.0919
     39 CL         50.1614   15.6308  -21.4185 Cl      1  UNL1       -0.0791
     40 C          50.5371   17.9367  -26.0898 C.3     1  UNL1        0.1382
     41 C          49.2151   18.6349  -26.1557 C.2     1  UNL1        0.3234
     42 O          48.9604   19.5767  -25.3564 O.2     1  UNL1       -0.2497
     43 O          48.2605   18.1991  -27.0836 O.3     1  UNL1       -0.4215
     44 C          47.1679   17.3357  -26.7700 C.3     1  UNL1        0.3207
     45 O          47.4154   16.7790  -25.4902 O.3     1  UNL1       -0.3070
     46 C          46.3228   15.9841  -25.0622 C.3     1  UNL1        0.2456
     47 C          46.1478   14.7617  -25.9917 C.3     1  UNL1        0.1781
     48 O          45.0676   13.9585  -25.5813 O.3     1  UNL1       -0.3790
     49 C          45.9543   15.2292  -27.4441 C.3     1  UNL1        0.1733
     50 O          45.9811   14.1128  -28.2958 O.3     1  UNL1       -0.3793
     51 C          47.0699   16.2150  -27.8299 C.3     1  UNL1        0.2106
     52 O          46.7825   16.7615  -29.0916 O.3     1  UNL1       -0.3766
     53 H          44.2497   14.5217  -25.5960 H       1  UNL1        0.2106
     54 H          45.5400   14.3853  -29.1425 H       1  UNL1        0.2105
     55 H          47.6518   16.9467  -29.5337 H       1  UNL1        0.2107
     56 C          46.5864   15.5243  -23.6557 C.2     1  UNL1        0.3439
     57 O          47.1904   16.2806  -22.8502 O.2     1  UNL1       -0.2475
     58 O          46.1322   14.2840  -23.2145 O.3     1  UNL1       -0.4785
     59 H          45.6273   13.6579  -23.8302 H       1  UNL1        0.2951
@<TRIPOS>BOND
     1    12    13    1
     2    13    14    1
     3    13    15    1
     4    13     8    1
     5     8     9   am
     6     9    10    2
     7     9     1    1
     8     1     2   ar
     9     2     3   ar
    10     3     4   ar
    11     4    31    1
    12    31    32    1
    13    32    33   ar
    14    33    34   ar
    15    34    35    1
    16    34    36   ar
    17    36    40    1
    18    40    41    1
    19    41    42    2
    20    41    43    1
    21    43    44    1
    22    44    45    1
    23    45    46    1
    24    46    56    1
    25    56    57    2
    26    56    58    1
    27    46    47    1
    28    47    48    1
    29    47    49    1
    30    49    50    1
    31    49    51    1
    32    51    52    1
    33    36    37   ar
    34    37    38   ar
    35    38    39    1
    36     4     5   ar
    37     5    16    1
    38    16    18    1
    39    18    19    2
    40    18    20    2
    41    18    21    1
    42    21    22   ar
    43    22    23   ar
    44    23    24   ar
    45    24    28    1
    46    28    29    1
    47    29    30    1
    48    24    25   ar
    49    25    26   ar
    50    26    27    1
    51     5     6   ar
    52     6     7    1
    53     6     1   ar
    54    38    32   ar
    55    26    21   ar
    56    51    44    1
    57    30    28    1
    58     8    11    1
    59    58    59    1
    60    48    53    1
    61    50    54    1
    62    52    55    1
    63    16    17    1
@<TRIPOS>MOLECULE
*****
 59 63 0 0 0
SMALL
GASTEIGER

@<TRIPOS>ATOM
      1 C          49.4753   14.4888  -25.5804 C.ar    1  UNL1        0.0601
      2 C          50.1525   13.2665  -25.6752 C.ar    1  UNL1        0.0082
      3 C          49.6076   12.1099  -25.1237 C.ar    1  UNL1        0.0390
      4 C          48.3722   12.1428  -24.4756 C.ar    1  UNL1        0.1602
      5 C          47.6283   13.3500  -24.4573 C.ar    1  UNL1        0.1046
      6 C          48.1975   14.5322  -24.9791 C.ar    1  UNL1        0.0520
      7 I          47.0475   16.3335  -24.9731 I       1  UNL1       -0.0409
      8 N          50.5845   16.7373  -25.2567 N.am    1  UNL1       -0.3040
      9 C          50.1212   15.6945  -26.1343 C.2     1  UNL1        0.2462
     10 O          50.3093   15.7694  -27.3781 O.2     1  UNL1       -0.2701
     11 H          50.5474   16.5348  -24.2309 H       1  UNL1        0.1496
     12 C          49.9178   19.0478  -25.7604 C.3     1  UNL1        0.0196
     13 C          51.0935   18.0512  -25.6963 C.3     1  UNL1        0.0572
     14 C          52.1326   18.5832  -24.6907 C.3     1  UNL1        0.0196
     15 C          51.7164   17.9401  -27.1019 C.3     1  UNL1        0.0196
     16 N          46.2957   13.3815  -23.9325 N.pl3   1  UNL1       -0.2116
     17 H          46.1105   13.9148  -23.0540 H       1  UNL1        0.1739
     18 S          44.9300   12.9675  -24.9163 S.O2    1  UNL1        0.0745
     19 O          43.9096   14.0666  -24.8158 O.2     1  UNL1       -0.1499
     20 O          44.2946   11.6961  -24.4273 O.2     1  UNL1       -0.1499
     21 C          45.4461   12.7868  -26.5961 C.ar    1  UNL1        0.1356
     22 C          45.7779   11.5094  -27.0642 C.ar    1  UNL1        0.0207
     23 C          46.1413   11.3093  -28.3966 C.ar    1  UNL1       -0.0028
     24 C          46.1781   12.3920  -29.2982 C.ar    1  UNL1       -0.0216
     25 C          45.8537   13.6721  -28.8233 C.ar    1  UNL1        0.0085
     26 C          45.4910   13.8785  -27.4871 C.ar    1  UNL1        0.0762
     27 CL         45.0832   15.5172  -26.9883 Cl      1  UNL1       -0.0809
     28 C          46.5402   12.2539  -30.7674 C.3     1  UNL1        0.0224
     29 C          46.0566   13.3535  -31.7033 C.3     1  UNL1        0.0047
     30 C          45.4100   11.9743  -31.7489 C.3     1  UNL1        0.0047
     31 O          47.9256   10.9547  -23.8717 O.3     1  UNL1       -0.4513
     32 C          47.8128   10.7370  -22.4914 C.ar    1  UNL1        0.1580
     33 C          46.7366   11.3236  -21.8172 C.ar    1  UNL1        0.0677
     34 C          46.6562   11.2682  -20.4240 C.ar    1  UNL1        0.1398
     35 F          45.6565   11.9330  -19.7912 F       1  UNL1       -0.2044
     36 C          47.6371   10.5821  -19.6889 C.ar    1  UNL1        0.0175
     37 C          48.6613    9.9073  -20.3717 C.ar    1  UNL1        0.0130
     38 C          48.7443    9.9629  -21.7665 C.ar    1  UNL1        0.0919
     39 CL         50.0085    9.0346  -22.5640 Cl      1  UNL1       -0.0791
     40 C          47.6796   10.6817  -18.1888 C.3     1  UNL1        0.1382
     41 C          48.3214   11.9771  -17.8020 C.2     1  UNL1        0.3234
     42 O          47.6056   12.9890  -17.5685 O.2     1  UNL1       -0.2497
     43 O          49.7189   12.0546  -17.7466 O.3     1  UNL1       -0.4215
     44 C          50.5022   13.0057  -18.4673 C.3     1  UNL1        0.3207
     45 O          49.8516   13.2479  -19.7032 O.3     1  UNL1       -0.3070
     46 C          50.5176   14.2607  -20.4377 C.3     1  UNL1        0.2456
     47 C          51.9389   13.7972  -20.8299 C.3     1  UNL1        0.1781
     48 O          52.6160   14.7899  -21.5622 O.3     1  UNL1       -0.3790
     49 C          52.7340   13.4165  -19.5695 C.3     1  UNL1        0.1733
     50 O          53.9503   12.8273  -19.9514 O.3     1  UNL1       -0.3793
     51 C          51.9176   12.4351  -18.7119 C.3     1  UNL1        0.2106
     52 O          52.5798   12.2342  -17.4895 O.3     1  UNL1       -0.3766
     53 H          52.6638   15.6039  -20.9951 H       1  UNL1        0.2106
     54 H          54.5611   12.8953  -19.1718 H       1  UNL1        0.2105
     55 H          52.3802   11.3062  -17.1991 H       1  UNL1        0.2107
     56 C          49.7175   14.5607  -21.6743 C.2     1  UNL1        0.3439
     57 O          48.5432   14.1199  -21.7852 O.2     1  UNL1       -0.2475
     58 O          50.2429   15.3598  -22.6866 O.3     1  UNL1       -0.4785
     59 H          51.1771   15.7460  -22.6221 H       1  UNL1        0.2951
@<TRIPOS>BOND
     1    12    13    1
     2    13    14    1
     3    13    15    1
     4    13     8    1
     5     8     9   am
     6     9    10    2
     7     9     1    1
     8     1     2   ar
     9     2     3   ar
    10     3     4   ar
    11     4    31    1
    12    31    32    1
    13    32    33   ar
    14    33    34   ar
    15    34    35    1
    16    34    36   ar
    17    36    40    1
    18    40    41    1
    19    41    42    2
    20    41    43    1
    21    43    44    1
    22    44    45    1
    23    45    46    1
    24    46    56    1
    25    56    57    2
    26    56    58    1
    27    46    47    1
    28    47    48    1
    29    47    49    1
    30    49    50    1
    31    49    51    1
    32    51    52    1
    33    36    37   ar
    34    37    38   ar
    35    38    39    1
    36     4     5   ar
    37     5    16    1
    38    16    18    1
    39    18    19    2
    40    18    20    2
    41    18    21    1
    42    21    22   ar
    43    22    23   ar
    44    23    24   ar
    45    24    28    1
    46    28    29    1
    47    29    30    1
    48    24    25   ar
    49    25    26   ar
    50    26    27    1
    51     5     6   ar
    52     6     7    1
    53     6     1   ar
    54    38    32   ar
    55    26    21   ar
    56    51    44    1
    57    30    28    1
    58     8    11    1
    59    58    59    1
    60    48    53    1
    61    50    54    1
    62    52    55    1
    63    16    17    1
