@<TRIPOS>MOLECULE
*****
 51 57 0 0 0
SMALL
GASTEIGER

@<TRIPOS>ATOM
      1 C          63.8679   83.3094   13.3229 C.ar    1  UNL1        0.1388
      2 C          62.9385   82.7149   14.1822 C.ar    1  UNL1        0.0382
      3 C          62.3630   83.4484   15.2240 C.ar    1  UNL1        0.0176
      4 C          62.6972   84.8005   15.4159 C.ar    1  UNL1        0.0481
      5 C          63.6753   85.3766   14.5844 C.ar    1  UNL1        0.0176
      6 C          64.2737   84.6299   13.5681 C.ar    1  UNL1        0.0382
      7 N          62.0046   85.5885   16.4124 N.pl3   1  UNL1       -0.3041
      8 C          60.7453   86.2493   16.0595 C.3     1  UNL1        0.1122
      9 C          61.0551   87.6481   15.5104 C.3     1  UNL1        0.1122
     10 N          62.3649   88.1359   15.9836 N.pl3   1  UNL1       -0.3041
     11 C          62.8505   87.7346   17.3185 C.3     1  UNL1        0.1122
     12 C          62.7196   86.2094   17.5358 C.3     1  UNL1        0.1122
     13 C          63.0826   89.1073   15.1919 C.ar    1  UNL1        0.0480
     14 C          63.7760   90.1632   15.8058 C.ar    1  UNL1        0.0160
     15 C          64.5482   91.0460   15.0443 C.ar    1  UNL1        0.0190
     16 C          64.6547   90.8845   13.6510 C.ar    1  UNL1        0.0699
     17 C          63.9328   89.8476   13.0355 C.ar    1  UNL1        0.0190
     18 C          63.1595   88.9689   13.7963 C.ar    1  UNL1        0.0160
     19 N          65.5153   91.7345   12.8631 N.ar    1  UNL1       -0.2398
     20 C          66.5478   92.4952   13.2976 C.ar    1  UNL1        0.2073
     21 N          67.0724   93.2433   12.3032 N.ar    1  UNL1       -0.1442
     22 N          66.3614   92.9715   11.2189 N.ar    1  UNL1       -0.2024
     23 C          65.4355   92.0581   11.5560 C.ar    1  UNL1        0.3522
     24 O          64.5848   91.5932   10.7526 O.2     1  UNL1       -0.2444
     25 C          66.5897   93.5481    9.8883 C.3     1  UNL1        0.1099
     26 C          65.8487   94.8824    9.7266 C.3     1  UNL1        0.0265
     27 C          68.0984   93.6631    9.5856 C.3     1  UNL1        0.0245
     28 C          68.7230   92.3862    9.0189 C.3     1  UNL1        0.0021
     29 O          64.3536   82.5594   12.2404 O.3     1  UNL1       -0.4727
     30 C          63.8025   82.5464   10.9203 C.3     1  UNL1        0.2374
     31 C          60.8680   84.2602    9.9151 C.3     1  UNL1        0.2296
     32 O          60.5415   82.9725    9.4295 O.3     1  UNL1       -0.3267
     33 C          61.5213   82.1052    9.9083 C.3     1  UNL1        0.1783
     34 C          62.2966   82.8717   10.9430 C.3     1  UNL1        0.1909
     35 O          62.0781   84.2137   10.6447 O.3     1  UNL1       -0.3255
     36 C          59.7369   84.7818   10.8083 C.ar    1  UNL1        0.0409
     37 C          60.0521   85.4608   12.0074 C.ar    1  UNL1        0.0022
     38 C          59.0488   86.0001   12.8128 C.ar    1  UNL1        0.0113
     39 C          57.7134   85.9073   12.4260 C.ar    1  UNL1        0.0585
     40 CL         56.4607   86.6316   13.4165 Cl      1  UNL1       -0.0822
     41 C          57.3772   85.2609   11.2364 C.ar    1  UNL1        0.0226
     42 C          58.3709   84.7011   10.4235 C.ar    1  UNL1        0.0591
     43 CL         57.8423   83.9556    8.9168 Cl      1  UNL1       -0.0824
     44 C          61.0436   85.2261    8.7223 C.3     1  UNL1        0.1679
     45 C          60.5289   87.7018    8.9277 C.ar    1  UNL1        0.1205
     46 N          61.0729   88.8208    9.4561 N.ar    1  UNL1       -0.2293
     47 C          62.1995   88.3933   10.0607 C.ar    1  UNL1        0.1188
     48 C          62.3354   87.0366    9.8779 C.ar    1  UNL1        0.0979
     49 N          61.2813   86.6027    9.1667 N.ar    1  UNL1       -0.3084
     50 C          59.3077   88.8196    7.0201 C.3     1  UNL1        0.0084
     51 C          59.2927   87.7071    8.0658 C.3     1  UNL1        0.0640
@<TRIPOS>BOND
     1    50    51    1
     2    51    45    1
     3    45    46   ar
     4    46    47   ar
     5    47    48   ar
     6    48    49   ar
     7    49    44    1
     8    31    44    1
     9    31    36    1
    10    36    37   ar
    11    37    38   ar
    12    38    39   ar
    13    39    40    1
    14    39    41   ar
    15    41    42   ar
    16    42    43    1
    17    31    32    1
    18    32    33    1
    19    33    34    1
    20    34    30    1
    21    30    29    1
    22    29     1    1
    23     1     2   ar
    24     2     3   ar
    25     3     4   ar
    26     4     7    1
    27     7     8    1
    28     8     9    1
    29     9    10    1
    30    10    13    1
    31    13    14   ar
    32    14    15   ar
    33    15    16   ar
    34    16    19    1
    35    19    20   ar
    36    20    21   ar
    37    21    22   ar
    38    22    25    1
    39    25    26    1
    40    25    27    1
    41    27    28    1
    42    22    23   ar
    43    23    24    2
    44    16    17   ar
    45    17    18   ar
    46    10    11    1
    47    11    12    1
    48     4     5   ar
    49     5     6   ar
    50    34    35    1
    51    49    45   ar
    52    35    31    1
    53    42    36   ar
    54     6     1   ar
    55    12     7    1
    56    18    13   ar
    57    23    19   ar
@<TRIPOS>MOLECULE
*****
 51 57 0 0 0
SMALL
GASTEIGER

@<TRIPOS>ATOM
      1 C          64.1759   83.5793   13.6155 C.ar    1  UNL1        0.1388
      2 C          62.9363   83.1923   14.1344 C.ar    1  UNL1        0.0382
      3 C          62.3282   83.9348   15.1511 C.ar    1  UNL1        0.0176
      4 C          62.9454   85.0917   15.6583 C.ar    1  UNL1        0.0481
      5 C          64.2185   85.4434   15.1728 C.ar    1  UNL1        0.0176
      6 C          64.8378   84.6786   14.1829 C.ar    1  UNL1        0.0382
      7 N          62.2542   85.9261   16.6173 N.pl3   1  UNL1       -0.3041
      8 C          60.9185   86.4362   16.2965 C.3     1  UNL1        0.1122
      9 C          61.0609   87.7856   15.5800 C.3     1  UNL1        0.1122
     10 N          62.3502   88.4305   15.8947 N.pl3   1  UNL1       -0.3041
     11 C          62.9613   88.2231   17.2224 C.3     1  UNL1        0.1122
     12 C          62.9853   86.7264   17.6091 C.3     1  UNL1        0.1122
     13 C          62.9200   89.3633   14.9510 C.ar    1  UNL1        0.0480
     14 C          64.1233   90.0292   15.2364 C.ar    1  UNL1        0.0160
     15 C          64.7220   90.8581   14.2826 C.ar    1  UNL1        0.0190
     16 C          64.1365   91.0296   13.0151 C.ar    1  UNL1        0.0699
     17 C          62.9152   90.3890   12.7444 C.ar    1  UNL1        0.0190
     18 C          62.3167   89.5643   13.6986 C.ar    1  UNL1        0.0160
     19 N          64.7858   91.8129   11.9909 N.ar    1  UNL1       -0.2398
     20 C          64.2899   92.1652   10.7812 C.ar    1  UNL1        0.2073
     21 N          65.2073   92.8156   10.0335 N.ar    1  UNL1       -0.1442
     22 N          66.3107   92.8714   10.7646 N.ar    1  UNL1       -0.2024
     23 C          66.0508   92.2787   11.9421 C.ar    1  UNL1        0.3522
     24 O          66.8982   92.1513   12.8645 O.2     1  UNL1       -0.2444
     25 C          67.5682   93.5085   10.3551 C.3     1  UNL1        0.1099
     26 C          68.3899   92.5828    9.4477 C.3     1  UNL1        0.0265
     27 C          67.3081   94.8901    9.7190 C.3     1  UNL1        0.0245
     28 C          67.3398   94.8915    8.1891 C.3     1  UNL1        0.0021
     29 O          64.7063   82.8531   12.5378 O.3     1  UNL1       -0.4727
     30 C          64.1201   81.6899   11.9464 C.3     1  UNL1        0.2374
     31 C          61.4944   83.4403   10.3336 C.3     1  UNL1        0.2296
     32 O          62.5869   83.9896    9.6228 O.3     1  UNL1       -0.3267
     33 C          63.7151   83.2659   10.0035 C.3     1  UNL1        0.1783
     34 C          63.2142   82.0665   10.7582 C.3     1  UNL1        0.1909
     35 O          61.9419   82.4171   11.2007 O.3     1  UNL1       -0.3255
     36 C          60.4623   82.8790    9.3491 C.ar    1  UNL1        0.0409
     37 C          60.6079   83.1331    7.9663 C.ar    1  UNL1        0.0022
     38 C          59.7206   82.5877    7.0382 C.ar    1  UNL1        0.0113
     39 C          58.6909   81.7495    7.4612 C.ar    1  UNL1        0.0585
     40 CL         57.6097   81.0258    6.2855 Cl      1  UNL1       -0.0822
     41 C          58.5384   81.4656    8.8185 C.ar    1  UNL1        0.0226
     42 C          59.4116   82.0167    9.7648 C.ar    1  UNL1        0.0591
     43 CL         59.1630   81.5504   11.4459 Cl      1  UNL1       -0.0824
     44 C          60.8246   84.5483   11.1764 C.3     1  UNL1        0.1679
     45 C          60.6383   86.6894    9.8283 C.ar    1  UNL1        0.1205
     46 N          61.3158   87.8440    9.6405 N.ar    1  UNL1       -0.2293
     47 C          62.3647   87.7586   10.4831 C.ar    1  UNL1        0.1188
     48 C          62.3232   86.5572   11.1519 C.ar    1  UNL1        0.0979
     49 N          61.2342   85.8866   10.7404 N.ar    1  UNL1       -0.3084
     50 C          59.1671   87.2432    7.8512 C.3     1  UNL1        0.0084
     51 C          59.4296   86.2953    9.0191 C.3     1  UNL1        0.0640
@<TRIPOS>BOND
     1    50    51    1
     2    51    45    1
     3    45    46   ar
     4    46    47   ar
     5    47    48   ar
     6    48    49   ar
     7    49    44    1
     8    31    44    1
     9    31    36    1
    10    36    37   ar
    11    37    38   ar
    12    38    39   ar
    13    39    40    1
    14    39    41   ar
    15    41    42   ar
    16    42    43    1
    17    31    32    1
    18    32    33    1
    19    33    34    1
    20    34    30    1
    21    30    29    1
    22    29     1    1
    23     1     2   ar
    24     2     3   ar
    25     3     4   ar
    26     4     7    1
    27     7     8    1
    28     8     9    1
    29     9    10    1
    30    10    13    1
    31    13    14   ar
    32    14    15   ar
    33    15    16   ar
    34    16    19    1
    35    19    20   ar
    36    20    21   ar
    37    21    22   ar
    38    22    25    1
    39    25    26    1
    40    25    27    1
    41    27    28    1
    42    22    23   ar
    43    23    24    2
    44    16    17   ar
    45    17    18   ar
    46    10    11    1
    47    11    12    1
    48     4     5   ar
    49     5     6   ar
    50    34    35    1
    51    49    45   ar
    52    35    31    1
    53    42    36   ar
    54     6     1   ar
    55    12     7    1
    56    18    13   ar
    57    23    19   ar
@<TRIPOS>MOLECULE
*****
 51 57 0 0 0
SMALL
GASTEIGER

@<TRIPOS>ATOM
      1 C          58.6649   82.7611    9.4915 C.ar    1  UNL1        0.1388
      2 C          58.3457   82.5905   10.8423 C.ar    1  UNL1        0.0382
      3 C          59.1320   81.7742   11.6609 C.ar    1  UNL1        0.0176
      4 C          60.2657   81.1232   11.1436 C.ar    1  UNL1        0.0481
      5 C          60.5485   81.2525    9.7713 C.ar    1  UNL1        0.0176
      6 C          59.7399   82.0400    8.9501 C.ar    1  UNL1        0.0382
      7 N          61.1468   80.3848   12.0223 N.pl3   1  UNL1       -0.3041
      8 C          60.7371   80.1328   13.4064 C.3     1  UNL1        0.1122
      9 C          61.2189   81.2938   14.2863 C.3     1  UNL1        0.1122
     10 N          62.3617   81.9976   13.6733 N.pl3   1  UNL1       -0.3041
     11 C          63.3219   81.2410   12.8459 C.3     1  UNL1        0.1122
     12 C          62.5998   80.3534   11.8061 C.3     1  UNL1        0.1122
     13 C          62.5977   83.3825   14.0080 C.ar    1  UNL1        0.0480
     14 C          61.5270   84.2442   14.2973 C.ar    1  UNL1        0.0160
     15 C          61.7628   85.5581   14.7137 C.ar    1  UNL1        0.0190
     16 C          63.0772   86.0364   14.8630 C.ar    1  UNL1        0.0699
     17 C          64.1460   85.1827   14.5403 C.ar    1  UNL1        0.0190
     18 C          63.9093   83.8722   14.1214 C.ar    1  UNL1        0.0160
     19 N          63.3376   87.3614   15.3736 N.ar    1  UNL1       -0.2398
     20 C          63.1308   87.8174   16.6316 C.ar    1  UNL1        0.2073
     21 N          63.3911   89.1385   16.7350 N.ar    1  UNL1       -0.1442
     22 N          63.7570   89.5408   15.5269 N.ar    1  UNL1       -0.2024
     23 C          63.7342   88.4701   14.7156 C.ar    1  UNL1        0.3522
     24 O          64.0184   88.5137   13.4898 O.2     1  UNL1       -0.2444
     25 C          64.1514   90.9096   15.1720 C.3     1  UNL1        0.1099
     26 C          64.1099   91.8345   16.3961 C.3     1  UNL1        0.0265
     27 C          65.5198   90.9248   14.4591 C.3     1  UNL1        0.0245
     28 C          66.5312   91.9004   15.0650 C.3     1  UNL1        0.0021
     29 O          57.8977   83.6570    8.7306 O.3     1  UNL1       -0.4727
     30 C          58.4070   84.7641    7.9813 C.3     1  UNL1        0.2374
     31 C          60.4485   87.1055    9.6870 C.3     1  UNL1        0.2296
     32 O          59.8271   87.9882    8.7730 O.3     1  UNL1       -0.3267
     33 C          58.8306   87.2584    8.1282 C.3     1  UNL1        0.1783
     34 C          58.6829   85.9740    8.8947 C.3     1  UNL1        0.1909
     35 O          59.8865   85.8130    9.5752 O.3     1  UNL1       -0.3255
     36 C          60.2759   87.6304   11.1167 C.ar    1  UNL1        0.0409
     37 C          59.5807   86.8487   12.0673 C.ar    1  UNL1        0.0022
     38 C          59.4574   87.2694   13.3916 C.ar    1  UNL1        0.0113
     39 C          60.0525   88.4587   13.8078 C.ar    1  UNL1        0.0585
     40 CL         59.9376   88.9571   15.4851 Cl      1  UNL1       -0.0822
     41 C          60.7624   89.2381   12.8942 C.ar    1  UNL1        0.0226
     42 C          60.8834   88.8375   11.5576 C.ar    1  UNL1        0.0591
     43 CL         61.8463   89.8674   10.5006 Cl      1  UNL1       -0.0824
     44 C          61.9578   87.0204    9.3686 C.3     1  UNL1        0.1679
     45 C          62.8417   84.7649    8.6153 C.ar    1  UNL1        0.1205
     46 N          63.2390   83.5892    9.1514 N.ar    1  UNL1       -0.2293
     47 C          63.1331   83.7744   10.4826 C.ar    1  UNL1        0.1188
     48 C          62.6592   85.0407   10.7364 C.ar    1  UNL1        0.0979
     49 N          62.4790   85.6636    9.5598 N.ar    1  UNL1       -0.3084
     50 C          61.5438   84.2117    6.5203 C.3     1  UNL1        0.0084
     51 C          62.7020   84.9959    7.1327 C.3     1  UNL1        0.0640
@<TRIPOS>BOND
     1    50    51    1
     2    51    45    1
     3    45    46   ar
     4    46    47   ar
     5    47    48   ar
     6    48    49   ar
     7    49    44    1
     8    31    44    1
     9    31    36    1
    10    36    37   ar
    11    37    38   ar
    12    38    39   ar
    13    39    40    1
    14    39    41   ar
    15    41    42   ar
    16    42    43    1
    17    31    32    1
    18    32    33    1
    19    33    34    1
    20    34    30    1
    21    30    29    1
    22    29     1    1
    23     1     2   ar
    24     2     3   ar
    25     3     4   ar
    26     4     7    1
    27     7     8    1
    28     8     9    1
    29     9    10    1
    30    10    13    1
    31    13    14   ar
    32    14    15   ar
    33    15    16   ar
    34    16    19    1
    35    19    20   ar
    36    20    21   ar
    37    21    22   ar
    38    22    25    1
    39    25    26    1
    40    25    27    1
    41    27    28    1
    42    22    23   ar
    43    23    24    2
    44    16    17   ar
    45    17    18   ar
    46    10    11    1
    47    11    12    1
    48     4     5   ar
    49     5     6   ar
    50    34    35    1
    51    49    45   ar
    52    35    31    1
    53    42    36   ar
    54     6     1   ar
    55    12     7    1
    56    18    13   ar
    57    23    19   ar
@<TRIPOS>MOLECULE
*****
 51 57 0 0 0
SMALL
GASTEIGER

@<TRIPOS>ATOM
      1 C          58.8856   83.0858   11.4519 C.ar    1  UNL1        0.1388
      2 C          59.0852   82.1011   12.4247 C.ar    1  UNL1        0.0382
      3 C          60.3717   81.6338   12.7095 C.ar    1  UNL1        0.0176
      4 C          61.4881   82.1568   12.0337 C.ar    1  UNL1        0.0481
      5 C          61.2755   83.1052   11.0161 C.ar    1  UNL1        0.0176
      6 C          59.9857   83.5426   10.7105 C.ar    1  UNL1        0.0382
      7 N          62.8255   81.7635   12.4217 N.pl3   1  UNL1       -0.3041
      8 C          63.1210   81.5155   13.8352 C.3     1  UNL1        0.1122
      9 C          63.5731   82.8293   14.4862 C.3     1  UNL1        0.1122
     10 N          64.1032   83.7738   13.4842 N.pl3   1  UNL1       -0.3041
     11 C          64.8023   83.2528   12.2931 C.3     1  UNL1        0.1122
     12 C          63.9982   82.1214   11.6121 C.3     1  UNL1        0.1122
     13 C          64.0519   85.1912   13.7560 C.ar    1  UNL1        0.0480
     14 C          64.7624   85.7420   14.8352 C.ar    1  UNL1        0.0160
     15 C          64.7883   87.1251   15.0391 C.ar    1  UNL1        0.0190
     16 C          64.1137   87.9909   14.1592 C.ar    1  UNL1        0.0699
     17 C          63.3759   87.4349   13.1001 C.ar    1  UNL1        0.0190
     18 C          63.3480   86.0536   12.8995 C.ar    1  UNL1        0.0160
     19 N          64.2016   89.4243   14.3064 N.ar    1  UNL1       -0.2398
     20 C          63.2108   90.3335   14.1475 C.ar    1  UNL1        0.2073
     21 N          63.6684   91.5987   14.2634 N.ar    1  UNL1       -0.1442
     22 N          64.9709   91.5040   14.4863 N.ar    1  UNL1       -0.2024
     23 C          65.2851   90.1982   14.5222 C.ar    1  UNL1        0.3522
     24 O          66.4526   89.7632   14.7036 O.2     1  UNL1       -0.2444
     25 C          65.8805   92.6373   14.6940 C.3     1  UNL1        0.1099
     26 C          66.5673   92.5542   16.0641 C.3     1  UNL1        0.0265
     27 C          66.8853   92.7622   13.5297 C.3     1  UNL1        0.0245
     28 C          66.2396   93.0534   12.1732 C.3     1  UNL1        0.0021
     29 O          57.5875   83.5846   11.2614 O.3     1  UNL1       -0.4727
     30 C          57.2169   84.9664   11.2572 C.3     1  UNL1        0.2374
     31 C          58.9466   87.5339   12.9821 C.3     1  UNL1        0.2296
     32 O          57.6383   87.8083   13.4445 O.3     1  UNL1       -0.3267
     33 C          56.8319   86.7602   13.0055 C.3     1  UNL1        0.1783
     34 C          57.7620   85.6921   12.5023 C.3     1  UNL1        0.1909
     35 O          58.9516   86.3518   12.2065 O.3     1  UNL1       -0.3255
     36 C          59.8988   87.3832   14.1737 C.ar    1  UNL1        0.0409
     37 C          60.2880   88.5289   14.9044 C.ar    1  UNL1        0.0022
     38 C          61.1052   88.4200   16.0298 C.ar    1  UNL1        0.0113
     39 C          61.5238   87.1673   16.4738 C.ar    1  UNL1        0.0585
     40 CL         62.5086   87.0326   17.9185 Cl      1  UNL1       -0.0822
     41 C          61.1360   86.0192   15.7829 C.ar    1  UNL1        0.0226
     42 C          60.3280   86.1118   14.6426 C.ar    1  UNL1        0.0591
     43 CL         59.8520   84.5975   13.8774 Cl      1  UNL1       -0.0824
     44 C          59.4339   88.7072   12.1030 C.3     1  UNL1        0.1679
     45 C          61.5114   89.0130   10.6796 C.ar    1  UNL1        0.1205
     46 N          62.2576   88.3166    9.7931 N.ar    1  UNL1       -0.2293
     47 C          61.6699   87.1046    9.7387 C.ar    1  UNL1        0.1188
     48 C          60.5735   87.0851   10.5694 C.ar    1  UNL1        0.0979
     49 N          60.4770   88.2865   11.1629 N.ar    1  UNL1       -0.3084
     50 C          63.0849   90.9791   10.4832 C.3     1  UNL1        0.0084
     51 C          61.7383   90.4697   10.9918 C.3     1  UNL1        0.0640
@<TRIPOS>BOND
     1    50    51    1
     2    51    45    1
     3    45    46   ar
     4    46    47   ar
     5    47    48   ar
     6    48    49   ar
     7    49    44    1
     8    31    44    1
     9    31    36    1
    10    36    37   ar
    11    37    38   ar
    12    38    39   ar
    13    39    40    1
    14    39    41   ar
    15    41    42   ar
    16    42    43    1
    17    31    32    1
    18    32    33    1
    19    33    34    1
    20    34    30    1
    21    30    29    1
    22    29     1    1
    23     1     2   ar
    24     2     3   ar
    25     3     4   ar
    26     4     7    1
    27     7     8    1
    28     8     9    1
    29     9    10    1
    30    10    13    1
    31    13    14   ar
    32    14    15   ar
    33    15    16   ar
    34    16    19    1
    35    19    20   ar
    36    20    21   ar
    37    21    22   ar
    38    22    25    1
    39    25    26    1
    40    25    27    1
    41    27    28    1
    42    22    23   ar
    43    23    24    2
    44    16    17   ar
    45    17    18   ar
    46    10    11    1
    47    11    12    1
    48     4     5   ar
    49     5     6   ar
    50    34    35    1
    51    49    45   ar
    52    35    31    1
    53    42    36   ar
    54     6     1   ar
    55    12     7    1
    56    18    13   ar
    57    23    19   ar
@<TRIPOS>MOLECULE
*****
 51 57 0 0 0
SMALL
GASTEIGER

@<TRIPOS>ATOM
      1 C          61.8530   80.5427   11.4750 C.ar    1  UNL1        0.1388
      2 C          62.3245   81.4941   10.5649 C.ar    1  UNL1        0.0382
      3 C          61.4998   81.9671    9.5398 C.ar    1  UNL1        0.0176
      4 C          60.1775   81.5057    9.4159 C.ar    1  UNL1        0.0481
      5 C          59.7277   80.5066   10.2988 C.ar    1  UNL1        0.0176
      6 C          60.5665   80.0113   11.2984 C.ar    1  UNL1        0.0382
      7 N          59.2897   82.0917    8.4350 N.pl3   1  UNL1       -0.3041
      8 C          59.8154   82.4603    7.1179 C.3     1  UNL1        0.1122
      9 C          60.3252   83.9065    7.1733 C.3     1  UNL1        0.1122
     10 N          59.6802   84.6648    8.2624 N.pl3   1  UNL1       -0.3041
     11 C          58.2891   84.3496    8.6423 C.3     1  UNL1        0.1122
     12 C          58.0828   82.8292    8.8328 C.3     1  UNL1        0.1122
     13 C          60.3719   85.7928    8.8409 C.ar    1  UNL1        0.0480
     14 C          59.6651   86.9336    9.2552 C.ar    1  UNL1        0.0160
     15 C          60.3241   87.9839    9.9017 C.ar    1  UNL1        0.0190
     16 C          61.7049   87.9110   10.1602 C.ar    1  UNL1        0.0699
     17 C          62.4156   86.7835    9.7145 C.ar    1  UNL1        0.0190
     18 C          61.7572   85.7370    9.0662 C.ar    1  UNL1        0.0160
     19 N          62.3828   88.9476   10.9018 N.ar    1  UNL1       -0.2398
     20 C          62.6138   90.2244   10.5145 C.ar    1  UNL1        0.2073
     21 N          63.3649   90.8934   11.4155 N.ar    1  UNL1       -0.1442
     22 N          63.6319   90.0342   12.3879 N.ar    1  UNL1       -0.2024
     23 C          63.0322   88.8716   12.0817 C.ar    1  UNL1        0.3522
     24 O          63.1006   87.8380   12.7974 O.2     1  UNL1       -0.2444
     25 C          64.4123   90.3344   13.5945 C.3     1  UNL1        0.1099
     26 C          65.1461   91.6759   13.4617 C.3     1  UNL1        0.0265
     27 C          63.5298   90.2598   14.8581 C.3     1  UNL1        0.0245
     28 C          63.9556   91.2131   15.9770 C.3     1  UNL1        0.0021
     29 O          62.6875   80.1621   12.5375 O.3     1  UNL1       -0.4727
     30 C          63.6924   80.9801   13.1436 C.3     1  UNL1        0.2374
     31 C          61.9287   84.0030   13.7011 C.3     1  UNL1        0.2296
     32 O          60.9861   83.1007   14.2469 O.3     1  UNL1       -0.3267
     33 C          61.6035   81.8521   14.2833 C.3     1  UNL1        0.1783
     34 C          63.0607   82.0918   14.0034 C.3     1  UNL1        0.1909
     35 O          63.1101   83.3150   13.3408 O.3     1  UNL1       -0.3255
     36 C          62.2512   85.0996   14.7222 C.ar    1  UNL1        0.0409
     37 C          61.2294   85.5859   15.5692 C.ar    1  UNL1        0.0022
     38 C          61.5022   86.5403   16.5495 C.ar    1  UNL1        0.0113
     39 C          62.8029   87.0055   16.7325 C.ar    1  UNL1        0.0585
     40 CL         63.1490   88.1670   17.9998 Cl      1  UNL1       -0.0822
     41 C          63.8333   86.5257   15.9239 C.ar    1  UNL1        0.0226
     42 C          63.5741   85.5784   14.9253 C.ar    1  UNL1        0.0591
     43 CL         64.9557   84.9995   13.9973 Cl      1  UNL1       -0.0824
     44 C          61.3322   84.6618   12.4374 C.3     1  UNL1        0.1679
     45 C          59.0160   85.6544   12.7299 C.ar    1  UNL1        0.1205
     46 N          57.7221   85.2647   12.6922 N.ar    1  UNL1       -0.2293
     47 C          57.7743   83.9590   12.3610 C.ar    1  UNL1        0.1188
     48 C          59.0865   83.5699   12.2218 C.ar    1  UNL1        0.0979
     49 N          59.8665   84.6393   12.4518 N.ar    1  UNL1       -0.3084
     50 C          58.2833   87.9858   13.3685 C.3     1  UNL1        0.0084
     51 C          59.4559   87.0310   13.1571 C.3     1  UNL1        0.0640
@<TRIPOS>BOND
     1    50    51    1
     2    51    45    1
     3    45    46   ar
     4    46    47   ar
     5    47    48   ar
     6    48    49   ar
     7    49    44    1
     8    31    44    1
     9    31    36    1
    10    36    37   ar
    11    37    38   ar
    12    38    39   ar
    13    39    40    1
    14    39    41   ar
    15    41    42   ar
    16    42    43    1
    17    31    32    1
    18    32    33    1
    19    33    34    1
    20    34    30    1
    21    30    29    1
    22    29     1    1
    23     1     2   ar
    24     2     3   ar
    25     3     4   ar
    26     4     7    1
    27     7     8    1
    28     8     9    1
    29     9    10    1
    30    10    13    1
    31    13    14   ar
    32    14    15   ar
    33    15    16   ar
    34    16    19    1
    35    19    20   ar
    36    20    21   ar
    37    21    22   ar
    38    22    25    1
    39    25    26    1
    40    25    27    1
    41    27    28    1
    42    22    23   ar
    43    23    24    2
    44    16    17   ar
    45    17    18   ar
    46    10    11    1
    47    11    12    1
    48     4     5   ar
    49     5     6   ar
    50    34    35    1
    51    49    45   ar
    52    35    31    1
    53    42    36   ar
    54     6     1   ar
    55    12     7    1
    56    18    13   ar
    57    23    19   ar
@<TRIPOS>MOLECULE
*****
 51 57 0 0 0
SMALL
GASTEIGER

@<TRIPOS>ATOM
      1 C          58.9736   85.8007    8.7292 C.ar    1  UNL1        0.1388
      2 C          59.4738   86.8910    9.4479 C.ar    1  UNL1        0.0382
      3 C          59.1574   87.0570   10.7996 C.ar    1  UNL1        0.0176
      4 C          58.3434   86.1222   11.4631 C.ar    1  UNL1        0.0481
      5 C          57.7965   85.0592   10.7208 C.ar    1  UNL1        0.0176
      6 C          58.0863   84.9176    9.3628 C.ar    1  UNL1        0.0382
      7 N          58.1247   86.2284   12.8895 N.pl3   1  UNL1       -0.3041
      8 C          57.3688   87.3666   13.4188 C.3     1  UNL1        0.1122
      9 C          58.3433   88.5126   13.7216 C.3     1  UNL1        0.1122
     10 N          59.7153   88.0127   13.9332 N.pl3   1  UNL1       -0.3041
     11 C          59.9184   86.6819   14.5386 C.3     1  UNL1        0.1122
     12 C          59.0401   85.6076   13.8567 C.3     1  UNL1        0.1122
     13 C          60.8325   88.8904   13.6742 C.ar    1  UNL1        0.0480
     14 C          61.8221   89.1005   14.6485 C.ar    1  UNL1        0.0160
     15 C          62.9509   89.8743   14.3617 C.ar    1  UNL1        0.0190
     16 C          63.1221   90.4454   13.0876 C.ar    1  UNL1        0.0699
     17 C          62.1142   90.2616   12.1255 C.ar    1  UNL1        0.0190
     18 C          60.9860   89.4917   12.4141 C.ar    1  UNL1        0.0160
     19 N          64.3215   91.1743   12.7496 N.ar    1  UNL1       -0.2398
     20 C          65.2935   91.6012   13.5901 C.ar    1  UNL1        0.2073
     21 N          66.2229   92.3405   12.9473 N.ar    1  UNL1       -0.1442
     22 N          65.8384   92.4017   11.6810 N.ar    1  UNL1       -0.2024
     23 C          64.7035   91.6921   11.5641 C.ar    1  UNL1        0.3522
     24 O          64.0677   91.5600   10.4854 O.2     1  UNL1       -0.2444
     25 C          66.5618   93.0939   10.6074 C.3     1  UNL1        0.1099
     26 C          66.5227   94.6157   10.8029 C.3     1  UNL1        0.0265
     27 C          67.9978   92.5474   10.4650 C.3     1  UNL1        0.0245
     28 C          68.5162   92.5155    9.0255 C.3     1  UNL1        0.0021
     29 O          59.3877   85.6293    7.3991 O.3     1  UNL1       -0.4727
     30 C          60.5707   84.9459    6.9749 C.3     1  UNL1        0.2374
     31 C          62.4128   83.6198    9.6966 C.3     1  UNL1        0.2296
     32 O          63.4495   83.6607    8.7353 O.3     1  UNL1       -0.3267
     33 C          62.9433   84.3434    7.6311 C.3     1  UNL1        0.1783
     34 C          61.6495   84.9664    8.0750 C.3     1  UNL1        0.1909
     35 O          61.2427   84.2202    9.1775 O.3     1  UNL1       -0.3255
     36 C          62.8551   84.3485   10.9704 C.ar    1  UNL1        0.0409
     37 C          62.2339   85.5669   11.3280 C.ar    1  UNL1        0.0022
     38 C          62.5707   86.2250   12.5111 C.ar    1  UNL1        0.0113
     39 C          63.5060   85.6685   13.3812 C.ar    1  UNL1        0.0585
     40 CL         63.8878   86.4744   14.8911 Cl      1  UNL1       -0.0822
     41 C          64.1180   84.4563   13.0619 C.ar    1  UNL1        0.0226
     42 C          63.8021   83.7898   11.8712 C.ar    1  UNL1        0.0591
     43 CL         64.5922   82.2398   11.5912 Cl      1  UNL1       -0.0824
     44 C          62.1017   82.1483   10.0495 C.3     1  UNL1        0.1679
     45 C          59.6417   81.6043    9.7521 C.ar    1  UNL1        0.1205
     46 N          58.5008   81.5893   10.4771 N.ar    1  UNL1       -0.2293
     47 C          58.8865   81.9502   11.7174 C.ar    1  UNL1        0.1188
     48 C          60.2399   82.1965   11.7269 C.ar    1  UNL1        0.0979
     49 N          60.7140   81.9755   10.4894 N.ar    1  UNL1       -0.3084
     50 C          58.3566   81.6684    7.5786 C.3     1  UNL1        0.0084
     51 C          59.6840   81.3573    8.2661 C.3     1  UNL1        0.0640
@<TRIPOS>BOND
     1    50    51    1
     2    51    45    1
     3    45    46   ar
     4    46    47   ar
     5    47    48   ar
     6    48    49   ar
     7    49    44    1
     8    31    44    1
     9    31    36    1
    10    36    37   ar
    11    37    38   ar
    12    38    39   ar
    13    39    40    1
    14    39    41   ar
    15    41    42   ar
    16    42    43    1
    17    31    32    1
    18    32    33    1
    19    33    34    1
    20    34    30    1
    21    30    29    1
    22    29     1    1
    23     1     2   ar
    24     2     3   ar
    25     3     4   ar
    26     4     7    1
    27     7     8    1
    28     8     9    1
    29     9    10    1
    30    10    13    1
    31    13    14   ar
    32    14    15   ar
    33    15    16   ar
    34    16    19    1
    35    19    20   ar
    36    20    21   ar
    37    21    22   ar
    38    22    25    1
    39    25    26    1
    40    25    27    1
    41    27    28    1
    42    22    23   ar
    43    23    24    2
    44    16    17   ar
    45    17    18   ar
    46    10    11    1
    47    11    12    1
    48     4     5   ar
    49     5     6   ar
    50    34    35    1
    51    49    45   ar
    52    35    31    1
    53    42    36   ar
    54     6     1   ar
    55    12     7    1
    56    18    13   ar
    57    23    19   ar
@<TRIPOS>MOLECULE
*****
 51 57 0 0 0
SMALL
GASTEIGER

@<TRIPOS>ATOM
      1 C          62.9963   84.2201    9.1700 C.ar    1  UNL1        0.1388
      2 C          63.2158   85.6011    9.1884 C.ar    1  UNL1        0.0382
      3 C          62.1420   86.4926    9.1049 C.ar    1  UNL1        0.0176
      4 C          60.8224   86.0159    9.0166 C.ar    1  UNL1        0.0481
      5 C          60.6122   84.6266    8.9405 C.ar    1  UNL1        0.0176
      6 C          61.6902   83.7411    8.9880 C.ar    1  UNL1        0.0382
      7 N          59.7091   86.9392    9.0601 N.pl3   1  UNL1       -0.3041
      8 C          59.6086   87.9934    8.0474 C.3     1  UNL1        0.1122
      9 C          60.3539   89.2372    8.5494 C.3     1  UNL1        0.1122
     10 N          60.4630   89.2439   10.0209 N.pl3   1  UNL1       -0.3041
     11 C          59.3866   88.6418   10.8319 C.3     1  UNL1        0.1122
     12 C          59.0041   87.2360   10.3145 C.3     1  UNL1        0.1122
     13 C          61.5505   89.9619   10.6432 C.ar    1  UNL1        0.0480
     14 C          61.7965   89.8404   12.0207 C.ar    1  UNL1        0.0160
     15 C          62.9063   90.4603   12.6032 C.ar    1  UNL1        0.0190
     16 C          63.8037   91.2061   11.8176 C.ar    1  UNL1        0.0699
     17 C          63.5366   91.3540   10.4458 C.ar    1  UNL1        0.0190
     18 C          62.4264   90.7375    9.8658 C.ar    1  UNL1        0.0160
     19 N          64.9992   91.7798   12.3884 N.ar    1  UNL1       -0.2398
     20 C          65.7395   92.8027   11.8996 C.ar    1  UNL1        0.2073
     21 N          66.8506   93.0146   12.6372 N.ar    1  UNL1       -0.1442
     22 N          66.8328   92.1094   13.6045 N.ar    1  UNL1       -0.2024
     23 C          65.7154   91.3777   13.4584 C.ar    1  UNL1        0.3522
     24 O          65.4020   90.4192   14.2123 O.2     1  UNL1       -0.2444
     25 C          67.8443   91.9758   14.6599 C.3     1  UNL1        0.1099
     26 C          69.2639   92.0521   14.0814 C.3     1  UNL1        0.0265
     27 C          67.6049   92.9990   15.7898 C.3     1  UNL1        0.0245
     28 C          68.8301   93.8478   16.1364 C.3     1  UNL1        0.0021
     29 O          64.0963   83.3655    9.3427 O.3     1  UNL1       -0.4727
     30 C          64.2446   82.3966   10.3847 C.3     1  UNL1        0.2374
     31 C          62.8557   83.2737   13.5249 C.3     1  UNL1        0.2296
     32 O          63.9009   82.4358   13.9790 O.3     1  UNL1       -0.3267
     33 C          64.6864   82.1393   12.8669 C.3     1  UNL1        0.1783
     34 C          64.2381   83.0665   11.7723 C.3     1  UNL1        0.1909
     35 O          62.9488   83.4544   12.1258 O.3     1  UNL1       -0.3255
     36 C          62.9305   84.6301   14.2348 C.ar    1  UNL1        0.0409
     37 C          63.7733   84.7830   15.3593 C.ar    1  UNL1        0.0022
     38 C          63.9102   86.0187   15.9919 C.ar    1  UNL1        0.0113
     39 C          63.2402   87.1368   15.4992 C.ar    1  UNL1        0.0585
     40 CL         63.4561   88.6982   16.2676 Cl      1  UNL1       -0.0822
     41 C          62.4190   87.0173   14.3780 C.ar    1  UNL1        0.0226
     42 C          62.2589   85.7809   13.7397 C.ar    1  UNL1        0.0591
     43 CL         61.2424   85.7521   12.3006 Cl      1  UNL1       -0.0824
     44 C          61.4962   82.6169   13.8520 C.3     1  UNL1        0.1679
     45 C          59.8826   82.1301   11.9558 C.ar    1  UNL1        0.1205
     46 N          59.6655   81.1869   11.0121 N.ar    1  UNL1       -0.2293
     47 C          60.6697   80.3039   11.1827 C.ar    1  UNL1        0.1188
     48 C          61.4659   80.7065   12.2298 C.ar    1  UNL1        0.0979
     49 N          60.9704   81.8578   12.7135 N.ar    1  UNL1       -0.3084
     50 C          57.9372   83.4818   11.0795 C.3     1  UNL1        0.0084
     51 C          58.9444   83.2818   12.2095 C.3     1  UNL1        0.0640
@<TRIPOS>BOND
     1    50    51    1
     2    51    45    1
     3    45    46   ar
     4    46    47   ar
     5    47    48   ar
     6    48    49   ar
     7    49    44    1
     8    31    44    1
     9    31    36    1
    10    36    37   ar
    11    37    38   ar
    12    38    39   ar
    13    39    40    1
    14    39    41   ar
    15    41    42   ar
    16    42    43    1
    17    31    32    1
    18    32    33    1
    19    33    34    1
    20    34    30    1
    21    30    29    1
    22    29     1    1
    23     1     2   ar
    24     2     3   ar
    25     3     4   ar
    26     4     7    1
    27     7     8    1
    28     8     9    1
    29     9    10    1
    30    10    13    1
    31    13    14   ar
    32    14    15   ar
    33    15    16   ar
    34    16    19    1
    35    19    20   ar
    36    20    21   ar
    37    21    22   ar
    38    22    25    1
    39    25    26    1
    40    25    27    1
    41    27    28    1
    42    22    23   ar
    43    23    24    2
    44    16    17   ar
    45    17    18   ar
    46    10    11    1
    47    11    12    1
    48     4     5   ar
    49     5     6   ar
    50    34    35    1
    51    49    45   ar
    52    35    31    1
    53    42    36   ar
    54     6     1   ar
    55    12     7    1
    56    18    13   ar
    57    23    19   ar
@<TRIPOS>MOLECULE
*****
 51 57 0 0 0
SMALL
GASTEIGER

@<TRIPOS>ATOM
      1 C          58.4041   81.1087   12.5721 C.ar    1  UNL1        0.1388
      2 C          58.3164   80.3091   11.4282 C.ar    1  UNL1        0.0382
      3 C          58.1423   80.8884   10.1676 C.ar    1  UNL1        0.0176
      4 C          58.0679   82.2852   10.0270 C.ar    1  UNL1        0.0481
      5 C          58.0989   83.0811   11.1871 C.ar    1  UNL1        0.0176
      6 C          58.2368   82.4961   12.4469 C.ar    1  UNL1        0.0382
      7 N          58.0172   82.8839    8.7107 N.pl3   1  UNL1       -0.3041
      8 C          59.1282   82.6700    7.7796 C.3     1  UNL1        0.1122
      9 C          60.1690   83.7786    7.9850 C.3     1  UNL1        0.1122
     10 N          59.5654   84.9797    8.5935 N.pl3   1  UNL1       -0.3041
     11 C          58.1622   85.3217    8.2882 C.3     1  UNL1        0.1122
     12 C          57.2316   84.0972    8.4469 C.3     1  UNL1        0.1122
     13 C          60.3984   85.8735    9.3633 C.ar    1  UNL1        0.0480
     14 C          61.1968   86.8382    8.7271 C.ar    1  UNL1        0.0160
     15 C          61.9283   87.7642    9.4771 C.ar    1  UNL1        0.0190
     16 C          61.8674   87.7546   10.8825 C.ar    1  UNL1        0.0699
     17 C          61.0945   86.7670   11.5170 C.ar    1  UNL1        0.0190
     18 C          60.3673   85.8408   10.7672 C.ar    1  UNL1        0.0160
     19 N          62.5482   88.7567   11.6676 N.ar    1  UNL1       -0.2398
     20 C          62.7160   90.0667   11.3692 C.ar    1  UNL1        0.2073
     21 N          63.4903   90.6933   12.2811 N.ar    1  UNL1       -0.1442
     22 N          63.8362   89.7736   13.1697 N.ar    1  UNL1       -0.2024
     23 C          63.2604   88.6159   12.8045 C.ar    1  UNL1        0.3522
     24 O          63.4005   87.5345   13.4338 O.2     1  UNL1       -0.2444
     25 C          64.6680   90.0106   14.3558 C.3     1  UNL1        0.1099
     26 C          65.5760   91.2328   14.1621 C.3     1  UNL1        0.0265
     27 C          63.8024   90.1065   15.6296 C.3     1  UNL1        0.0245
     28 C          63.9163   91.4434   16.3654 C.3     1  UNL1        0.0021
     29 O          58.6647   80.4881   13.8038 O.3     1  UNL1       -0.4727
     30 C          59.8931   79.8571   14.1768 C.3     1  UNL1        0.2374
     31 C          62.5620   82.1070   13.5650 C.3     1  UNL1        0.2296
     32 O          63.3162   80.9253   13.7528 O.3     1  UNL1       -0.3267
     33 C          62.4026   79.8756   13.8230 C.3     1  UNL1        0.1783
     34 C          61.0794   80.4355   13.3816 C.3     1  UNL1        0.1909
     35 O          61.1797   81.8101   13.5769 O.3     1  UNL1       -0.3255
     36 C          62.9458   82.7633   12.2341 C.ar    1  UNL1        0.0409
     37 C          62.1619   82.5175   11.0838 C.ar    1  UNL1        0.0022
     38 C          62.4482   83.1455    9.8715 C.ar    1  UNL1        0.0113
     39 C          63.4975   84.0583    9.7853 C.ar    1  UNL1        0.0585
     40 CL         63.8206   84.8831    8.2719 Cl      1  UNL1       -0.0822
     41 C          64.2731   84.3348   10.9113 C.ar    1  UNL1        0.0226
     42 C          64.0084   83.7019   12.1325 C.ar    1  UNL1        0.0591
     43 CL         65.0137   84.1636   13.5041 Cl      1  UNL1       -0.0824
     44 C          62.8679   83.0956   14.7121 C.3     1  UNL1        0.1679
     45 C          62.0114   85.3711   15.4361 C.ar    1  UNL1        0.1205
     46 N          60.9454   86.1769   15.2320 N.ar    1  UNL1       -0.2293
     47 C          60.1840   85.5078   14.3432 C.ar    1  UNL1        0.1188
     48 C          60.7807   84.3071   14.0355 C.ar    1  UNL1        0.0979
     49 N          61.9324   84.2240   14.7224 N.ar    1  UNL1       -0.3084
     50 C          62.6683   86.6980   17.4824 C.3     1  UNL1        0.0084
     51 C          63.0956   85.6674   16.4400 C.3     1  UNL1        0.0640
@<TRIPOS>BOND
     1    50    51    1
     2    51    45    1
     3    45    46   ar
     4    46    47   ar
     5    47    48   ar
     6    48    49   ar
     7    49    44    1
     8    31    44    1
     9    31    36    1
    10    36    37   ar
    11    37    38   ar
    12    38    39   ar
    13    39    40    1
    14    39    41   ar
    15    41    42   ar
    16    42    43    1
    17    31    32    1
    18    32    33    1
    19    33    34    1
    20    34    30    1
    21    30    29    1
    22    29     1    1
    23     1     2   ar
    24     2     3   ar
    25     3     4   ar
    26     4     7    1
    27     7     8    1
    28     8     9    1
    29     9    10    1
    30    10    13    1
    31    13    14   ar
    32    14    15   ar
    33    15    16   ar
    34    16    19    1
    35    19    20   ar
    36    20    21   ar
    37    21    22   ar
    38    22    25    1
    39    25    26    1
    40    25    27    1
    41    27    28    1
    42    22    23   ar
    43    23    24    2
    44    16    17   ar
    45    17    18   ar
    46    10    11    1
    47    11    12    1
    48     4     5   ar
    49     5     6   ar
    50    34    35    1
    51    49    45   ar
    52    35    31    1
    53    42    36   ar
    54     6     1   ar
    55    12     7    1
    56    18    13   ar
    57    23    19   ar
@<TRIPOS>MOLECULE
*****
 51 57 0 0 0
SMALL
GASTEIGER

@<TRIPOS>ATOM
      1 C          63.2685   81.4164   13.0370 C.ar    1  UNL1        0.1388
      2 C          62.5980   81.4931   14.2618 C.ar    1  UNL1        0.0382
      3 C          62.7581   82.6073   15.0911 C.ar    1  UNL1        0.0176
      4 C          63.5837   83.6762   14.7008 C.ar    1  UNL1        0.0481
      5 C          64.3003   83.5676   13.4946 C.ar    1  UNL1        0.0176
      6 C          64.1650   82.4373   12.6869 C.ar    1  UNL1        0.0382
      7 N          63.6448   84.8802   15.5010 N.pl3   1  UNL1       -0.3041
      8 C          62.4315   85.3666   16.1630 C.3     1  UNL1        0.1122
      9 C          61.6943   86.3188   15.2121 C.3     1  UNL1        0.1122
     10 N          62.6100   86.8962   14.2094 N.pl3   1  UNL1       -0.3041
     11 C          64.0189   87.1470   14.5714 C.3     1  UNL1        0.1122
     12 C          64.6572   85.9164   15.2560 C.3     1  UNL1        0.1122
     13 C          62.0787   87.3344   12.9401 C.ar    1  UNL1        0.0480
     14 C          62.5444   86.7803   11.7364 C.ar    1  UNL1        0.0160
     15 C          61.9620   87.1365   10.5161 C.ar    1  UNL1        0.0190
     16 C          60.8902   88.0467   10.4734 C.ar    1  UNL1        0.0699
     17 C          60.4487   88.6250   11.6757 C.ar    1  UNL1        0.0190
     18 C          61.0332   88.2712   12.8932 C.ar    1  UNL1        0.0160
     19 N          60.2230   88.3588    9.2318 N.ar    1  UNL1       -0.2398
     20 C          59.5542   87.5090    8.4169 C.ar    1  UNL1        0.2073
     21 N          59.1394   88.1207    7.2867 N.ar    1  UNL1       -0.1442
     22 N          59.5571   89.3753    7.3683 N.ar    1  UNL1       -0.2024
     23 C          60.1971   89.5171    8.5412 C.ar    1  UNL1        0.3522
     24 O          60.7296   90.5921    8.9233 O.2     1  UNL1       -0.2444
     25 C          59.3162   90.4167    6.3621 C.3     1  UNL1        0.1099
     26 C          60.4452   90.4569    5.3232 C.3     1  UNL1        0.0265
     27 C          57.9215   90.2563    5.7216 C.3     1  UNL1        0.0245
     28 C          57.4378   91.4901    4.9564 C.3     1  UNL1        0.0021
     29 O          63.0102   80.3193   12.2004 O.3     1  UNL1       -0.4727
     30 C          61.7629   79.6269   12.0937 C.3     1  UNL1        0.2374
     31 C          59.8393   82.1229   10.4722 C.3     1  UNL1        0.2296
     32 O          58.9022   81.0646   10.4239 O.3     1  UNL1       -0.3267
     33 C          59.4271   80.0311   11.1973 C.3     1  UNL1        0.1783
     34 C          60.5888   80.6146   11.9517 C.3     1  UNL1        0.1909
     35 O          60.9738   81.7356   11.2217 O.3     1  UNL1       -0.3255
     36 C          59.1930   83.3620   11.1017 C.ar    1  UNL1        0.0409
     37 C          59.7313   83.9001   12.2928 C.ar    1  UNL1        0.0022
     38 C          59.2045   85.0610   12.8591 C.ar    1  UNL1        0.0113
     39 C          58.1548   85.7319   12.2348 C.ar    1  UNL1        0.0585
     40 CL         57.5305   87.2186   12.9239 Cl      1  UNL1       -0.0822
     41 C          57.6196   85.2334   11.0469 C.ar    1  UNL1        0.0226
     42 C          58.1271   84.0610   10.4727 C.ar    1  UNL1        0.0591
     43 CL         57.4153   83.5489    8.9442 Cl      1  UNL1       -0.0824
     44 C          60.2883   82.4730    9.0360 C.3     1  UNL1        0.1679
     45 C          61.8973   84.2119    8.1286 C.ar    1  UNL1        0.1205
     46 N          63.1142   84.7282    8.4116 N.ar    1  UNL1       -0.2293
     47 C          63.4908   84.0995    9.5431 C.ar    1  UNL1        0.1188
     48 C          62.5170   83.2038    9.9197 C.ar    1  UNL1        0.0979
     49 N          61.5135   83.2780    9.0296 N.ar    1  UNL1       -0.3084
     50 C          61.9426   84.3698    5.6081 C.3     1  UNL1        0.0084
     51 C          61.1211   84.5514    6.8823 C.3     1  UNL1        0.0640
@<TRIPOS>BOND
     1    50    51    1
     2    51    45    1
     3    45    46   ar
     4    46    47   ar
     5    47    48   ar
     6    48    49   ar
     7    49    44    1
     8    31    44    1
     9    31    36    1
    10    36    37   ar
    11    37    38   ar
    12    38    39   ar
    13    39    40    1
    14    39    41   ar
    15    41    42   ar
    16    42    43    1
    17    31    32    1
    18    32    33    1
    19    33    34    1
    20    34    30    1
    21    30    29    1
    22    29     1    1
    23     1     2   ar
    24     2     3   ar
    25     3     4   ar
    26     4     7    1
    27     7     8    1
    28     8     9    1
    29     9    10    1
    30    10    13    1
    31    13    14   ar
    32    14    15   ar
    33    15    16   ar
    34    16    19    1
    35    19    20   ar
    36    20    21   ar
    37    21    22   ar
    38    22    25    1
    39    25    26    1
    40    25    27    1
    41    27    28    1
    42    22    23   ar
    43    23    24    2
    44    16    17   ar
    45    17    18   ar
    46    10    11    1
    47    11    12    1
    48     4     5   ar
    49     5     6   ar
    50    34    35    1
    51    49    45   ar
    52    35    31    1
    53    42    36   ar
    54     6     1   ar
    55    12     7    1
    56    18    13   ar
    57    23    19   ar
