@<TRIPOS>MOLECULE
*****
 46 51 0 0 0
SMALL
GASTEIGER

@<TRIPOS>ATOM
      1 C          60.6766   89.6095    9.1805 C.ar    1  UNL1        0.0702
      2 C          60.0093   90.4257   10.1001 C.ar    1  UNL1        0.0191
      3 C          59.8629   90.0196   11.4273 C.ar    1  UNL1        0.0356
      4 C          60.3750   88.7742   11.8361 C.ar    1  UNL1        0.1318
      5 N          60.9971   87.9878   10.9127 N.ar    1  UNL1       -0.2279
      6 C          61.1545   88.3643    9.6164 C.ar    1  UNL1        0.1149
      7 N          60.2531   88.3189   13.2054 N.pl3   1  UNL1       -0.2932
      8 C          59.4309   87.1435   13.5355 C.3     1  UNL1        0.0923
      9 C          60.2446   86.1103   14.3325 C.3     1  UNL1        0.0252
     10 C          61.2710   86.7483   15.3089 C.3     1  UNL1        0.0472
     11 C          60.9360   88.2214   15.6030 C.3     1  UNL1        0.0252
     12 C          60.9372   89.0327   14.2990 C.3     1  UNL1        0.0923
     13 C          61.3768   85.9474   16.6150 C.3     1  UNL1        0.2054
     14 O          62.1261   84.7546   16.3909 O.3     1  UNL1       -0.4755
     15 C          63.2382   84.6631   15.5411 C.ar    1  UNL1        0.1388
     16 C          64.3778   85.4723   15.7016 C.ar    1  UNL1        0.0369
     17 C          65.4637   85.3335   14.8356 C.ar    1  UNL1        0.0033
     18 C          65.4237   84.3956   13.8019 C.ar    1  UNL1        0.0066
     19 C          64.2885   83.5871   13.6159 C.ar    1  UNL1        0.0785
     20 C          63.2028   83.7256   14.5008 C.ar    1  UNL1        0.0433
     21 C          64.2601   82.5931   12.5152 C.2     1  UNL1        0.3381
     22 O          63.2915   81.7929   12.4208 O.2     1  UNL1       -0.2451
     23 O          65.2898   82.5035   11.5790 O.3     1  UNL1       -0.4771
     24 H          66.1438   83.0406   11.6540 H       1  UNL1        0.2954
     25 C          59.7161   90.0254    6.8674 C.2     1  UNL1        0.2839
     26 O          58.6504   89.4046    7.1280 O.2     1  UNL1       -0.2665
     27 N          60.7993   90.0318    7.8113 N.am    1  UNL1       -0.2766
     28 H          61.7530   90.2781    7.4614 H       1  UNL1        0.1553
     29 C          61.8025   91.9210    2.9255 C.ar    1  UNL1        0.0123
     30 C          61.3497   92.5819    1.7641 C.ar    1  UNL1       -0.0013
     31 C          59.9696   92.8566    1.5697 C.ar    1  UNL1       -0.0001
     32 C          59.0352   92.4504    2.5507 C.ar    1  UNL1        0.0028
     33 C          59.5096   91.7865    3.6819 C.ar    1  UNL1        0.0334
     34 C          58.8564   91.2686    4.7842 C.ar    1  UNL1        0.0202
     35 C          57.3842   91.2873    5.0668 C.3     1  UNL1        0.0345
     36 C          59.8701   90.7137    5.5720 C.ar    1  UNL1        0.1946
     37 O          61.0418   90.8893    4.9888 O.2     1  UNL1       -0.4495
     38 C          60.8426   91.5286    3.8610 C.ar    1  UNL1        0.1412
     39 C          59.5108   93.5592    0.3446 C.ar    1  UNL1       -0.0000
     40 C          58.1441   93.5928    0.0085 C.ar    1  UNL1       -0.0000
     41 C          57.7148   94.2545   -1.1460 C.ar    1  UNL1       -0.0000
     42 C          58.6416   94.8893   -1.9759 C.ar    1  UNL1        0.0000
     43 C          60.0001   94.8634   -1.6532 C.ar    1  UNL1       -0.0000
     44 C          60.4352   94.2024   -0.5004 C.ar    1  UNL1       -0.0000
     45 C          64.1393   92.6241    2.4200 C.3     1  UNL1        0.0051
     46 C          63.2581   91.5916    3.1148 C.3     1  UNL1        0.0295
@<TRIPOS>BOND
     1    45    46    1
     2    46    29    1
     3    29    30   ar
     4    30    31   ar
     5    31    39    1
     6    39    40   ar
     7    40    41   ar
     8    41    42   ar
     9    42    43   ar
    10    43    44   ar
    11    31    32   ar
    12    32    33   ar
    13    33    34   ar
    14    34    35    1
    15    34    36   ar
    16    36    25    1
    17    25    26    2
    18    25    27   am
    19    27     1    1
    20     1     2   ar
    21     2     3   ar
    22     3     4   ar
    23     4     7    1
    24     7     8    1
    25     8     9    1
    26     9    10    1
    27    10    13    1
    28    13    14    1
    29    14    15    1
    30    15    16   ar
    31    16    17   ar
    32    17    18   ar
    33    18    19   ar
    34    19    21    1
    35    21    22    2
    36    21    23    1
    37    19    20   ar
    38    10    11    1
    39    11    12    1
    40     4     5   ar
    41     5     6   ar
    42    36    37   ar
    43    37    38   ar
    44    38    29   ar
    45    44    39   ar
    46    38    33   ar
    47     6     1   ar
    48    12     7    1
    49    20    15   ar
    50    27    28    1
    51    23    24    1
@<TRIPOS>MOLECULE
*****
 46 51 0 0 0
SMALL
GASTEIGER

@<TRIPOS>ATOM
      1 C          61.9049   87.5969   10.0055 C.ar    1  UNL1        0.0702
      2 C          60.8899   87.9085    9.0944 C.ar    1  UNL1        0.0191
      3 C          60.0412   86.9096    8.6152 C.ar    1  UNL1        0.0356
      4 C          60.2206   85.5796    9.0387 C.ar    1  UNL1        0.1318
      5 N          61.2344   85.3005    9.9062 N.ar    1  UNL1       -0.2279
      6 C          62.0701   86.2573   10.3888 C.ar    1  UNL1        0.1149
      7 N          59.3566   84.5147    8.5735 N.pl3   1  UNL1       -0.2932
      8 C          59.8363   83.5372    7.5831 C.3     1  UNL1        0.0923
      9 C          59.6419   82.0991    8.0921 C.3     1  UNL1        0.0252
     10 C          58.3533   81.9093    8.9389 C.3     1  UNL1        0.0472
     11 C          57.3436   83.0462    8.6999 C.3     1  UNL1        0.0252
     12 C          57.9735   84.3970    9.0702 C.3     1  UNL1        0.0923
     13 C          57.7022   80.5442    8.6731 C.3     1  UNL1        0.2054
     14 O          57.4036   79.9021    9.9112 O.3     1  UNL1       -0.4755
     15 C          58.1478   80.0629   11.0891 C.ar    1  UNL1        0.1388
     16 C          58.3548   79.0103   11.9994 C.ar    1  UNL1        0.0369
     17 C          59.1139   79.2193   13.1519 C.ar    1  UNL1        0.0033
     18 C          59.6673   80.4747   13.4118 C.ar    1  UNL1        0.0066
     19 C          59.4605   81.5434   12.5218 C.ar    1  UNL1        0.0785
     20 C          58.7035   81.3208   11.3563 C.ar    1  UNL1        0.0433
     21 C          60.0560   82.8713   12.8087 C.2     1  UNL1        0.3381
     22 O          60.8964   82.9913   13.7396 O.2     1  UNL1       -0.2451
     23 O          59.7009   84.0083   12.0835 O.3     1  UNL1       -0.4771
     24 H          58.9596   84.0070   11.3951 H       1  UNL1        0.2954
     25 C          62.5553   89.4105   11.6589 C.2     1  UNL1        0.2839
     26 O          61.4269   89.3929   12.2204 O.2     1  UNL1       -0.2665
     27 N          62.7856   88.6334   10.4725 N.am    1  UNL1       -0.2766
     28 H          63.5970   88.8925    9.8666 H       1  UNL1        0.1553
     29 C          65.7326   93.0494   12.0446 C.ar    1  UNL1        0.0123
     30 C          66.7077   93.4409   12.9862 C.ar    1  UNL1       -0.0013
     31 C          66.9556   92.6637   14.1491 C.ar    1  UNL1       -0.0001
     32 C          66.2044   91.4860   14.3710 C.ar    1  UNL1        0.0028
     33 C          65.2373   91.1308   13.4308 C.ar    1  UNL1        0.0334
     34 C          64.3565   90.0672   13.3762 C.ar    1  UNL1        0.0202
     35 C          64.2033   88.9551   14.3698 C.3     1  UNL1        0.0345
     36 C          63.6325   90.2633   12.1956 C.ar    1  UNL1        0.1946
     37 O          64.0501   91.3582   11.5869 O.2     1  UNL1       -0.4495
     38 C          65.0077   91.8858   12.3115 C.ar    1  UNL1        0.1412
     39 C          67.9904   93.0866   15.1264 C.ar    1  UNL1       -0.0000
     40 C          68.7420   92.1281   15.8324 C.ar    1  UNL1       -0.0000
     41 C          69.7153   92.5289   16.7527 C.ar    1  UNL1       -0.0000
     42 C          69.9501   93.8872   16.9780 C.ar    1  UNL1        0.0000
     43 C          69.2113   94.8477   16.2838 C.ar    1  UNL1       -0.0000
     44 C          68.2360   94.4526   15.3629 C.ar    1  UNL1       -0.0000
     45 C          66.6495   93.9460    9.9079 C.3     1  UNL1        0.0051
     46 C          65.4389   93.8921   10.8335 C.3     1  UNL1        0.0295
@<TRIPOS>BOND
     1    45    46    1
     2    46    29    1
     3    29    30   ar
     4    30    31   ar
     5    31    39    1
     6    39    40   ar
     7    40    41   ar
     8    41    42   ar
     9    42    43   ar
    10    43    44   ar
    11    31    32   ar
    12    32    33   ar
    13    33    34   ar
    14    34    35    1
    15    34    36   ar
    16    36    25    1
    17    25    26    2
    18    25    27   am
    19    27     1    1
    20     1     2   ar
    21     2     3   ar
    22     3     4   ar
    23     4     7    1
    24     7     8    1
    25     8     9    1
    26     9    10    1
    27    10    13    1
    28    13    14    1
    29    14    15    1
    30    15    16   ar
    31    16    17   ar
    32    17    18   ar
    33    18    19   ar
    34    19    21    1
    35    21    22    2
    36    21    23    1
    37    19    20   ar
    38    10    11    1
    39    11    12    1
    40     4     5   ar
    41     5     6   ar
    42    36    37   ar
    43    37    38   ar
    44    38    29   ar
    45    44    39   ar
    46    38    33   ar
    47     6     1   ar
    48    12     7    1
    49    20    15   ar
    50    27    28    1
    51    23    24    1
@<TRIPOS>MOLECULE
*****
 46 51 0 0 0
SMALL
GASTEIGER

@<TRIPOS>ATOM
      1 C          59.8724   87.8993    8.0583 C.ar    1  UNL1        0.0702
      2 C          60.9242   88.1474    8.9467 C.ar    1  UNL1        0.0191
      3 C          61.0446   87.4048   10.1222 C.ar    1  UNL1        0.0356
      4 C          60.0915   86.4136   10.4216 C.ar    1  UNL1        0.1318
      5 N          59.0623   86.2115    9.5511 N.ar    1  UNL1       -0.2279
      6 C          58.9273   86.9198    8.3990 C.ar    1  UNL1        0.1149
      7 N          60.1845   85.6141   11.6255 N.pl3   1  UNL1       -0.2932
      8 C          60.4939   84.1771   11.5504 C.3     1  UNL1        0.0923
      9 C          61.6985   83.8273   12.4401 C.3     1  UNL1        0.0252
     10 C          61.7629   84.6574   13.7519 C.3     1  UNL1        0.0472
     11 C          60.4022   85.2924   14.0900 C.3     1  UNL1        0.0252
     12 C          59.9554   86.2196   12.9501 C.3     1  UNL1        0.0923
     13 C          62.2708   83.8109   14.9281 C.3     1  UNL1        0.2054
     14 O          63.3055   84.5113   15.6161 O.3     1  UNL1       -0.4755
     15 C          63.2689   85.8789   15.9254 C.ar    1  UNL1        0.1388
     16 C          62.7791   86.3610   17.1530 C.ar    1  UNL1        0.0369
     17 C          62.7755   87.7316   17.4167 C.ar    1  UNL1        0.0033
     18 C          63.2521   88.6329   16.4624 C.ar    1  UNL1        0.0066
     19 C          63.7328   88.1724   15.2240 C.ar    1  UNL1        0.0785
     20 C          63.7435   86.7879   14.9710 C.ar    1  UNL1        0.0433
     21 C          64.2383   89.1404   14.2200 C.2     1  UNL1        0.3381
     22 O          65.2337   89.8624   14.4942 O.2     1  UNL1       -0.2451
     23 O          63.6316   89.2906   12.9734 O.3     1  UNL1       -0.4771
     24 H          62.7701   88.8217   12.7257 H       1  UNL1        0.2954
     25 C          59.8391   90.1221    6.8319 C.2     1  UNL1        0.2839
     26 O          59.7796   90.7850    7.9023 O.2     1  UNL1       -0.2665
     27 N          59.7491   88.6884    6.8624 N.am    1  UNL1       -0.2766
     28 H          59.4954   88.1942    5.9770 H       1  UNL1        0.1553
     29 C          61.8336   92.1713    2.9193 C.ar    1  UNL1        0.0123
     30 C          61.3490   92.7960    1.7507 C.ar    1  UNL1       -0.0013
     31 C          59.9551   92.9651    1.5356 C.ar    1  UNL1       -0.0001
     32 C          59.0399   92.4890    2.5031 C.ar    1  UNL1        0.0028
     33 C          59.5466   91.8629    3.6419 C.ar    1  UNL1        0.0334
     34 C          58.9183   91.2967    4.7349 C.ar    1  UNL1        0.0202
     35 C          57.4450   91.2034    4.9958 C.3     1  UNL1        0.0345
     36 C          59.9596   90.8203    5.5382 C.ar    1  UNL1        0.1946
     37 O          61.1231   91.0845    4.9722 O.2     1  UNL1       -0.4495
     38 C          60.8926   91.7070    3.8409 C.ar    1  UNL1        0.1412
     39 C          59.4625   93.6310    0.3033 C.ar    1  UNL1       -0.0000
     40 C          58.0889   93.6386   -0.0057 C.ar    1  UNL1       -0.0000
     41 C          57.6277   94.2657   -1.1671 C.ar    1  UNL1       -0.0000
     42 C          58.5290   94.8916   -2.0311 C.ar    1  UNL1        0.0000
     43 C          59.8940   94.8913   -1.7357 C.ar    1  UNL1       -0.0000
     44 C          60.3610   94.2649   -0.5760 C.ar    1  UNL1       -0.0000
     45 C          63.6146   90.4689    3.2934 C.3     1  UNL1        0.0051
     46 C          63.3071   91.9535    3.1304 C.3     1  UNL1        0.0295
@<TRIPOS>BOND
     1    45    46    1
     2    46    29    1
     3    29    30   ar
     4    30    31   ar
     5    31    39    1
     6    39    40   ar
     7    40    41   ar
     8    41    42   ar
     9    42    43   ar
    10    43    44   ar
    11    31    32   ar
    12    32    33   ar
    13    33    34   ar
    14    34    35    1
    15    34    36   ar
    16    36    25    1
    17    25    26    2
    18    25    27   am
    19    27     1    1
    20     1     2   ar
    21     2     3   ar
    22     3     4   ar
    23     4     7    1
    24     7     8    1
    25     8     9    1
    26     9    10    1
    27    10    13    1
    28    13    14    1
    29    14    15    1
    30    15    16   ar
    31    16    17   ar
    32    17    18   ar
    33    18    19   ar
    34    19    21    1
    35    21    22    2
    36    21    23    1
    37    19    20   ar
    38    10    11    1
    39    11    12    1
    40     4     5   ar
    41     5     6   ar
    42    36    37   ar
    43    37    38   ar
    44    38    29   ar
    45    44    39   ar
    46    38    33   ar
    47     6     1   ar
    48    12     7    1
    49    20    15   ar
    50    27    28    1
    51    23    24    1
@<TRIPOS>MOLECULE
*****
 46 51 0 0 0
SMALL
GASTEIGER

@<TRIPOS>ATOM
      1 C          59.3761   90.8236    5.9941 C.ar    1  UNL1        0.0702
      2 C          58.1567   91.2680    5.4720 C.ar    1  UNL1        0.0191
      3 C          58.1177   91.9550    4.2578 C.ar    1  UNL1        0.0356
      4 C          59.3148   92.2161    3.5656 C.ar    1  UNL1        0.1318
      5 N          60.4910   91.7949    4.1108 N.ar    1  UNL1       -0.2279
      6 C          60.5524   91.1211    5.2895 C.ar    1  UNL1        0.1149
      7 N          59.3183   92.9172    2.2985 N.pl3   1  UNL1       -0.2932
      8 C          59.7873   94.3097    2.2121 C.3     1  UNL1        0.0923
      9 C          60.8814   94.4553    1.1414 C.3     1  UNL1        0.0252
     10 C          60.6668   93.5380   -0.0940 C.3     1  UNL1        0.0472
     11 C          59.2116   93.0463   -0.1908 C.3     1  UNL1        0.0252
     12 C          58.8371   92.2560    1.0717 C.3     1  UNL1        0.0923
     13 C          61.0875   94.2387   -1.3941 C.3     1  UNL1        0.2054
     14 O          62.4775   94.0234   -1.6309 O.3     1  UNL1       -0.4755
     15 C          63.4500   93.9325   -0.6243 C.ar    1  UNL1        0.1388
     16 C          64.6404   94.6816   -0.6568 C.ar    1  UNL1        0.0369
     17 C          65.5713   94.5636    0.3766 C.ar    1  UNL1        0.0033
     18 C          65.3301   93.6978    1.4452 C.ar    1  UNL1        0.0066
     19 C          64.1531   92.9300    1.4894 C.ar    1  UNL1        0.0785
     20 C          63.2146   93.0638    0.4491 C.ar    1  UNL1        0.0433
     21 C          63.9083   92.0158    2.6316 C.2     1  UNL1        0.3381
     22 O          63.0531   92.3218    3.5047 O.2     1  UNL1       -0.2451
     23 O          64.6127   90.8215    2.7813 O.3     1  UNL1       -0.4771
     24 H          65.3833   90.5634    2.1789 H       1  UNL1        0.2954
     25 C          59.5192   88.7117    7.3962 C.2     1  UNL1        0.2839
     26 O          59.3503   87.9606    6.3981 O.2     1  UNL1       -0.2665
     27 N          59.4021   90.1370    7.2575 N.am    1  UNL1       -0.2766
     28 H          59.2417   90.7021    8.1221 H       1  UNL1        0.1553
     29 C          59.2615   85.7463   11.2205 C.ar    1  UNL1        0.0123
     30 C          59.9255   85.6406   12.4609 C.ar    1  UNL1       -0.0013
     31 C          60.9240   86.5778   12.8385 C.ar    1  UNL1       -0.0001
     32 C          61.2649   87.6254   11.9516 C.ar    1  UNL1        0.0028
     33 C          60.6023   87.6972   10.7262 C.ar    1  UNL1        0.0334
     34 C          60.7204   88.5789    9.6686 C.ar    1  UNL1        0.0202
     35 C          61.6436   89.7548    9.5574 C.3     1  UNL1        0.0345
     36 C          59.7968   88.1258    8.7210 C.ar    1  UNL1        0.1946
     37 O          59.1700   87.0568    9.1773 O.2     1  UNL1       -0.4495
     38 C          59.6393   86.7899   10.3727 C.ar    1  UNL1        0.1412
     39 C          61.6082   86.4558   14.1507 C.ar    1  UNL1       -0.0000
     40 C          62.9971   86.2349   14.2156 C.ar    1  UNL1       -0.0000
     41 C          63.6388   86.1198   15.4525 C.ar    1  UNL1       -0.0000
     42 C          62.9044   86.2242   16.6359 C.ar    1  UNL1        0.0000
     43 C          61.5260   86.4435   16.5848 C.ar    1  UNL1       -0.0000
     44 C          60.8788   86.5586   15.3506 C.ar    1  UNL1       -0.0000
     45 C          58.1786   83.5763   11.7939 C.3     1  UNL1        0.0051
     46 C          58.2336   84.7315   10.8001 C.3     1  UNL1        0.0295
@<TRIPOS>BOND
     1    45    46    1
     2    46    29    1
     3    29    30   ar
     4    30    31   ar
     5    31    39    1
     6    39    40   ar
     7    40    41   ar
     8    41    42   ar
     9    42    43   ar
    10    43    44   ar
    11    31    32   ar
    12    32    33   ar
    13    33    34   ar
    14    34    35    1
    15    34    36   ar
    16    36    25    1
    17    25    26    2
    18    25    27   am
    19    27     1    1
    20     1     2   ar
    21     2     3   ar
    22     3     4   ar
    23     4     7    1
    24     7     8    1
    25     8     9    1
    26     9    10    1
    27    10    13    1
    28    13    14    1
    29    14    15    1
    30    15    16   ar
    31    16    17   ar
    32    17    18   ar
    33    18    19   ar
    34    19    21    1
    35    21    22    2
    36    21    23    1
    37    19    20   ar
    38    10    11    1
    39    11    12    1
    40     4     5   ar
    41     5     6   ar
    42    36    37   ar
    43    37    38   ar
    44    38    29   ar
    45    44    39   ar
    46    38    33   ar
    47     6     1   ar
    48    12     7    1
    49    20    15   ar
    50    27    28    1
    51    23    24    1
