@<TRIPOS>MOLECULE
*****
 36 40 0 0 0
SMALL
GASTEIGER

@<TRIPOS>ATOM
      1 C         -23.9827   -8.2782  -13.8274 C.2     1  UNL1        0.2491
      2 O         -22.9072   -7.9982  -13.2315 O.2     1  UNL1       -0.2699
      3 N         -24.5922   -9.5702  -13.6264 N.am    1  UNL1       -0.2680
      4 C         -25.2964  -10.2517  -14.7179 C.3     1  UNL1        0.1412
      5 C         -24.3629  -11.2313  -15.4254 C.3     1  UNL1        0.2268
      6 O         -23.9399  -12.2808  -14.5567 O.3     1  UNL1       -0.4739
      7 C         -22.9375  -12.1097  -13.5951 C.ar    1  UNL1        0.1362
      8 C         -21.8126  -12.9374  -13.6519 C.ar    1  UNL1        0.0366
      9 C         -20.7688  -12.7803  -12.7389 C.ar    1  UNL1        0.0031
     10 C         -20.8398  -11.7976  -11.7382 C.ar    1  UNL1       -0.0000
     11 C         -21.9854  -10.9858  -11.6609 C.ar    1  UNL1        0.0004
     12 C         -23.0392  -11.1377  -12.5783 C.ar    1  UNL1        0.0317
     13 C         -24.2982  -10.3291  -12.4090 C.3     1  UNL1        0.1236
     14 C         -19.7279  -11.6286  -10.7689 C.ar    1  UNL1        0.0015
     15 C         -19.4739  -10.3580  -10.1803 C.ar    1  UNL1        0.0016
     16 C         -18.4228  -10.1860   -9.2601 C.ar    1  UNL1        0.0206
     17 C         -17.6458  -11.2967   -8.9492 C.ar    1  UNL1        0.0985
     18 N         -16.5995  -11.3602   -8.1062 N.ar    1  UNL1       -0.2241
     19 C         -16.2247  -12.6642   -8.1880 C.ar    1  UNL1        0.1750
     20 N         -16.9886  -13.3941   -9.0360 N.ar    1  UNL1       -0.3349
     21 C         -17.8809  -12.5151   -9.5066 C.ar    1  UNL1        0.0757
     22 C         -18.9088  -12.7304  -10.4202 C.ar    1  UNL1        0.0185
     23 H         -16.8990  -14.4086   -9.2668 H       1  UNL1        0.1675
     24 C         -24.3068   -6.9309  -15.9667 C.ar    1  UNL1       -0.0165
     25 C         -24.9819   -5.8943  -16.6366 C.ar    1  UNL1        0.0142
     26 C         -25.9789   -5.1520  -15.9948 C.ar    1  UNL1        0.1054
     27 C         -26.3292   -5.4588  -14.6778 C.ar    1  UNL1        0.0185
     28 C         -25.6754   -6.4866  -13.9988 C.ar    1  UNL1        0.0055
     29 C         -24.6606   -7.2300  -14.6240 C.ar    1  UNL1        0.0497
     30 S         -26.8239   -3.8749  -16.8631 S.O2    1  UNL1        0.0104
     31 C         -28.5310   -3.8552  -16.3663 C.3     1  UNL1        0.1816
     32 O         -26.1963   -2.5442  -16.5554 O.2     1  UNL1       -0.1686
     33 O         -26.7320   -4.1208  -18.3430 O.2     1  UNL1       -0.1686
     34 C         -23.3285   -7.7680  -16.7620 C.3     1  UNL1        0.0265
     35 C         -20.9295   -8.3621  -16.2453 C.3     1  UNL1        0.0004
     36 C         -21.9026   -7.2365  -16.5822 C.3     1  UNL1        0.0047
@<TRIPOS>BOND
     1    35    36    1
     2    36    34    1
     3    34    24    1
     4    24    25   ar
     5    25    26   ar
     6    26    30    1
     7    30    31    1
     8    30    32    2
     9    30    33    2
    10    26    27   ar
    11    27    28   ar
    12    28    29   ar
    13    29     1    1
    14     1     2    2
    15     1     3   am
    16     3     4    1
    17     4     5    1
    18     5     6    1
    19     6     7    1
    20     7     8   ar
    21     8     9   ar
    22     9    10   ar
    23    10    14    1
    24    14    15   ar
    25    15    16   ar
    26    16    17   ar
    27    17    18   ar
    28    18    19   ar
    29    19    20   ar
    30    20    21   ar
    31    21    22   ar
    32    10    11   ar
    33    11    12   ar
    34    12    13    1
    35    29    24   ar
    36    13     3    1
    37    12     7   ar
    38    22    14   ar
    39    21    17   ar
    40    20    23    1
@<TRIPOS>MOLECULE
*****
 36 40 0 0 0
SMALL
GASTEIGER

@<TRIPOS>ATOM
      1 C         -22.4474   -9.3405  -11.7615 C.2     1  UNL1        0.2491
      2 O         -22.3264   -8.5022  -12.6958 O.2     1  UNL1       -0.2699
      3 N         -23.7592   -9.8207  -11.4015 N.am    1  UNL1       -0.2680
      4 C         -24.0965  -10.1245  -10.0067 C.3     1  UNL1        0.1412
      5 C         -24.7774   -8.9261   -9.3494 C.3     1  UNL1        0.2268
      6 O         -26.0275   -8.6236   -9.9662 O.3     1  UNL1       -0.4739
      7 C         -26.1252   -7.9385  -11.1828 C.ar    1  UNL1        0.1362
      8 C         -26.8550   -6.7470  -11.2187 C.ar    1  UNL1        0.0366
      9 C         -26.9496   -6.0078  -12.3988 C.ar    1  UNL1        0.0031
     10 C         -26.3254   -6.4584  -13.5734 C.ar    1  UNL1       -0.0000
     11 C         -25.6177   -7.6732  -13.5455 C.ar    1  UNL1        0.0004
     12 C         -25.5172   -8.4215  -12.3602 C.ar    1  UNL1        0.0317
     13 C         -24.8449   -9.7687  -12.3830 C.3     1  UNL1        0.1236
     14 C         -26.4236   -5.6702  -14.8278 C.ar    1  UNL1        0.0015
     15 C         -25.3994   -5.7551  -15.8123 C.ar    1  UNL1        0.0016
     16 C         -25.4819   -5.0128  -17.0054 C.ar    1  UNL1        0.0206
     17 C         -26.5942   -4.1978  -17.1857 C.ar    1  UNL1        0.0985
     18 N         -26.8747   -3.4076  -18.2375 N.ar    1  UNL1       -0.2241
     19 C         -28.0630   -2.8486  -17.8866 C.ar    1  UNL1        0.1750
     20 N         -28.5172   -3.2583  -16.6778 N.ar    1  UNL1       -0.3349
     21 C         -27.5781   -4.1102  -16.2504 C.ar    1  UNL1        0.0757
     22 C         -27.5376   -4.8260  -15.0573 C.ar    1  UNL1        0.0185
     23 H         -29.3977   -2.9730  -16.1942 H       1  UNL1        0.1675
     24 C         -20.8128  -11.2492  -11.3353 C.ar    1  UNL1       -0.0165
     25 C         -19.6606  -11.7119  -10.6738 C.ar    1  UNL1        0.0142
     26 C         -18.9363  -10.8746   -9.8187 C.ar    1  UNL1        0.1054
     27 C         -19.3460   -9.5515   -9.6367 C.ar    1  UNL1        0.0185
     28 C         -20.4822   -9.0726  -10.2881 C.ar    1  UNL1        0.0055
     29 C         -21.2297   -9.9059  -11.1368 C.ar    1  UNL1        0.0497
     30 S         -17.4853  -11.4719   -9.0206 S.O2    1  UNL1        0.0104
     31 C         -17.5787  -11.1110   -7.2822 C.3     1  UNL1        0.1816
     32 O         -17.3658  -12.9570   -9.2192 O.2     1  UNL1       -0.1686
     33 O         -16.2724  -10.8074   -9.6093 O.2     1  UNL1       -0.1686
     34 C         -21.4726  -12.1723  -12.3366 C.3     1  UNL1        0.0265
     35 C         -20.8919  -13.6304  -14.3145 C.3     1  UNL1        0.0004
     36 C         -20.4373  -13.1209  -12.9503 C.3     1  UNL1        0.0047
@<TRIPOS>BOND
     1    35    36    1
     2    36    34    1
     3    34    24    1
     4    24    25   ar
     5    25    26   ar
     6    26    30    1
     7    30    31    1
     8    30    32    2
     9    30    33    2
    10    26    27   ar
    11    27    28   ar
    12    28    29   ar
    13    29     1    1
    14     1     2    2
    15     1     3   am
    16     3     4    1
    17     4     5    1
    18     5     6    1
    19     6     7    1
    20     7     8   ar
    21     8     9   ar
    22     9    10   ar
    23    10    14    1
    24    14    15   ar
    25    15    16   ar
    26    16    17   ar
    27    17    18   ar
    28    18    19   ar
    29    19    20   ar
    30    20    21   ar
    31    21    22   ar
    32    10    11   ar
    33    11    12   ar
    34    12    13    1
    35    29    24   ar
    36    13     3    1
    37    12     7   ar
    38    22    14   ar
    39    21    17   ar
    40    20    23    1
@<TRIPOS>MOLECULE
*****
 36 40 0 0 0
SMALL
GASTEIGER

@<TRIPOS>ATOM
      1 C         -24.1511   -8.0977  -13.5304 C.2     1  UNL1        0.2491
      2 O         -23.0599   -7.8343  -12.9559 O.2     1  UNL1       -0.2699
      3 N         -24.7481   -9.4002  -13.3618 N.am    1  UNL1       -0.2680
      4 C         -25.4808  -10.0434  -14.4577 C.3     1  UNL1        0.1412
      5 C         -24.5637  -10.9894  -15.2295 C.3     1  UNL1        0.2268
      6 O         -24.1102  -12.0689  -14.4148 O.3     1  UNL1       -0.4739
      7 C         -23.0806  -11.9290  -13.4770 C.ar    1  UNL1        0.1362
      8 C         -21.9539  -12.7469  -13.5988 C.ar    1  UNL1        0.0366
      9 C         -20.8843  -12.6188  -12.7113 C.ar    1  UNL1        0.0031
     10 C         -20.9307  -11.6757  -11.6717 C.ar    1  UNL1       -0.0000
     11 C         -22.0775  -10.8745  -11.5296 C.ar    1  UNL1        0.0004
     12 C         -23.1571  -10.9974  -12.4209 C.ar    1  UNL1        0.0317
     13 C         -24.4146  -10.2036  -12.1837 C.3     1  UNL1        0.1236
     14 C         -19.7915  -11.5375  -10.7296 C.ar    1  UNL1        0.0015
     15 C         -19.5110  -10.2826  -10.1197 C.ar    1  UNL1        0.0016
     16 C         -18.4340  -10.1397   -9.2249 C.ar    1  UNL1        0.0206
     17 C         -17.6581  -11.2631   -8.9604 C.ar    1  UNL1        0.0985
     18 N         -16.5899  -11.3538   -8.1480 N.ar    1  UNL1       -0.2241
     19 C         -16.2283  -12.6585   -8.2694 C.ar    1  UNL1        0.1750
     20 N         -17.0210  -13.3630   -9.1124 N.ar    1  UNL1       -0.3349
     21 C         -17.9184  -12.4666   -9.5385 C.ar    1  UNL1        0.0757
     22 C         -18.9724  -12.6532  -10.4283 C.ar    1  UNL1        0.0185
     23 H         -16.9461  -14.3726   -9.3684 H       1  UNL1        0.1675
     24 C         -25.8918   -6.2422  -13.6853 C.ar    1  UNL1       -0.0165
     25 C         -26.5323   -5.2656  -14.4697 C.ar    1  UNL1        0.0142
     26 C         -26.1742   -5.0682  -15.8075 C.ar    1  UNL1        0.1054
     27 C         -25.1487   -5.8331  -16.3685 C.ar    1  UNL1        0.0185
     28 C         -24.4980   -6.8022  -15.6055 C.ar    1  UNL1        0.0055
     29 C         -24.8574   -7.0238  -14.2657 C.ar    1  UNL1        0.0497
     30 S         -26.9761   -3.8240  -16.7603 S.O2    1  UNL1        0.0104
     31 C         -28.6950   -3.7550  -16.3113 C.3     1  UNL1        0.1816
     32 O         -26.3359   -2.4888  -16.5022 O.2     1  UNL1       -0.1686
     33 O         -26.8493   -4.1448  -18.2233 O.2     1  UNL1       -0.1686
     34 C         -26.2471   -6.3147  -12.2161 C.3     1  UNL1        0.0265
     35 C         -27.2161   -8.0013  -10.6063 C.3     1  UNL1        0.0004
     36 C         -27.3448   -7.3584  -11.9837 C.3     1  UNL1        0.0047
@<TRIPOS>BOND
     1    35    36    1
     2    36    34    1
     3    34    24    1
     4    24    25   ar
     5    25    26   ar
     6    26    30    1
     7    30    31    1
     8    30    32    2
     9    30    33    2
    10    26    27   ar
    11    27    28   ar
    12    28    29   ar
    13    29     1    1
    14     1     2    2
    15     1     3   am
    16     3     4    1
    17     4     5    1
    18     5     6    1
    19     6     7    1
    20     7     8   ar
    21     8     9   ar
    22     9    10   ar
    23    10    14    1
    24    14    15   ar
    25    15    16   ar
    26    16    17   ar
    27    17    18   ar
    28    18    19   ar
    29    19    20   ar
    30    20    21   ar
    31    21    22   ar
    32    10    11   ar
    33    11    12   ar
    34    12    13    1
    35    29    24   ar
    36    13     3    1
    37    12     7   ar
    38    22    14   ar
    39    21    17   ar
    40    20    23    1
@<TRIPOS>MOLECULE
*****
 36 40 0 0 0
SMALL
GASTEIGER

@<TRIPOS>ATOM
      1 C         -22.4400   -9.3036  -11.4611 C.2     1  UNL1        0.2491
      2 O         -22.3221   -8.4185  -12.3515 O.2     1  UNL1       -0.2699
      3 N         -23.7330   -9.8916  -11.2088 N.am    1  UNL1       -0.2680
      4 C         -24.1351  -10.2799   -9.8526 C.3     1  UNL1        0.1412
      5 C         -24.9436   -9.1633   -9.1958 C.3     1  UNL1        0.2268
      6 O         -26.1707   -8.9239   -9.8825 O.3     1  UNL1       -0.4739
      7 C         -26.2411   -8.1945  -11.0749 C.ar    1  UNL1        0.1362
      8 C         -27.0533   -7.0577  -11.1127 C.ar    1  UNL1        0.0366
      9 C         -27.1269   -6.2759  -12.2665 C.ar    1  UNL1        0.0031
     10 C         -26.3974   -6.6286  -13.4135 C.ar    1  UNL1       -0.0000
     11 C         -25.6048   -7.7898  -13.3862 C.ar    1  UNL1        0.0004
     12 C         -25.5250   -8.5805  -12.2271 C.ar    1  UNL1        0.0317
     13 C         -24.7547   -9.8740  -12.2578 C.3     1  UNL1        0.1236
     14 C         -26.4734   -5.7949  -14.6397 C.ar    1  UNL1        0.0015
     15 C         -25.4227   -5.8295  -15.5990 C.ar    1  UNL1        0.0016
     16 C         -25.4841   -5.0438  -16.7653 C.ar    1  UNL1        0.0206
     17 C         -26.6024   -4.2368  -16.9446 C.ar    1  UNL1        0.0985
     18 N         -26.8660   -3.4110  -17.9732 N.ar    1  UNL1       -0.2241
     19 C         -28.0706   -2.8808  -17.6335 C.ar    1  UNL1        0.1750
     20 N         -28.5507   -3.3416  -16.4535 N.ar    1  UNL1       -0.3349
     21 C         -27.6115   -4.1970  -16.0333 C.ar    1  UNL1        0.0757
     22 C         -27.5925   -4.9569  -14.8671 C.ar    1  UNL1        0.0185
     23 H         -29.4474   -3.0860  -15.9832 H       1  UNL1        0.1675
     24 C         -20.5974   -9.1152   -9.7101 C.ar    1  UNL1       -0.0165
     25 C         -19.4266   -9.6512   -9.1434 C.ar    1  UNL1        0.0142
     26 C         -18.8720  -10.8408   -9.6275 C.ar    1  UNL1        0.1054
     27 C         -19.5017  -11.5221  -10.6719 C.ar    1  UNL1        0.0185
     28 C         -20.6662  -11.0097  -11.2428 C.ar    1  UNL1        0.0055
     29 C         -21.2261   -9.8077  -10.7791 C.ar    1  UNL1        0.0497
     30 S         -17.4188  -11.5017   -8.8857 S.O2    1  UNL1        0.0104
     31 C         -17.4410  -11.1604   -7.1409 C.3     1  UNL1        0.1816
     32 O         -17.3616  -12.9876   -9.1058 O.2     1  UNL1       -0.1686
     33 O         -16.2020  -10.8750   -9.5069 O.2     1  UNL1       -0.1686
     34 C         -21.2051   -7.8935   -9.0556 C.3     1  UNL1        0.0265
     35 C         -21.8409   -5.6235   -9.9602 C.3     1  UNL1        0.0004
     36 C         -20.7045   -6.6172   -9.7402 C.3     1  UNL1        0.0047
@<TRIPOS>BOND
     1    35    36    1
     2    36    34    1
     3    34    24    1
     4    24    25   ar
     5    25    26   ar
     6    26    30    1
     7    30    31    1
     8    30    32    2
     9    30    33    2
    10    26    27   ar
    11    27    28   ar
    12    28    29   ar
    13    29     1    1
    14     1     2    2
    15     1     3   am
    16     3     4    1
    17     4     5    1
    18     5     6    1
    19     6     7    1
    20     7     8   ar
    21     8     9   ar
    22     9    10   ar
    23    10    14    1
    24    14    15   ar
    25    15    16   ar
    26    16    17   ar
    27    17    18   ar
    28    18    19   ar
    29    19    20   ar
    30    20    21   ar
    31    21    22   ar
    32    10    11   ar
    33    11    12   ar
    34    12    13    1
    35    29    24   ar
    36    13     3    1
    37    12     7   ar
    38    22    14   ar
    39    21    17   ar
    40    20    23    1
@<TRIPOS>MOLECULE
*****
 36 40 0 0 0
SMALL
GASTEIGER

@<TRIPOS>ATOM
      1 C         -22.9715   -7.8931  -10.9133 C.2     1  UNL1        0.2491
      2 O         -22.9885   -6.8706  -11.6511 O.2     1  UNL1       -0.2699
      3 N         -23.9264   -8.9504  -11.1401 N.am    1  UNL1       -0.2680
      4 C         -24.4867   -9.7157  -10.0210 C.3     1  UNL1        0.1412
      5 C         -25.8258   -9.1237   -9.5875 C.3     1  UNL1        0.2268
      6 O         -26.8063   -9.2206  -10.6190 O.3     1  UNL1       -0.4739
      7 C         -26.8416   -8.3498  -11.7141 C.ar    1  UNL1        0.1362
      8 C         -28.0035   -7.6051  -11.9350 C.ar    1  UNL1        0.0366
      9 C         -28.0736   -6.6952  -12.9910 C.ar    1  UNL1        0.0031
     10 C         -26.9821   -6.5252  -13.8582 C.ar    1  UNL1       -0.0000
     11 C         -25.8245   -7.2973  -13.6554 C.ar    1  UNL1        0.0004
     12 C         -25.7469   -8.2140  -12.5930 C.ar    1  UNL1        0.0317
     13 C         -24.5387   -9.1032  -12.4615 C.3     1  UNL1        0.1236
     14 C         -27.0558   -5.5550  -14.9796 C.ar    1  UNL1        0.0015
     15 C         -25.9191   -5.3203  -15.8033 C.ar    1  UNL1        0.0016
     16 C         -25.9774   -4.4031  -16.8694 C.ar    1  UNL1        0.0206
     17 C         -27.1792   -3.7381  -17.0868 C.ar    1  UNL1        0.0985
     18 N         -27.4564   -2.8270  -18.0368 N.ar    1  UNL1       -0.2241
     19 C         -28.7549   -2.5140  -17.7851 C.ar    1  UNL1        0.1750
     20 N         -29.2791   -3.1871  -16.7328 N.ar    1  UNL1       -0.3349
     21 C         -28.2709   -3.9557  -16.3050 C.ar    1  UNL1        0.0757
     22 C         -28.2581   -4.8532  -15.2410 C.ar    1  UNL1        0.0185
     23 H         -30.2472   -3.1194  -16.3471 H       1  UNL1        0.1675
     24 C         -20.7970   -8.9281  -10.0785 C.ar    1  UNL1       -0.0165
     25 C         -19.8358   -9.0296   -9.0563 C.ar    1  UNL1        0.0142
     26 C         -19.9555   -8.2835   -7.8790 C.ar    1  UNL1        0.1054
     27 C         -21.0304   -7.4049   -7.7239 C.ar    1  UNL1        0.0185
     28 C         -21.9904   -7.2861   -8.7284 C.ar    1  UNL1        0.0055
     29 C         -21.8932   -8.0409   -9.9092 C.ar    1  UNL1        0.0497
     30 S         -18.7268   -8.4123   -6.6249 S.O2    1  UNL1        0.0104
     31 C         -19.5150   -8.6833   -5.0543 C.3     1  UNL1        0.1816
     32 O         -17.8038   -9.5593   -6.9278 O.2     1  UNL1       -0.1686
     33 O         -17.9203   -7.1451   -6.5726 O.2     1  UNL1       -0.1686
     34 C         -20.5370   -9.6718  -11.3707 C.3     1  UNL1        0.0265
     35 C         -21.6178  -11.7165  -12.3836 C.3     1  UNL1        0.0004
     36 C         -20.8352  -11.1647  -11.1960 C.3     1  UNL1        0.0047
@<TRIPOS>BOND
     1    35    36    1
     2    36    34    1
     3    34    24    1
     4    24    25   ar
     5    25    26   ar
     6    26    30    1
     7    30    31    1
     8    30    32    2
     9    30    33    2
    10    26    27   ar
    11    27    28   ar
    12    28    29   ar
    13    29     1    1
    14     1     2    2
    15     1     3   am
    16     3     4    1
    17     4     5    1
    18     5     6    1
    19     6     7    1
    20     7     8   ar
    21     8     9   ar
    22     9    10   ar
    23    10    14    1
    24    14    15   ar
    25    15    16   ar
    26    16    17   ar
    27    17    18   ar
    28    18    19   ar
    29    19    20   ar
    30    20    21   ar
    31    21    22   ar
    32    10    11   ar
    33    11    12   ar
    34    12    13    1
    35    29    24   ar
    36    13     3    1
    37    12     7   ar
    38    22    14   ar
    39    21    17   ar
    40    20    23    1
@<TRIPOS>MOLECULE
*****
 36 40 0 0 0
SMALL
GASTEIGER

@<TRIPOS>ATOM
      1 C         -23.8911   -8.6504  -14.0728 C.2     1  UNL1        0.2491
      2 O         -22.8339   -8.4492  -13.4155 O.2     1  UNL1       -0.2699
      3 N         -24.5182   -9.9490  -14.0322 N.am    1  UNL1       -0.2680
      4 C         -25.1912  -10.5006  -15.2131 C.3     1  UNL1        0.1412
      5 C         -24.2429  -11.4099  -15.9913 C.3     1  UNL1        0.2268
      6 O         -23.8585  -12.5517  -15.2276 O.3     1  UNL1       -0.4739
      7 C         -22.8875  -12.4973  -14.2210 C.ar    1  UNL1        0.1362
      8 C         -21.7686  -13.3277  -14.3302 C.ar    1  UNL1        0.0366
      9 C         -20.7547  -13.2824  -13.3721 C.ar    1  UNL1        0.0031
     10 C         -20.8509  -12.4121  -12.2741 C.ar    1  UNL1       -0.0000
     11 C         -21.9913  -11.5994  -12.1471 C.ar    1  UNL1        0.0004
     12 C         -23.0150  -11.6389  -13.1092 C.ar    1  UNL1        0.0317
     13 C         -24.2719  -10.8379  -12.8947 C.3     1  UNL1        0.1236
     14 C         -19.7707  -12.3619  -11.2567 C.ar    1  UNL1        0.0015
     15 C         -18.8644  -13.4501  -11.1159 C.ar    1  UNL1        0.0016
     16 C         -17.8364  -13.4136  -10.1552 C.ar    1  UNL1        0.0206
     17 C         -17.7395  -12.2817   -9.3529 C.ar    1  UNL1        0.0985
     18 N         -16.8448  -12.0366   -8.3788 N.ar    1  UNL1       -0.2241
     19 C         -17.2120  -10.8057   -7.9345 C.ar    1  UNL1        0.1750
     20 N         -18.2819  -10.2920   -8.5879 N.ar    1  UNL1       -0.3349
     21 C         -18.6010  -11.2367   -9.4801 C.ar    1  UNL1        0.0757
     22 C         -19.6312  -11.2303  -10.4162 C.ar    1  UNL1        0.0185
     23 H         -18.7476   -9.3709   -8.4292 H       1  UNL1        0.1675
     24 C         -24.1239   -7.0700  -16.0590 C.ar    1  UNL1       -0.0165
     25 C         -24.7680   -5.9597  -16.6349 C.ar    1  UNL1        0.0142
     26 C         -25.7877   -5.2861  -15.9542 C.ar    1  UNL1        0.1054
     27 C         -26.1921   -5.7355  -14.6948 C.ar    1  UNL1        0.0185
     28 C         -25.5696   -6.8378  -14.1098 C.ar    1  UNL1        0.0055
     29 C         -24.5328   -7.5146  -14.7733 C.ar    1  UNL1        0.0497
     30 S         -26.5926   -3.9133  -16.7070 S.O2    1  UNL1        0.0104
     31 C         -28.2947   -3.8753  -16.1942 C.3     1  UNL1        0.1816
     32 O         -25.9163   -2.6350  -16.2972 O.2     1  UNL1       -0.1686
     33 O         -26.5191   -4.0398  -18.2029 O.2     1  UNL1       -0.1686
     34 C         -23.1170   -7.8206  -16.9034 C.3     1  UNL1        0.0265
     35 C         -20.7644   -8.5200  -16.3109 C.3     1  UNL1        0.0004
     36 C         -21.6954   -7.3436  -16.5878 C.3     1  UNL1        0.0047
@<TRIPOS>BOND
     1    35    36    1
     2    36    34    1
     3    34    24    1
     4    24    25   ar
     5    25    26   ar
     6    26    30    1
     7    30    31    1
     8    30    32    2
     9    30    33    2
    10    26    27   ar
    11    27    28   ar
    12    28    29   ar
    13    29     1    1
    14     1     2    2
    15     1     3   am
    16     3     4    1
    17     4     5    1
    18     5     6    1
    19     6     7    1
    20     7     8   ar
    21     8     9   ar
    22     9    10   ar
    23    10    14    1
    24    14    15   ar
    25    15    16   ar
    26    16    17   ar
    27    17    18   ar
    28    18    19   ar
    29    19    20   ar
    30    20    21   ar
    31    21    22   ar
    32    10    11   ar
    33    11    12   ar
    34    12    13    1
    35    29    24   ar
    36    13     3    1
    37    12     7   ar
    38    22    14   ar
    39    21    17   ar
    40    20    23    1
@<TRIPOS>MOLECULE
*****
 36 40 0 0 0
SMALL
GASTEIGER

@<TRIPOS>ATOM
      1 C         -20.8258   -9.1856   -9.2283 C.2     1  UNL1        0.2491
      2 O         -20.9635  -10.3265   -9.7473 O.2     1  UNL1       -0.2699
      3 N         -21.7187   -8.1182   -9.6086 N.am    1  UNL1       -0.2680
      4 C         -21.2450   -6.7328   -9.6996 C.3     1  UNL1        0.1412
      5 C         -20.8522   -6.3967  -11.1364 C.3     1  UNL1        0.2268
      6 O         -21.9716   -6.4551  -12.0187 O.3     1  UNL1       -0.4739
      7 C         -22.4909   -7.6608  -12.5040 C.ar    1  UNL1        0.1362
      8 C         -22.5474   -7.8522  -13.8873 C.ar    1  UNL1        0.0366
      9 C         -23.0213   -9.0524  -14.4192 C.ar    1  UNL1        0.0031
     10 C         -23.4639  -10.0812  -13.5719 C.ar    1  UNL1       -0.0000
     11 C         -23.4369   -9.8769  -12.1809 C.ar    1  UNL1        0.0004
     12 C         -22.9593   -8.6714  -11.6389 C.ar    1  UNL1        0.0317
     13 C         -23.0399   -8.4375  -10.1535 C.3     1  UNL1        0.1236
     14 C         -23.9651  -11.3590  -14.1379 C.ar    1  UNL1        0.0015
     15 C         -25.3639  -11.6022  -14.2367 C.ar    1  UNL1        0.0016
     16 C         -25.8505  -12.8096  -14.7718 C.ar    1  UNL1        0.0206
     17 C         -24.9198  -13.7511  -15.1977 C.ar    1  UNL1        0.0985
     18 N         -25.1587  -14.9617  -15.7333 N.ar    1  UNL1       -0.2241
     19 C         -23.9080  -15.4456  -15.9552 C.ar    1  UNL1        0.1750
     20 N         -22.9241  -14.5922  -15.5823 N.ar    1  UNL1       -0.3349
     21 C         -23.5811  -13.5278  -15.1074 C.ar    1  UNL1        0.0757
     22 C         -23.0561  -12.3489  -14.5855 C.ar    1  UNL1        0.0185
     23 H         -21.8920  -14.7354  -15.6512 H       1  UNL1        0.1675
     24 C         -18.6600   -9.7970   -8.0316 C.ar    1  UNL1       -0.0165
     25 C         -17.7846   -9.5720   -6.9536 C.ar    1  UNL1        0.0142
     26 C         -18.0588   -8.5891   -5.9967 C.ar    1  UNL1        0.1054
     27 C         -19.2049   -7.8006   -6.1247 C.ar    1  UNL1        0.0185
     28 C         -20.0819   -8.0047   -7.1895 C.ar    1  UNL1        0.0055
     29 C         -19.8291   -8.9989   -8.1493 C.ar    1  UNL1        0.0497
     30 S         -16.9354   -8.3127   -4.6699 S.O2    1  UNL1        0.0104
     31 C         -17.8012   -8.4640   -3.1243 C.3     1  UNL1        0.1816
     32 O         -15.8222   -9.3214   -4.7224 O.2     1  UNL1       -0.1686
     33 O         -16.3441   -6.9355   -4.7842 O.2     1  UNL1       -0.1686
     34 C         -18.2367  -10.7911   -9.0913 C.3     1  UNL1        0.0265
     35 C         -16.0570  -12.0653   -9.0794 C.3     1  UNL1        0.0004
     36 C         -17.4448  -11.9403   -8.4584 C.3     1  UNL1        0.0047
@<TRIPOS>BOND
     1    35    36    1
     2    36    34    1
     3    34    24    1
     4    24    25   ar
     5    25    26   ar
     6    26    30    1
     7    30    31    1
     8    30    32    2
     9    30    33    2
    10    26    27   ar
    11    27    28   ar
    12    28    29   ar
    13    29     1    1
    14     1     2    2
    15     1     3   am
    16     3     4    1
    17     4     5    1
    18     5     6    1
    19     6     7    1
    20     7     8   ar
    21     8     9   ar
    22     9    10   ar
    23    10    14    1
    24    14    15   ar
    25    15    16   ar
    26    16    17   ar
    27    17    18   ar
    28    18    19   ar
    29    19    20   ar
    30    20    21   ar
    31    21    22   ar
    32    10    11   ar
    33    11    12   ar
    34    12    13    1
    35    29    24   ar
    36    13     3    1
    37    12     7   ar
    38    22    14   ar
    39    21    17   ar
    40    20    23    1
@<TRIPOS>MOLECULE
*****
 36 40 0 0 0
SMALL
GASTEIGER

@<TRIPOS>ATOM
      1 C         -21.5964  -10.6509  -11.8491 C.2     1  UNL1        0.2491
      2 O         -21.4626  -11.0432  -10.6582 O.2     1  UNL1       -0.2699
      3 N         -20.9434   -9.4375  -12.2763 N.am    1  UNL1       -0.2680
      4 C         -21.5742   -8.5433  -13.2532 C.3     1  UNL1        0.1412
      5 C         -22.3341   -7.4265  -12.5411 C.3     1  UNL1        0.2268
      6 O         -21.4592   -6.5848  -11.7922 O.3     1  UNL1       -0.4739
      7 C         -20.9421   -6.9501  -10.5440 C.ar    1  UNL1        0.1362
      8 C         -21.1978   -6.1200   -9.4490 C.ar    1  UNL1        0.0366
      9 C         -20.7363   -6.4608   -8.1767 C.ar    1  UNL1        0.0031
     10 C         -19.9935   -7.6363   -7.9798 C.ar    1  UNL1       -0.0000
     11 C         -19.7088   -8.4554   -9.0867 C.ar    1  UNL1        0.0004
     12 C         -20.1721   -8.1189  -10.3702 C.ar    1  UNL1        0.0317
     13 C         -19.7643   -8.9556  -11.5538 C.3     1  UNL1        0.1236
     14 C         -19.5053   -8.0002   -6.6257 C.ar    1  UNL1        0.0015
     15 C         -20.3505   -8.7024   -5.7212 C.ar    1  UNL1        0.0016
     16 C         -19.8985   -9.0529   -4.4352 C.ar    1  UNL1        0.0206
     17 C         -18.6032   -8.6896   -4.0825 C.ar    1  UNL1        0.0985
     18 N         -17.9722   -8.9179   -2.9167 N.ar    1  UNL1       -0.2241
     19 C         -16.7519   -8.3543   -3.1187 C.ar    1  UNL1        0.1750
     20 N         -16.6103   -7.7965   -4.3452 N.ar    1  UNL1       -0.3349
     21 C         -17.7880   -8.0184   -4.9400 C.ar    1  UNL1        0.0757
     22 C         -18.1934   -7.6523   -6.2204 C.ar    1  UNL1        0.0185
     23 H         -15.7735   -7.3071   -4.7334 H       1  UNL1        0.1675
     24 C         -23.7331  -11.4890  -12.9576 C.ar    1  UNL1       -0.0165
     25 C         -24.3396  -12.3644  -13.8769 C.ar    1  UNL1        0.0142
     26 C         -23.5733  -13.2566  -14.6344 C.ar    1  UNL1        0.1054
     27 C         -22.1832  -13.2631  -14.4967 C.ar    1  UNL1        0.0185
     28 C         -21.5631  -12.3989  -13.5948 C.ar    1  UNL1        0.0055
     29 C         -22.3200  -11.5089  -12.8149 C.ar    1  UNL1        0.0497
     30 S         -24.3551  -14.3257  -15.7940 S.O2    1  UNL1        0.0104
     31 C         -23.2800  -15.6968  -16.1484 C.3     1  UNL1        0.1816
     32 O         -25.6502  -14.8367  -15.2276 O.2     1  UNL1       -0.1686
     33 O         -24.6469  -13.5727  -17.0618 O.2     1  UNL1       -0.1686
     34 C         -24.6122  -10.4704  -12.2648 C.3     1  UNL1        0.0265
     35 C         -26.0640   -8.4396  -12.6433 C.3     1  UNL1        0.0004
     36 C         -25.3717   -9.6311  -13.2977 C.3     1  UNL1        0.0047
@<TRIPOS>BOND
     1    35    36    1
     2    36    34    1
     3    34    24    1
     4    24    25   ar
     5    25    26   ar
     6    26    30    1
     7    30    31    1
     8    30    32    2
     9    30    33    2
    10    26    27   ar
    11    27    28   ar
    12    28    29   ar
    13    29     1    1
    14     1     2    2
    15     1     3   am
    16     3     4    1
    17     4     5    1
    18     5     6    1
    19     6     7    1
    20     7     8   ar
    21     8     9   ar
    22     9    10   ar
    23    10    14    1
    24    14    15   ar
    25    15    16   ar
    26    16    17   ar
    27    17    18   ar
    28    18    19   ar
    29    19    20   ar
    30    20    21   ar
    31    21    22   ar
    32    10    11   ar
    33    11    12   ar
    34    12    13    1
    35    29    24   ar
    36    13     3    1
    37    12     7   ar
    38    22    14   ar
    39    21    17   ar
    40    20    23    1
@<TRIPOS>MOLECULE
*****
 36 40 0 0 0
SMALL
GASTEIGER

@<TRIPOS>ATOM
      1 C         -27.0016   -6.7214  -14.1637 C.2     1  UNL1        0.2491
      2 O         -26.7970   -7.7608  -14.8479 O.2     1  UNL1       -0.2699
      3 N         -26.1232   -6.4097  -13.0627 N.am    1  UNL1       -0.2680
      4 C         -26.6354   -5.7750  -11.8434 C.3     1  UNL1        0.1412
      5 C         -26.9545   -6.8300  -10.7866 C.3     1  UNL1        0.2268
      6 O         -25.7843   -7.5292  -10.3664 O.3     1  UNL1       -0.4739
      7 C         -25.1987   -8.5495  -11.1248 C.ar    1  UNL1        0.1362
      8 C         -25.0555   -9.8124  -10.5434 C.ar    1  UNL1        0.0366
      9 C         -24.5128  -10.8719  -11.2719 C.ar    1  UNL1        0.0031
     10 C         -24.0872  -10.6811  -12.5966 C.ar    1  UNL1       -0.0000
     11 C         -24.2018   -9.4029  -13.1713 C.ar    1  UNL1        0.0004
     12 C         -24.7490   -8.3322  -12.4437 C.ar    1  UNL1        0.0317
     13 C         -24.7628   -6.9515  -13.0446 C.3     1  UNL1        0.1236
     14 C         -23.5127  -11.8092  -13.3724 C.ar    1  UNL1        0.0015
     15 C         -22.1046  -11.9181  -13.5474 C.ar    1  UNL1        0.0016
     16 C         -21.5486  -12.9833  -14.2805 C.ar    1  UNL1        0.0206
     17 C         -22.4208  -13.9198  -14.8249 C.ar    1  UNL1        0.0985
     18 N         -22.1119  -15.0057  -15.5561 N.ar    1  UNL1       -0.2241
     19 C         -23.3299  -15.5477  -15.8209 C.ar    1  UNL1        0.1750
     20 N         -24.3605  -14.8476  -15.2888 N.ar    1  UNL1       -0.3349
     21 C         -23.7680  -13.8240  -14.6630 C.ar    1  UNL1        0.0757
     22 C         -24.3604  -12.7883  -13.9460 C.ar    1  UNL1        0.0185
     23 H         -25.3807  -15.0605  -15.3540 H       1  UNL1        0.1675
     24 C         -27.7915   -4.5386  -15.2164 C.ar    1  UNL1       -0.0165
     25 C         -28.8633   -3.6899  -15.5481 C.ar    1  UNL1        0.0142
     26 C         -30.1827   -4.0459  -15.2489 C.ar    1  UNL1        0.1054
     27 C         -30.4451   -5.2728  -14.6346 C.ar    1  UNL1        0.0185
     28 C         -29.3965   -6.1302  -14.3031 C.ar    1  UNL1        0.0055
     29 C         -28.0651   -5.7797  -14.5819 C.ar    1  UNL1        0.0497
     30 S         -31.5073   -2.9757  -15.6951 S.O2    1  UNL1        0.0104
     31 C         -31.2428   -2.3677  -17.3448 C.3     1  UNL1        0.1816
     32 O         -32.8106   -3.7224  -15.6383 O.2     1  UNL1       -0.1686
     33 O         -31.5713   -1.8203  -14.7359 O.2     1  UNL1       -0.1686
     34 C         -26.4062   -4.1433  -15.6799 C.3     1  UNL1        0.0265
     35 C         -25.2836   -5.2161  -17.6709 C.3     1  UNL1        0.0004
     36 C         -26.3201   -4.1965  -17.2089 C.3     1  UNL1        0.0047
@<TRIPOS>BOND
     1    35    36    1
     2    36    34    1
     3    34    24    1
     4    24    25   ar
     5    25    26   ar
     6    26    30    1
     7    30    31    1
     8    30    32    2
     9    30    33    2
    10    26    27   ar
    11    27    28   ar
    12    28    29   ar
    13    29     1    1
    14     1     2    2
    15     1     3   am
    16     3     4    1
    17     4     5    1
    18     5     6    1
    19     6     7    1
    20     7     8   ar
    21     8     9   ar
    22     9    10   ar
    23    10    14    1
    24    14    15   ar
    25    15    16   ar
    26    16    17   ar
    27    17    18   ar
    28    18    19   ar
    29    19    20   ar
    30    20    21   ar
    31    21    22   ar
    32    10    11   ar
    33    11    12   ar
    34    12    13    1
    35    29    24   ar
    36    13     3    1
    37    12     7   ar
    38    22    14   ar
    39    21    17   ar
    40    20    23    1
