@<TRIPOS>MOLECULE
*****
 51 56 0 0 0
SMALL
GASTEIGER

@<TRIPOS>ATOM
      1 N          62.0144   88.5678   12.6106 N.pl3   1  UNL1       -0.3037
      2 C          60.7599   88.1227   13.2364 C.3     1  UNL1        0.1123
      3 C          60.1925   86.8729   12.5520 C.3     1  UNL1        0.1126
      4 N          60.1458   87.0136   11.0851 N.pl3   1  UNL1       -0.2968
      5 C          61.0967   87.9149   10.4029 C.3     1  UNL1        0.1924
      6 C          62.3595   88.1163   11.2549 C.3     1  UNL1        0.1221
      7 C          64.7255   91.0361   14.8043 C.ar    1  UNL1        0.0699
      8 C          64.0904   89.9474   15.4246 C.ar    1  UNL1        0.0190
      9 C          63.2045   89.1394   14.7069 C.ar    1  UNL1        0.0160
     10 C          62.9308   89.4028   13.3530 C.ar    1  UNL1        0.0480
     11 C          63.5594   90.4993   12.7370 C.ar    1  UNL1        0.0160
     12 C          64.4448   91.3072   13.4554 C.ar    1  UNL1        0.0190
     13 N          67.4619   92.9024   16.2903 N.ar    1  UNL1       -0.2024
     14 N          66.4409   93.3800   16.9861 N.ar    1  UNL1       -0.1442
     15 C          65.3365   92.7552   16.5232 C.ar    1  UNL1        0.2073
     16 N          65.6360   91.8763   15.5398 N.ar    1  UNL1       -0.2398
     17 C          66.9724   92.0001   15.4170 C.ar    1  UNL1        0.3522
     18 O          67.6711   91.3800   14.5707 O.2     1  UNL1       -0.2444
     19 C          68.8510   93.3383   16.4767 C.3     1  UNL1        0.1099
     20 C          69.0467   94.7427   15.8898 C.3     1  UNL1        0.0265
     21 C          70.1772   92.6132   14.4140 C.3     1  UNL1        0.0021
     22 C          69.8210   92.3037   15.8682 C.3     1  UNL1        0.0245
     23 C          59.2701   86.1532   10.3112 C.ar    1  UNL1        0.0485
     24 C          59.4348   86.0243    8.9185 C.ar    1  UNL1        0.0176
     25 C          58.6088   85.1761    8.1784 C.ar    1  UNL1        0.0382
     26 C          57.6098   84.4258    8.8032 C.ar    1  UNL1        0.1388
     27 C          57.4084   84.5801   10.1865 C.ar    1  UNL1        0.0382
     28 C          58.2335   85.4283   10.9305 C.ar    1  UNL1        0.0176
     29 O          56.8446   83.5628    8.0023 O.3     1  UNL1       -0.4727
     30 C          57.2866   82.3569    7.3729 C.3     1  UNL1        0.2374
     31 C          58.6831   81.9337    7.8605 C.3     1  UNL1        0.1909
     32 C          59.0953   80.5523    7.4439 C.3     1  UNL1        0.1783
     33 O          59.8890   80.0631    8.4787 O.3     1  UNL1       -0.3271
     34 C          59.7081   80.9421    9.5749 C.3     1  UNL1        0.2232
     35 O          58.7497   81.9300    9.2504 O.3     1  UNL1       -0.3258
     36 C          61.0426   81.6083    9.9320 C.ar    1  UNL1        0.0404
     37 C          61.1144   83.0156   10.0300 C.ar    1  UNL1        0.0021
     38 C          62.3176   83.6550   10.3337 C.ar    1  UNL1        0.0113
     39 C          63.4786   82.9088   10.5270 C.ar    1  UNL1        0.0585
     40 CL         64.9889   83.7168   10.9060 Cl      1  UNL1       -0.0822
     41 C          63.4410   81.5198   10.4028 C.ar    1  UNL1        0.0226
     42 C          62.2424   80.8628   10.0972 C.ar    1  UNL1        0.0591
     43 CL         62.3207   79.1120    9.9032 Cl      1  UNL1       -0.0824
     44 C          59.2124   80.1262   10.7877 C.3     1  UNL1        0.1338
     45 N          59.4961   80.8367   12.0586 N.3     1  UNL1       -0.2659
     46 C          59.6665   79.8780   13.1632 C.3     1  UNL1        0.0898
     47 C          58.4192   81.7838   12.3980 C.3     1  UNL1        0.0898
     48 C          60.4615   89.2450   10.0870 C.2     1  UNL1        0.3337
     49 O          59.5914   89.7440   10.8507 O.2     1  UNL1       -0.2484
     50 O          60.8593   89.9395    8.9490 O.3     1  UNL1       -0.4790
     51 H          60.4531   90.8390    8.7208 H       1  UNL1        0.2951
@<TRIPOS>BOND
     1    21    22    1
     2    22    19    1
     3    19    20    1
     4    19    13    1
     5    13    14   ar
     6    14    15   ar
     7    15    16   ar
     8    16     7    1
     9     7     8   ar
    10     8     9   ar
    11     9    10   ar
    12    10     1    1
    13     1     2    1
    14     2     3    1
    15     3     4    1
    16     4    23    1
    17    23    24   ar
    18    24    25   ar
    19    25    26   ar
    20    26    29    1
    21    29    30    1
    22    30    31    1
    23    31    32    1
    24    32    33    1
    25    33    34    1
    26    34    44    1
    27    44    45    1
    28    45    46    1
    29    45    47    1
    30    34    36    1
    31    36    37   ar
    32    37    38   ar
    33    38    39   ar
    34    39    40    1
    35    39    41   ar
    36    41    42   ar
    37    42    43    1
    38    34    35    1
    39    26    27   ar
    40    27    28   ar
    41     4     5    1
    42     5    48    1
    43    48    49    2
    44    48    50    1
    45     5     6    1
    46    10    11   ar
    47    11    12   ar
    48    16    17   ar
    49    17    18    2
    50    17    13   ar
    51    12     7   ar
    52     6     1    1
    53    28    23   ar
    54    35    31    1
    55    42    36   ar
    56    50    51    1
@<TRIPOS>MOLECULE
*****
 51 56 0 0 0
SMALL
GASTEIGER

@<TRIPOS>ATOM
      1 N          59.2737   88.5960    7.4136 N.pl3   1  UNL1       -0.3037
      2 C          59.0551   87.2136    6.9614 C.3     1  UNL1        0.1123
      3 C          58.2923   86.3859    8.0032 C.3     1  UNL1        0.1126
      4 N          58.8701   86.5199    9.3530 N.pl3   1  UNL1       -0.2968
      5 C          59.6095   87.7457    9.7172 C.3     1  UNL1        0.1924
      6 C          59.1649   88.9276    8.8416 C.3     1  UNL1        0.1221
      7 C          60.0582   91.6675    4.5491 C.ar    1  UNL1        0.0699
      8 C          61.1097   90.9036    5.0823 C.ar    1  UNL1        0.0190
      9 C          60.8531   89.8983    6.0184 C.ar    1  UNL1        0.0160
     10 C          59.5394   89.6352    6.4453 C.ar    1  UNL1        0.0480
     11 C          58.4897   90.4080    5.9183 C.ar    1  UNL1        0.0160
     12 C          58.7470   91.4135    4.9827 C.ar    1  UNL1        0.0190
     13 N          61.1982   93.9384    1.9562 N.ar    1  UNL1       -0.2024
     14 N          60.1224   94.5829    2.3827 N.ar    1  UNL1       -0.1442
     15 C          59.5911   93.8295    3.3699 C.ar    1  UNL1        0.2073
     16 N          60.3164   92.7090    3.5875 N.ar    1  UNL1       -0.2398
     17 C          61.3092   92.8079    2.6814 C.ar    1  UNL1        0.3522
     18 O          62.2057   91.9387    2.5084 O.2     1  UNL1       -0.2444
     19 C          62.0594   94.4189    0.8692 C.3     1  UNL1        0.1099
     20 C          61.9799   93.4631   -0.3288 C.3     1  UNL1        0.0265
     21 C          64.5109   93.7300    0.6364 C.3     1  UNL1        0.0021
     22 C          63.5039   94.6096    1.3775 C.3     1  UNL1        0.0245
     23 C          58.5786   85.5156   10.3592 C.ar    1  UNL1        0.0485
     24 C          58.2228   84.2051    9.9861 C.ar    1  UNL1        0.0176
     25 C          57.9681   83.2324   10.9549 C.ar    1  UNL1        0.0382
     26 C          58.0736   83.5321   12.3151 C.ar    1  UNL1        0.1388
     27 C          58.3854   84.8487   12.6989 C.ar    1  UNL1        0.0382
     28 C          58.6411   85.8250   11.7318 C.ar    1  UNL1        0.0176
     29 O          57.8437   82.4937   13.2320 O.3     1  UNL1       -0.4727
     30 C          58.7231   81.4086   13.5395 C.3     1  UNL1        0.2374
     31 C          60.0697   81.5359   12.8062 C.3     1  UNL1        0.1909
     32 C          61.0404   80.4276   13.0912 C.3     1  UNL1        0.1783
     33 O          62.3063   81.0057   13.0343 O.3     1  UNL1       -0.3271
     34 C          62.1088   82.4086   13.0379 C.3     1  UNL1        0.2232
     35 O          60.7322   82.7034   13.1724 O.3     1  UNL1       -0.3258
     36 C          62.6458   83.0119   11.7341 C.ar    1  UNL1        0.0404
     37 C          61.7755   83.7412   10.8938 C.ar    1  UNL1        0.0021
     38 C          62.2269   84.2868    9.6907 C.ar    1  UNL1        0.0113
     39 C          63.5486   84.1014    9.2891 C.ar    1  UNL1        0.0585
     40 CL         64.1107   84.7865    7.7752 Cl      1  UNL1       -0.0822
     41 C          64.4191   83.3566   10.0852 C.ar    1  UNL1        0.0226
     42 C          63.9818   82.8013   11.2945 C.ar    1  UNL1        0.0591
     43 CL         65.1466   81.8274   12.1911 Cl      1  UNL1       -0.0824
     44 C          62.8814   83.0146   14.2286 C.3     1  UNL1        0.1338
     45 N          62.9421   84.4933   14.1261 N.3     1  UNL1       -0.2659
     46 C          64.2987   84.9799   14.4283 C.3     1  UNL1        0.0898
     47 C          61.9800   85.1363   15.0385 C.3     1  UNL1        0.0898
     48 C          61.0987   87.5422    9.6039 C.2     1  UNL1        0.3337
     49 O          61.6046   87.0283    8.5698 O.2     1  UNL1       -0.2484
     50 O          61.9256   87.9489   10.6462 O.3     1  UNL1       -0.4790
     51 H          62.9301   87.8304   10.5891 H       1  UNL1        0.2951
@<TRIPOS>BOND
     1    21    22    1
     2    22    19    1
     3    19    20    1
     4    19    13    1
     5    13    14   ar
     6    14    15   ar
     7    15    16   ar
     8    16     7    1
     9     7     8   ar
    10     8     9   ar
    11     9    10   ar
    12    10     1    1
    13     1     2    1
    14     2     3    1
    15     3     4    1
    16     4    23    1
    17    23    24   ar
    18    24    25   ar
    19    25    26   ar
    20    26    29    1
    21    29    30    1
    22    30    31    1
    23    31    32    1
    24    32    33    1
    25    33    34    1
    26    34    44    1
    27    44    45    1
    28    45    46    1
    29    45    47    1
    30    34    36    1
    31    36    37   ar
    32    37    38   ar
    33    38    39   ar
    34    39    40    1
    35    39    41   ar
    36    41    42   ar
    37    42    43    1
    38    34    35    1
    39    26    27   ar
    40    27    28   ar
    41     4     5    1
    42     5    48    1
    43    48    49    2
    44    48    50    1
    45     5     6    1
    46    10    11   ar
    47    11    12   ar
    48    16    17   ar
    49    17    18    2
    50    17    13   ar
    51    12     7   ar
    52     6     1    1
    53    28    23   ar
    54    35    31    1
    55    42    36   ar
    56    50    51    1
@<TRIPOS>MOLECULE
*****
 51 56 0 0 0
SMALL
GASTEIGER

@<TRIPOS>ATOM
      1 N          60.2076   89.5158    7.0806 N.pl3   1  UNL1       -0.3037
      2 C          59.9648   90.0266    8.4384 C.3     1  UNL1        0.1123
      3 C          60.6203   89.1426    9.5067 C.3     1  UNL1        0.1126
      4 N          60.3157   87.7133    9.3108 N.pl3   1  UNL1       -0.2968
      5 C          60.0075   87.2065    7.9580 C.3     1  UNL1        0.1924
      6 C          60.6209   88.1188    6.8844 C.3     1  UNL1        0.1221
      7 C          59.8685   92.1441    3.7292 C.ar    1  UNL1        0.0699
      8 C          61.0925   91.5226    4.0275 C.ar    1  UNL1        0.0190
      9 C          61.2032   90.6621    5.1231 C.ar    1  UNL1        0.0160
     10 C          60.0934   90.4051    5.9474 C.ar    1  UNL1        0.0480
     11 C          58.8720   91.0365    5.6532 C.ar    1  UNL1        0.0160
     12 C          58.7621   91.8972    4.5579 C.ar    1  UNL1        0.0190
     13 N          59.3946   93.8802    0.5763 N.ar    1  UNL1       -0.2024
     14 N          59.7441   94.8920    1.3564 N.ar    1  UNL1       -0.1442
     15 C          59.9542   94.3729    2.5856 C.ar    1  UNL1        0.2073
     16 N          59.7487   93.0363    2.6042 N.ar    1  UNL1       -0.2398
     17 C          59.3942   92.7647    1.3326 C.ar    1  UNL1        0.3522
     18 O          59.0687   91.6219    0.9119 O.2     1  UNL1       -0.2444
     19 C          59.0614   94.0240   -0.8459 C.3     1  UNL1        0.1099
     20 C          57.6053   93.6063   -1.0917 C.3     1  UNL1        0.0265
     21 C          61.4640   93.8271   -1.6988 C.3     1  UNL1        0.0021
     22 C          60.0588   93.2251   -1.7110 C.3     1  UNL1        0.0245
     23 C          60.4697   86.7902   10.4199 C.ar    1  UNL1        0.0485
     24 C          61.7497   86.4197   10.8755 C.ar    1  UNL1        0.0176
     25 C          61.8971   85.5520   11.9595 C.ar    1  UNL1        0.0382
     26 C          60.7799   85.0427   12.6255 C.ar    1  UNL1        0.1388
     27 C          59.4973   85.3716   12.1515 C.ar    1  UNL1        0.0382
     28 C          59.3461   86.2400   11.0666 C.ar    1  UNL1        0.0176
     29 O          61.0042   84.2090   13.7330 O.3     1  UNL1       -0.4727
     30 C          62.0793   84.2984   14.6720 C.3     1  UNL1        0.2374
     31 C          62.4677   85.7585   14.9623 C.3     1  UNL1        0.1909
     32 C          62.3455   86.1600   16.4030 C.3     1  UNL1        0.1783
     33 O          61.9826   87.5047   16.3944 O.3     1  UNL1       -0.3271
     34 C          61.5983   87.8095   15.0653 C.3     1  UNL1        0.2232
     35 O          61.6493   86.6433   14.2670 O.3     1  UNL1       -0.3258
     36 C          62.5336   88.8783   14.4865 C.ar    1  UNL1        0.0404
     37 C          62.7390   88.9422   13.0904 C.ar    1  UNL1        0.0021
     38 C          63.5988   89.8898   12.5324 C.ar    1  UNL1        0.0113
     39 C          64.2874   90.7810   13.3534 C.ar    1  UNL1        0.0585
     40 CL         65.3690   91.9685   12.6480 Cl      1  UNL1       -0.0822
     41 C          64.1274   90.7165   14.7378 C.ar    1  UNL1        0.0226
     42 C          63.2696   89.7708   15.3137 C.ar    1  UNL1        0.0591
     43 CL         63.1893   89.7365   17.0748 Cl      1  UNL1       -0.0824
     44 C          60.1556   88.3577   15.0800 C.3     1  UNL1        0.1338
     45 N          59.4865   88.1296   13.7759 N.3     1  UNL1       -0.2659
     46 C          59.4867   89.3614   12.9690 C.3     1  UNL1        0.0898
     47 C          58.0992   87.6662   13.9561 C.3     1  UNL1        0.0898
     48 C          58.5208   87.0765    7.7463 C.2     1  UNL1        0.3337
     49 O          57.8970   86.0569    8.1473 O.2     1  UNL1       -0.2484
     50 O          57.8266   88.1070    7.1205 O.3     1  UNL1       -0.4790
     51 H          56.8259   88.0460    6.9751 H       1  UNL1        0.2951
@<TRIPOS>BOND
     1    21    22    1
     2    22    19    1
     3    19    20    1
     4    19    13    1
     5    13    14   ar
     6    14    15   ar
     7    15    16   ar
     8    16     7    1
     9     7     8   ar
    10     8     9   ar
    11     9    10   ar
    12    10     1    1
    13     1     2    1
    14     2     3    1
    15     3     4    1
    16     4    23    1
    17    23    24   ar
    18    24    25   ar
    19    25    26   ar
    20    26    29    1
    21    29    30    1
    22    30    31    1
    23    31    32    1
    24    32    33    1
    25    33    34    1
    26    34    44    1
    27    44    45    1
    28    45    46    1
    29    45    47    1
    30    34    36    1
    31    36    37   ar
    32    37    38   ar
    33    38    39   ar
    34    39    40    1
    35    39    41   ar
    36    41    42   ar
    37    42    43    1
    38    34    35    1
    39    26    27   ar
    40    27    28   ar
    41     4     5    1
    42     5    48    1
    43    48    49    2
    44    48    50    1
    45     5     6    1
    46    10    11   ar
    47    11    12   ar
    48    16    17   ar
    49    17    18    2
    50    17    13   ar
    51    12     7   ar
    52     6     1    1
    53    28    23   ar
    54    35    31    1
    55    42    36   ar
    56    50    51    1
@<TRIPOS>MOLECULE
*****
 51 56 0 0 0
SMALL
GASTEIGER

@<TRIPOS>ATOM
      1 N          60.1002   89.7655    7.1895 N.pl3   1  UNL1       -0.3037
      2 C          59.6582   90.3290    8.4743 C.3     1  UNL1        0.1123
      3 C          60.2666   89.5793    9.6660 C.3     1  UNL1        0.1126
      4 N          60.1194   88.1177    9.5387 N.pl3   1  UNL1       -0.2968
      5 C          60.0155   87.5037    8.1993 C.3     1  UNL1        0.1924
      6 C          60.6604   88.4074    7.1369 C.3     1  UNL1        0.1221
      7 C          59.9039   92.1442    3.6458 C.ar    1  UNL1        0.0699
      8 C          61.1182   91.5648    4.0498 C.ar    1  UNL1        0.0190
      9 C          61.1823   90.7859    5.2083 C.ar    1  UNL1        0.0160
     10 C          60.0343   90.5704    5.9913 C.ar    1  UNL1        0.0480
     11 C          58.8223   91.1600    5.5907 C.ar    1  UNL1        0.0160
     12 C          58.7590   91.9392    4.4325 C.ar    1  UNL1        0.0190
     13 N          59.6773   93.6341    0.3430 N.ar    1  UNL1       -0.2024
     14 N          59.7526   94.7237    1.0923 N.ar    1  UNL1       -0.1442
     15 C          59.8430   94.3025    2.3725 C.ar    1  UNL1        0.2073
     16 N          59.8320   92.9527    2.4553 N.ar    1  UNL1       -0.2398
     17 C          59.7209   92.5693    1.1680 C.ar    1  UNL1        0.3522
     18 O          59.6324   91.3712    0.7860 O.2     1  UNL1       -0.2444
     19 C          59.5505   93.6568   -1.1191 C.3     1  UNL1        0.1099
     20 C          60.6778   94.4973   -1.7336 C.3     1  UNL1        0.0265
     21 C          57.0628   93.1035   -1.3294 C.3     1  UNL1        0.0021
     22 C          58.1496   94.1607   -1.5254 C.3     1  UNL1        0.0245
     23 C          60.2306   87.2818   10.7198 C.ar    1  UNL1        0.0485
     24 C          61.4782   87.0726   11.3386 C.ar    1  UNL1        0.0176
     25 C          61.5805   86.2895   12.4901 C.ar    1  UNL1        0.0382
     26 C          60.4471   85.7073   13.0626 C.ar    1  UNL1        0.1388
     27 C          59.2032   85.8737   12.4280 C.ar    1  UNL1        0.0382
     28 C          59.0971   86.6570   11.2751 C.ar    1  UNL1        0.0176
     29 O          60.6195   84.9672   14.2434 O.3     1  UNL1       -0.4727
     30 C          61.1626   83.6492   14.3598 C.3     1  UNL1        0.2374
     31 C          60.6912   82.7314   13.2185 C.3     1  UNL1        0.1909
     32 C          60.8152   81.2644   13.5084 C.3     1  UNL1        0.1783
     33 O          61.0952   80.6568   12.2868 O.3     1  UNL1       -0.3271
     34 C          61.4356   81.6977   11.3881 C.3     1  UNL1        0.2232
     35 O          61.4412   82.9393   12.0650 O.3     1  UNL1       -0.3258
     36 C          60.4263   81.7381   10.2340 C.ar    1  UNL1        0.0404
     37 C          59.5374   80.6561   10.0478 C.ar    1  UNL1        0.0021
     38 C          58.6198   80.6520    8.9958 C.ar    1  UNL1        0.0113
     39 C          58.5807   81.7151    8.0956 C.ar    1  UNL1        0.0585
     40 CL         57.4277   81.7044    6.7735 Cl      1  UNL1       -0.0822
     41 C          59.4707   82.7799    8.2381 C.ar    1  UNL1        0.0226
     42 C          60.3985   82.7990    9.2873 C.ar    1  UNL1        0.0591
     43 CL         61.5163   84.1617    9.3375 Cl      1  UNL1       -0.0824
     44 C          62.8421   81.4190   10.8171 C.3     1  UNL1        0.1338
     45 N          63.7801   82.5179   11.1535 N.3     1  UNL1       -0.2659
     46 C          64.6447   82.8334   10.0041 C.3     1  UNL1        0.0898
     47 C          64.6202   82.1725   12.3140 C.3     1  UNL1        0.0898
     48 C          58.5810   87.2141    7.8383 C.2     1  UNL1        0.3337
     49 O          58.0426   86.1190    8.1551 O.2     1  UNL1       -0.2484
     50 O          57.8367   88.1790    7.1671 O.3     1  UNL1       -0.4790
     51 H          56.8684   88.0105    6.9217 H       1  UNL1        0.2951
@<TRIPOS>BOND
     1    21    22    1
     2    22    19    1
     3    19    20    1
     4    19    13    1
     5    13    14   ar
     6    14    15   ar
     7    15    16   ar
     8    16     7    1
     9     7     8   ar
    10     8     9   ar
    11     9    10   ar
    12    10     1    1
    13     1     2    1
    14     2     3    1
    15     3     4    1
    16     4    23    1
    17    23    24   ar
    18    24    25   ar
    19    25    26   ar
    20    26    29    1
    21    29    30    1
    22    30    31    1
    23    31    32    1
    24    32    33    1
    25    33    34    1
    26    34    44    1
    27    44    45    1
    28    45    46    1
    29    45    47    1
    30    34    36    1
    31    36    37   ar
    32    37    38   ar
    33    38    39   ar
    34    39    40    1
    35    39    41   ar
    36    41    42   ar
    37    42    43    1
    38    34    35    1
    39    26    27   ar
    40    27    28   ar
    41     4     5    1
    42     5    48    1
    43    48    49    2
    44    48    50    1
    45     5     6    1
    46    10    11   ar
    47    11    12   ar
    48    16    17   ar
    49    17    18    2
    50    17    13   ar
    51    12     7   ar
    52     6     1    1
    53    28    23   ar
    54    35    31    1
    55    42    36   ar
    56    50    51    1
@<TRIPOS>MOLECULE
*****
 51 56 0 0 0
SMALL
GASTEIGER

@<TRIPOS>ATOM
      1 N          60.0863   89.8486    7.3554 N.pl3   1  UNL1       -0.3037
      2 C          60.3356   88.3994    7.3204 C.3     1  UNL1        0.1123
      3 C          59.8843   87.7111    8.6145 C.3     1  UNL1        0.1126
      4 N          60.3822   88.4039    9.8170 N.pl3   1  UNL1       -0.2968
      5 C          60.6765   89.8504    9.7625 C.3     1  UNL1        0.1924
      6 C          59.8706   90.5260    8.6421 C.3     1  UNL1        0.1221
      7 C          59.8251   92.0468    3.7010 C.ar    1  UNL1        0.0699
      8 C          61.0546   91.5205    4.1307 C.ar    1  UNL1        0.0190
      9 C          61.1400   90.8006    5.3254 C.ar    1  UNL1        0.0160
     10 C          59.9984   90.5925    6.1197 C.ar    1  UNL1        0.0480
     11 C          58.7709   91.1292    5.6930 C.ar    1  UNL1        0.0160
     12 C          58.6863   91.8494    4.4985 C.ar    1  UNL1        0.0190
     13 N          59.6317   93.3711    0.3263 N.ar    1  UNL1       -0.2024
     14 N          59.5208   94.4887    1.0286 N.ar    1  UNL1       -0.1442
     15 C          59.5788   94.1306    2.3297 C.ar    1  UNL1        0.2073
     16 N          59.7311   92.7944    2.4728 N.ar    1  UNL1       -0.2398
     17 C          59.7537   92.3522    1.1999 C.ar    1  UNL1        0.3522
     18 O          59.8409   91.1392    0.8681 O.2     1  UNL1       -0.2444
     19 C          59.5994   93.3228   -1.1403 C.3     1  UNL1        0.1099
     20 C          59.7501   94.7364   -1.7183 C.3     1  UNL1        0.0265
     21 C          57.0562   93.4561   -1.3705 C.3     1  UNL1        0.0021
     22 C          58.3122   92.6218   -1.6228 C.3     1  UNL1        0.0245
     23 C          60.4343   87.6942   11.0818 C.ar    1  UNL1        0.0485
     24 C          61.6660   87.4470   11.7182 C.ar    1  UNL1        0.0176
     25 C          61.7132   86.7873   12.9479 C.ar    1  UNL1        0.0382
     26 C          60.5405   86.3699   13.5817 C.ar    1  UNL1        0.1388
     27 C          59.3086   86.5728   12.9343 C.ar    1  UNL1        0.0382
     28 C          59.2576   87.2329   11.7032 C.ar    1  UNL1        0.0176
     29 O          60.6616   85.7499   14.8358 O.3     1  UNL1       -0.4727
     30 C          61.5735   84.7082   15.1948 C.3     1  UNL1        0.2374
     31 C          61.5322   83.5396   14.1949 C.3     1  UNL1        0.1909
     32 C          62.8510   83.2242   13.5520 C.3     1  UNL1        0.1783
     33 O          62.5513   82.7764   12.2676 O.3     1  UNL1       -0.3271
     34 C          61.1919   83.1003   12.0352 C.3     1  UNL1        0.2232
     35 O          60.6684   83.8129   13.1388 O.3     1  UNL1       -0.3258
     36 C          60.3829   81.8164   11.8130 C.ar    1  UNL1        0.0404
     37 C          61.0538   80.6199   11.4759 C.ar    1  UNL1        0.0021
     38 C          60.3463   79.4383   11.2476 C.ar    1  UNL1        0.0113
     39 C          58.9551   79.4271   11.3306 C.ar    1  UNL1        0.0585
     40 CL         58.0700   77.9406   11.0403 Cl      1  UNL1       -0.0822
     41 C          58.2670   80.6034   11.6291 C.ar    1  UNL1        0.0226
     42 C          58.9616   81.7976   11.8596 C.ar    1  UNL1        0.0591
     43 CL         57.9908   83.2370   12.1677 Cl      1  UNL1       -0.0824
     44 C          61.1012   83.9779   10.7688 C.3     1  UNL1        0.1338
     45 N          61.8215   83.3503    9.6340 N.3     1  UNL1       -0.2659
     46 C          63.0878   84.0538    9.3695 C.3     1  UNL1        0.0898
     47 C          61.0009   83.3487    8.4100 C.3     1  UNL1        0.0898
     48 C          62.1502   90.1036    9.5721 C.2     1  UNL1        0.3337
     49 O          62.9706   89.1473    9.5288 O.2     1  UNL1       -0.2484
     50 O          62.6055   91.4094    9.4194 O.3     1  UNL1       -0.4790
     51 H          63.5901   91.6035    9.2815 H       1  UNL1        0.2951
@<TRIPOS>BOND
     1    21    22    1
     2    22    19    1
     3    19    20    1
     4    19    13    1
     5    13    14   ar
     6    14    15   ar
     7    15    16   ar
     8    16     7    1
     9     7     8   ar
    10     8     9   ar
    11     9    10   ar
    12    10     1    1
    13     1     2    1
    14     2     3    1
    15     3     4    1
    16     4    23    1
    17    23    24   ar
    18    24    25   ar
    19    25    26   ar
    20    26    29    1
    21    29    30    1
    22    30    31    1
    23    31    32    1
    24    32    33    1
    25    33    34    1
    26    34    44    1
    27    44    45    1
    28    45    46    1
    29    45    47    1
    30    34    36    1
    31    36    37   ar
    32    37    38   ar
    33    38    39   ar
    34    39    40    1
    35    39    41   ar
    36    41    42   ar
    37    42    43    1
    38    34    35    1
    39    26    27   ar
    40    27    28   ar
    41     4     5    1
    42     5    48    1
    43    48    49    2
    44    48    50    1
    45     5     6    1
    46    10    11   ar
    47    11    12   ar
    48    16    17   ar
    49    17    18    2
    50    17    13   ar
    51    12     7   ar
    52     6     1    1
    53    28    23   ar
    54    35    31    1
    55    42    36   ar
    56    50    51    1
@<TRIPOS>MOLECULE
*****
 51 56 0 0 0
SMALL
GASTEIGER

@<TRIPOS>ATOM
      1 N          62.4078   88.4995   11.1584 N.pl3   1  UNL1       -0.3037
      2 C          62.3051   88.4448    9.6921 C.3     1  UNL1        0.1123
      3 C          61.0350   87.7162    9.2355 C.3     1  UNL1        0.1126
      4 N          60.8546   86.4256    9.9251 N.pl3   1  UNL1       -0.2968
      5 C          61.4302   86.2248   11.2706 C.3     1  UNL1        0.1924
      6 C          61.6222   87.5717   11.9848 C.3     1  UNL1        0.1221
      7 C          64.8623   91.4676   13.0078 C.ar    1  UNL1        0.0699
      8 C          64.4082   91.6376   11.6894 C.ar    1  UNL1        0.0190
      9 C          63.6045   90.6674   11.0848 C.ar    1  UNL1        0.0160
     10 C          63.2384   89.5032   11.7834 C.ar    1  UNL1        0.0480
     11 C          63.7027   89.3302   13.0992 C.ar    1  UNL1        0.0160
     12 C          64.5068   90.3005   13.7031 C.ar    1  UNL1        0.0190
     13 N          67.0983   93.5191   15.0006 N.ar    1  UNL1       -0.2024
     14 N          66.7561   94.3844   14.0579 N.ar    1  UNL1       -0.1442
     15 C          65.9076   93.7348   13.2317 C.ar    1  UNL1        0.2073
     16 N          65.6954   92.4616   13.6354 N.ar    1  UNL1       -0.2398
     17 C          66.4607   92.3606   14.7402 C.ar    1  UNL1        0.3522
     18 O          66.5929   91.3088   15.4222 O.2     1  UNL1       -0.2444
     19 C          68.0273   93.8290   16.0938 C.3     1  UNL1        0.1099
     20 C          69.0633   94.8614   15.6293 C.3     1  UNL1        0.0265
     21 C          69.9771   92.1869   15.8918 C.3     1  UNL1        0.0021
     22 C          68.6799   92.5343   16.6224 C.3     1  UNL1        0.0245
     23 C          59.9864   85.4186    9.3435 C.ar    1  UNL1        0.0485
     24 C          60.5071   84.4221    8.4956 C.ar    1  UNL1        0.0176
     25 C          59.6755   83.4381    7.9573 C.ar    1  UNL1        0.0382
     26 C          58.3117   83.4107    8.2580 C.ar    1  UNL1        0.1388
     27 C          57.7736   84.4264    9.0683 C.ar    1  UNL1        0.0382
     28 C          58.6032   85.4131    9.6089 C.ar    1  UNL1        0.0176
     29 O          57.5444   82.3678    7.7145 O.3     1  UNL1       -0.4727
     30 C          57.4156   81.0387    8.2267 C.3     1  UNL1        0.2374
     31 C          58.4040   80.7677    9.3743 C.3     1  UNL1        0.1909
     32 C          57.9485   79.7271   10.3548 C.3     1  UNL1        0.1783
     33 O          58.4630   80.1158   11.5894 O.3     1  UNL1       -0.3271
     34 C          58.9168   81.4489   11.4348 C.3     1  UNL1        0.2232
     35 O          58.6185   81.9141   10.1331 O.3     1  UNL1       -0.3258
     36 C          60.4298   81.5137   11.6771 C.ar    1  UNL1        0.0404
     37 C          61.2790   81.9941   10.6556 C.ar    1  UNL1        0.0021
     38 C          62.6622   82.0478   10.8360 C.ar    1  UNL1        0.0113
     39 C          63.2311   81.6063   12.0292 C.ar    1  UNL1        0.0585
     40 CL         64.9701   81.6732   12.2504 Cl      1  UNL1       -0.0822
     41 C          62.4170   81.0963   13.0407 C.ar    1  UNL1        0.0226
     42 C          61.0275   81.0343   12.8753 C.ar    1  UNL1        0.0591
     43 CL         60.1000   80.3154   14.1913 Cl      1  UNL1       -0.0824
     44 C          58.2022   82.3392   12.4735 C.3     1  UNL1        0.1338
     45 N          58.6693   83.7441   12.3811 N.3     1  UNL1       -0.2659
     46 C          59.7719   83.9884   13.3261 C.3     1  UNL1        0.0898
     47 C          57.5760   84.6941   12.6529 C.3     1  UNL1        0.0898
     48 C          62.7379   85.4783   11.2020 C.2     1  UNL1        0.3337
     49 O          63.3502   85.1479   12.2534 O.2     1  UNL1       -0.2484
     50 O          63.2622   85.1303    9.9612 O.3     1  UNL1       -0.4790
     51 H          64.1349   84.6209    9.8903 H       1  UNL1        0.2951
@<TRIPOS>BOND
     1    21    22    1
     2    22    19    1
     3    19    20    1
     4    19    13    1
     5    13    14   ar
     6    14    15   ar
     7    15    16   ar
     8    16     7    1
     9     7     8   ar
    10     8     9   ar
    11     9    10   ar
    12    10     1    1
    13     1     2    1
    14     2     3    1
    15     3     4    1
    16     4    23    1
    17    23    24   ar
    18    24    25   ar
    19    25    26   ar
    20    26    29    1
    21    29    30    1
    22    30    31    1
    23    31    32    1
    24    32    33    1
    25    33    34    1
    26    34    44    1
    27    44    45    1
    28    45    46    1
    29    45    47    1
    30    34    36    1
    31    36    37   ar
    32    37    38   ar
    33    38    39   ar
    34    39    40    1
    35    39    41   ar
    36    41    42   ar
    37    42    43    1
    38    34    35    1
    39    26    27   ar
    40    27    28   ar
    41     4     5    1
    42     5    48    1
    43    48    49    2
    44    48    50    1
    45     5     6    1
    46    10    11   ar
    47    11    12   ar
    48    16    17   ar
    49    17    18    2
    50    17    13   ar
    51    12     7   ar
    52     6     1    1
    53    28    23   ar
    54    35    31    1
    55    42    36   ar
    56    50    51    1
@<TRIPOS>MOLECULE
*****
 51 56 0 0 0
SMALL
GASTEIGER

@<TRIPOS>ATOM
      1 N          60.1419   89.6746    7.6110 N.pl3   1  UNL1       -0.3037
      2 C          59.6296   90.2644    8.8573 C.3     1  UNL1        0.1123
      3 C          60.3230   89.6784   10.0934 C.3     1  UNL1        0.1126
      4 N          60.3591   88.2047   10.0658 N.pl3   1  UNL1       -0.2968
      5 C          60.3363   87.4934    8.7714 C.3     1  UNL1        0.1924
      6 C          60.8668   88.3963    7.6470 C.3     1  UNL1        0.1221
      7 C          59.6615   91.7656    3.9161 C.ar    1  UNL1        0.0699
      8 C          60.9360   91.3601    4.3460 C.ar    1  UNL1        0.0190
      9 C          61.0931   90.6753    5.5540 C.ar    1  UNL1        0.0160
     10 C          59.9798   90.3823    6.3616 C.ar    1  UNL1        0.0480
     11 C          58.7065   90.7983    5.9345 C.ar    1  UNL1        0.0160
     12 C          58.5501   91.4835    4.7267 C.ar    1  UNL1        0.0190
     13 N          59.7785   93.8359    0.9362 N.ar    1  UNL1       -0.2024
     14 N          58.6594   93.1624    0.7159 N.ar    1  UNL1       -0.1442
     15 C          58.4945   92.3376    1.7728 C.ar    1  UNL1        0.2073
     16 N          59.4931   92.4765    2.6742 N.ar    1  UNL1       -0.2398
     17 C          60.2801   93.4167    2.1148 C.ar    1  UNL1        0.3522
     18 O          61.3644   93.8260    2.6106 O.2     1  UNL1       -0.2444
     19 C          60.3265   94.8329    0.0089 C.3     1  UNL1        0.1099
     20 C          59.6549   94.7015   -1.3646 C.3     1  UNL1        0.0265
     21 C          62.3186   93.7981   -1.2156 C.3     1  UNL1        0.0021
     22 C          61.8620   94.7012   -0.0697 C.3     1  UNL1        0.0245
     23 C          60.5700   87.4708   11.2999 C.ar    1  UNL1        0.0485
     24 C          61.8719   87.2217   11.7757 C.ar    1  UNL1        0.0176
     25 C          62.0735   86.5384   12.9765 C.ar    1  UNL1        0.0382
     26 C          60.9898   86.0985   13.7403 C.ar    1  UNL1        0.1388
     27 C          59.6867   86.3034   13.2527 C.ar    1  UNL1        0.0382
     28 C          59.4812   86.9871   12.0509 C.ar    1  UNL1        0.0176
     29 O          61.2674   85.4550   14.9571 O.3     1  UNL1       -0.4727
     30 C          62.1612   84.3580   15.1646 C.3     1  UNL1        0.2374
     31 C          61.9702   83.2547   14.1094 C.3     1  UNL1        0.1909
     32 C          63.1929   82.9574   13.2919 C.3     1  UNL1        0.1783
     33 O          62.7286   82.5954   12.0296 O.3     1  UNL1       -0.3271
     34 C          61.3594   82.9563   11.9856 C.3     1  UNL1        0.2232
     35 O          60.9914   83.6077   13.1856 O.3     1  UNL1       -0.3258
     36 C          60.4982   81.7027   11.7882 C.ar    1  UNL1        0.0404
     37 C          61.1023   80.5052   11.3449 C.ar    1  UNL1        0.0021
     38 C          60.3444   79.3516   11.1362 C.ar    1  UNL1        0.0113
     39 C          58.9667   79.3706   11.3454 C.ar    1  UNL1        0.0585
     40 CL         58.0179   77.9193   11.0793 Cl      1  UNL1       -0.0822
     41 C          58.3413   80.5499   11.7510 C.ar    1  UNL1        0.0226
     42 C          59.0869   81.7164   11.9636 C.ar    1  UNL1        0.0591
     43 CL         58.1884   83.1648   12.4149 Cl      1  UNL1       -0.0824
     44 C          61.1370   83.9123   10.7945 C.3     1  UNL1        0.1338
     45 N          61.7586   83.3762    9.5589 N.3     1  UNL1       -0.2659
     46 C          62.8189   84.2775    9.0773 C.3     1  UNL1        0.0898
     47 C          60.7597   83.1865    8.4922 C.3     1  UNL1        0.0898
     48 C          58.9499   87.0040    8.4388 C.2     1  UNL1        0.3337
     49 O          58.4128   86.0791    9.1063 O.2     1  UNL1       -0.2484
     50 O          58.2470   87.5984    7.3956 O.3     1  UNL1       -0.4790
     51 H          57.3107   87.2924    7.1593 H       1  UNL1        0.2951
@<TRIPOS>BOND
     1    21    22    1
     2    22    19    1
     3    19    20    1
     4    19    13    1
     5    13    14   ar
     6    14    15   ar
     7    15    16   ar
     8    16     7    1
     9     7     8   ar
    10     8     9   ar
    11     9    10   ar
    12    10     1    1
    13     1     2    1
    14     2     3    1
    15     3     4    1
    16     4    23    1
    17    23    24   ar
    18    24    25   ar
    19    25    26   ar
    20    26    29    1
    21    29    30    1
    22    30    31    1
    23    31    32    1
    24    32    33    1
    25    33    34    1
    26    34    44    1
    27    44    45    1
    28    45    46    1
    29    45    47    1
    30    34    36    1
    31    36    37   ar
    32    37    38   ar
    33    38    39   ar
    34    39    40    1
    35    39    41   ar
    36    41    42   ar
    37    42    43    1
    38    34    35    1
    39    26    27   ar
    40    27    28   ar
    41     4     5    1
    42     5    48    1
    43    48    49    2
    44    48    50    1
    45     5     6    1
    46    10    11   ar
    47    11    12   ar
    48    16    17   ar
    49    17    18    2
    50    17    13   ar
    51    12     7   ar
    52     6     1    1
    53    28    23   ar
    54    35    31    1
    55    42    36   ar
    56    50    51    1
@<TRIPOS>MOLECULE
*****
 51 56 0 0 0
SMALL
GASTEIGER

@<TRIPOS>ATOM
      1 N          59.6812   89.8330    7.0402 N.pl3   1  UNL1       -0.3037
      2 C          59.7369   88.3681    6.9204 C.3     1  UNL1        0.1123
      3 C          59.0872   87.6718    8.1226 C.3     1  UNL1        0.1126
      4 N          59.5670   88.2143    9.4069 N.pl3   1  UNL1       -0.2968
      5 C          60.0554   89.6065    9.4797 C.3     1  UNL1        0.1924
      6 C          59.4471   90.4543    8.3517 C.3     1  UNL1        0.1221
      7 C          60.0339   92.2640    3.5444 C.ar    1  UNL1        0.0699
      8 C          61.1584   91.6109    4.0757 C.ar    1  UNL1        0.0190
      9 C          61.0429   90.8149    5.2184 C.ar    1  UNL1        0.0160
     10 C          59.8009   90.6556    5.8582 C.ar    1  UNL1        0.0480
     11 C          58.6788   91.3187    5.3309 C.ar    1  UNL1        0.0160
     12 C          58.7950   92.1149    4.1885 C.ar    1  UNL1        0.0190
     13 N          60.3282   93.8034    0.2697 N.ar    1  UNL1       -0.2024
     14 N          60.2710   94.8818    1.0368 N.ar    1  UNL1       -0.1442
     15 C          60.1579   94.4413    2.3087 C.ar    1  UNL1        0.2073
     16 N          60.1469   93.0903    2.3694 N.ar    1  UNL1       -0.2398
     17 C          60.2487   92.7262    1.0758 C.ar    1  UNL1        0.3522
     18 O          60.2347   91.5336    0.6676 O.2     1  UNL1       -0.2444
     19 C          60.4386   93.8479   -1.1932 C.3     1  UNL1        0.1099
     20 C          59.2517   93.1165   -1.8345 C.3     1  UNL1        0.0265
     21 C          62.9824   94.1044   -1.1466 C.3     1  UNL1        0.0021
     22 C          61.7987   93.2742   -1.6432 C.3     1  UNL1        0.0245
     23 C          59.4139   87.4288   10.6175 C.ar    1  UNL1        0.0485
     24 C          58.8724   86.1298   10.5689 C.ar    1  UNL1        0.0176
     25 C          58.7497   85.3646   11.7304 C.ar    1  UNL1        0.0382
     26 C          59.1736   85.8637   12.9643 C.ar    1  UNL1        0.1388
     27 C          59.6752   87.1759   13.0308 C.ar    1  UNL1        0.0382
     28 C          59.7994   87.9447   11.8700 C.ar    1  UNL1        0.0176
     29 O          59.0580   85.0229   14.0830 O.3     1  UNL1       -0.4727
     30 C          59.9171   83.9340   14.4318 C.3     1  UNL1        0.2374
     31 C          60.9923   83.6852   13.3597 C.3     1  UNL1        0.1909
     32 C          62.0287   82.6695   13.7420 C.3     1  UNL1        0.1783
     33 O          63.2112   83.0843   13.1340 O.3     1  UNL1       -0.3271
     34 C          62.9915   84.4115   12.6898 C.3     1  UNL1        0.2232
     35 O          61.7058   84.8479   13.0851 O.3     1  UNL1       -0.3258
     36 C          63.1165   84.4752   11.1625 C.ar    1  UNL1        0.0404
     37 C          62.4001   85.4590   10.4454 C.ar    1  UNL1        0.0021
     38 C          62.4760   85.5323    9.0534 C.ar    1  UNL1        0.0113
     39 C          63.2508   84.6162    8.3444 C.ar    1  UNL1        0.0585
     40 CL         63.3411   84.7106    6.5950 Cl      1  UNL1       -0.0822
     41 C          63.9413   83.6144    9.0269 C.ar    1  UNL1        0.0226
     42 C          63.8748   83.5260   10.4231 C.ar    1  UNL1        0.0591
     43 CL         64.7358   82.1853   11.1783 Cl      1  UNL1       -0.0824
     44 C          64.0604   85.3286   13.3210 C.3     1  UNL1        0.1338
     45 N          63.4828   86.1409   14.4196 N.3     1  UNL1       -0.2659
     46 C          63.9412   87.5374   14.3298 C.3     1  UNL1        0.0898
     47 C          63.8430   85.5945   15.7400 C.3     1  UNL1        0.0898
     48 C          61.5606   89.6635    9.4231 C.2     1  UNL1        0.3337
     49 O          62.2430   88.6126    9.2840 O.2     1  UNL1       -0.2484
     50 O          62.2016   90.8957    9.5024 O.3     1  UNL1       -0.4790
     51 H          63.2116   90.9598    9.4578 H       1  UNL1        0.2951
@<TRIPOS>BOND
     1    21    22    1
     2    22    19    1
     3    19    20    1
     4    19    13    1
     5    13    14   ar
     6    14    15   ar
     7    15    16   ar
     8    16     7    1
     9     7     8   ar
    10     8     9   ar
    11     9    10   ar
    12    10     1    1
    13     1     2    1
    14     2     3    1
    15     3     4    1
    16     4    23    1
    17    23    24   ar
    18    24    25   ar
    19    25    26   ar
    20    26    29    1
    21    29    30    1
    22    30    31    1
    23    31    32    1
    24    32    33    1
    25    33    34    1
    26    34    44    1
    27    44    45    1
    28    45    46    1
    29    45    47    1
    30    34    36    1
    31    36    37   ar
    32    37    38   ar
    33    38    39   ar
    34    39    40    1
    35    39    41   ar
    36    41    42   ar
    37    42    43    1
    38    34    35    1
    39    26    27   ar
    40    27    28   ar
    41     4     5    1
    42     5    48    1
    43    48    49    2
    44    48    50    1
    45     5     6    1
    46    10    11   ar
    47    11    12   ar
    48    16    17   ar
    49    17    18    2
    50    17    13   ar
    51    12     7   ar
    52     6     1    1
    53    28    23   ar
    54    35    31    1
    55    42    36   ar
    56    50    51    1
@<TRIPOS>MOLECULE
*****
 51 56 0 0 0
SMALL
GASTEIGER

@<TRIPOS>ATOM
      1 N          59.7903   89.9415    7.1744 N.pl3   1  UNL1       -0.3037
      2 C          59.7865   88.4706    7.1749 C.3     1  UNL1        0.1123
      3 C          59.1698   87.9017    8.4588 C.3     1  UNL1        0.1126
      4 N          59.7299   88.5274    9.6706 N.pl3   1  UNL1       -0.2968
      5 C          60.2719   89.9000    9.6052 C.3     1  UNL1        0.1924
      6 C          59.6420   90.6768    8.4387 C.3     1  UNL1        0.1221
      7 C          60.0645   92.0626    3.4757 C.ar    1  UNL1        0.0699
      8 C          61.1979   91.4445    4.0294 C.ar    1  UNL1        0.0190
      9 C          61.1081   90.7498    5.2386 C.ar    1  UNL1        0.0160
     10 C          59.8834   90.6593    5.9238 C.ar    1  UNL1        0.0480
     11 C          58.7526   91.2877    5.3731 C.ar    1  UNL1        0.0160
     12 C          58.8432   91.9826    4.1642 C.ar    1  UNL1        0.0190
     13 N          60.3177   93.3146    0.0775 N.ar    1  UNL1       -0.2024
     14 N          60.2096   94.4538    0.7447 N.ar    1  UNL1       -0.1442
     15 C          60.1058   94.1243    2.0505 C.ar    1  UNL1        0.2073
     16 N          60.1512   92.7848    2.2319 N.ar    1  UNL1       -0.2398
     17 C          60.2776   92.3113    0.9764 C.ar    1  UNL1        0.3522
     18 O          60.3167   91.0876    0.6766 O.2     1  UNL1       -0.2444
     19 C          60.4367   93.2331   -1.3832 C.3     1  UNL1        0.1099
     20 C          61.5230   94.1971   -1.8788 C.3     1  UNL1        0.0265
     21 C          57.9405   92.6793   -1.4125 C.3     1  UNL1        0.0021
     22 C          59.0678   93.4951   -2.0455 C.3     1  UNL1        0.0245
     23 C          59.6062   87.8502   10.9482 C.ar    1  UNL1        0.0485
     24 C          59.9115   88.5185   12.1496 C.ar    1  UNL1        0.0176
     25 C          59.7671   87.8746   13.3801 C.ar    1  UNL1        0.0382
     26 C          59.3037   86.5587   13.4492 C.ar    1  UNL1        0.1388
     27 C          59.0377   85.8679   12.2534 C.ar    1  UNL1        0.0382
     28 C          59.1811   86.5094   11.0198 C.ar    1  UNL1        0.0176
     29 O          59.1437   85.9892   14.7227 O.3     1  UNL1       -0.4727
     30 C          60.1650   85.7668   15.6989 C.3     1  UNL1        0.2374
     31 C          61.4121   85.1075   15.0847 C.3     1  UNL1        0.1909
     32 C          62.5229   84.8484   16.0599 C.3     1  UNL1        0.1783
     33 O          63.7053   84.9964   15.3388 O.3     1  UNL1       -0.3271
     34 C          63.3544   85.6122   14.1121 C.3     1  UNL1        0.2232
     35 O          61.9730   85.9148   14.0999 O.3     1  UNL1       -0.3258
     36 C          63.6928   84.6757   12.9456 C.ar    1  UNL1        0.0404
     37 C          64.4655   83.5174   13.1838 C.ar    1  UNL1        0.0021
     38 C          64.8080   82.6543   12.1414 C.ar    1  UNL1        0.0113
     39 C          64.4055   82.9360   10.8372 C.ar    1  UNL1        0.0585
     40 CL         64.8405   81.8500    9.5300 Cl      1  UNL1       -0.0822
     41 C          63.6701   84.0912   10.5707 C.ar    1  UNL1        0.0226
     42 C          63.3193   84.9683   11.6049 C.ar    1  UNL1        0.0591
     43 CL         62.4428   86.4284   11.1480 Cl      1  UNL1       -0.0824
     44 C          64.1660   86.9163   13.9623 C.3     1  UNL1        0.1338
     45 N          63.3127   88.1049   14.2063 N.3     1  UNL1       -0.2659
     46 C          63.6034   89.1637   13.2251 C.3     1  UNL1        0.0898
     47 C          63.5058   88.6363   15.5671 C.3     1  UNL1        0.0898
     48 C          61.7738   89.8912    9.4770 C.2     1  UNL1        0.3337
     49 O          62.4198   88.8092    9.5128 O.2     1  UNL1       -0.2484
     50 O          62.4514   91.0924    9.2936 O.3     1  UNL1       -0.4790
     51 H          63.4595   91.1106    9.1962 H       1  UNL1        0.2951
@<TRIPOS>BOND
     1    21    22    1
     2    22    19    1
     3    19    20    1
     4    19    13    1
     5    13    14   ar
     6    14    15   ar
     7    15    16   ar
     8    16     7    1
     9     7     8   ar
    10     8     9   ar
    11     9    10   ar
    12    10     1    1
    13     1     2    1
    14     2     3    1
    15     3     4    1
    16     4    23    1
    17    23    24   ar
    18    24    25   ar
    19    25    26   ar
    20    26    29    1
    21    29    30    1
    22    30    31    1
    23    31    32    1
    24    32    33    1
    25    33    34    1
    26    34    44    1
    27    44    45    1
    28    45    46    1
    29    45    47    1
    30    34    36    1
    31    36    37   ar
    32    37    38   ar
    33    38    39   ar
    34    39    40    1
    35    39    41   ar
    36    41    42   ar
    37    42    43    1
    38    34    35    1
    39    26    27   ar
    40    27    28   ar
    41     4     5    1
    42     5    48    1
    43    48    49    2
    44    48    50    1
    45     5     6    1
    46    10    11   ar
    47    11    12   ar
    48    16    17   ar
    49    17    18    2
    50    17    13   ar
    51    12     7   ar
    52     6     1    1
    53    28    23   ar
    54    35    31    1
    55    42    36   ar
    56    50    51    1
