@<TRIPOS>MOLECULE
*****
 37 42 0 0 0
SMALL
GASTEIGER

@<TRIPOS>ATOM
      1 C         -22.9886   -9.6862  -10.0845 C.ar    1  UNL1        0.1379
      2 N         -23.3730  -10.2284   -8.8889 N.ar    1  UNL1       -0.2089
      3 C         -24.6577  -10.1243   -8.4254 C.ar    1  UNL1        0.2014
      4 N         -25.5988   -9.4434   -9.1419 N.ar    1  UNL1       -0.2050
      5 C         -25.2292   -8.9014  -10.3268 C.ar    1  UNL1        0.1654
      6 C         -23.9720   -9.0309  -10.8342 C.ar    1  UNL1        0.0865
      7 C         -24.0406   -8.4253  -12.0832 C.ar    1  UNL1        0.1095
      8 N         -25.2979   -7.9519  -12.2711 N.ar    1  UNL1       -0.1677
      9 N         -26.0096   -8.2273  -11.1850 N.ar    1  UNL1       -0.2319
     10 C         -27.4335   -7.9532  -11.0464 C.3     1  UNL1        0.1554
     11 C         -23.0384   -8.4693  -13.1535 C.ar    1  UNL1        0.0577
     12 C         -22.1151   -7.4887  -13.4589 C.ar    1  UNL1        0.1231
     13 N         -21.4199   -7.8570  -14.5534 N.ar    1  UNL1       -0.1676
     14 N         -21.8690   -9.0419  -14.9400 N.ar    1  UNL1       -0.2488
     15 C         -21.3860   -9.7301  -16.1320 C.3     1  UNL1        0.1537
     16 C         -22.8542   -9.4489  -14.1105 C.ar    1  UNL1        0.0809
     17 C         -23.6813  -10.6552  -14.2978 C.ar    1  UNL1        0.0174
     18 C         -23.8750  -11.5468  -13.2331 C.ar    1  UNL1        0.0012
     19 C         -24.6458  -12.6993  -13.4113 C.ar    1  UNL1       -0.0042
     20 C         -25.2431  -12.9660  -14.6527 C.ar    1  UNL1       -0.0218
     21 C         -26.0357  -14.2230  -14.8555 C.3     1  UNL1        0.0310
     22 C         -25.0357  -12.0806  -15.7216 C.ar    1  UNL1       -0.0042
     23 C         -24.2649  -10.9283  -15.5429 C.ar    1  UNL1        0.0012
     24 C         -20.8424  -10.9401  -10.5404 C.3     1  UNL1        0.1051
     25 C         -19.3649  -10.5381  -10.4860 C.3     1  UNL1        0.0400
     26 C         -19.3405   -9.0993   -9.9397 C.3     1  UNL1        0.0791
     27 C         -20.7447   -8.5437  -10.1912 C.3     1  UNL1        0.1081
     28 N         -21.5999   -9.6946  -10.4594 N.pl3   1  UNL1       -0.2908
     29 N         -18.9664   -8.9940   -8.5038 N.3     1  UNL1       -0.2723
     30 C         -20.0643   -8.6114   -7.5896 C.3     1  UNL1        0.0721
     31 C         -19.4903   -8.1470   -6.2392 C.3     1  UNL1        0.0174
     32 C         -18.1437   -8.8151   -5.9097 C.3     1  UNL1        0.0029
     33 C         -18.0673  -10.2254   -6.4992 C.3     1  UNL1        0.0174
     34 C         -18.2494  -10.2027   -8.0324 C.3     1  UNL1        0.0721
     35 C         -21.1948  -11.7112  -11.8231 C.3     1  UNL1        0.1619
     36 C         -20.5087  -13.4231  -13.2334 C.3     1  UNL1        0.1742
     37 O         -20.3928  -12.8723  -11.9399 O.3     1  UNL1       -0.3493
@<TRIPOS>BOND
     1    36    37    1
     2    37    35    1
     3    35    24    1
     4    24    25    1
     5    25    26    1
     6    26    29    1
     7    29    30    1
     8    30    31    1
     9    31    32    1
    10    32    33    1
    11    33    34    1
    12    26    27    1
    13    27    28    1
    14    28     1    1
    15     1     2   ar
    16     2     3   ar
    17     3     4   ar
    18     4     5   ar
    19     5     6   ar
    20     6     7   ar
    21     7    11    1
    22    11    12   ar
    23    12    13   ar
    24    13    14   ar
    25    14    15    1
    26    14    16   ar
    27    16    17    1
    28    17    18   ar
    29    18    19   ar
    30    19    20   ar
    31    20    21    1
    32    20    22   ar
    33    22    23   ar
    34     7     8   ar
    35     8     9   ar
    36     9    10    1
    37    28    24    1
    38     6     1   ar
    39    16    11   ar
    40    23    17   ar
    41    34    29    1
    42     9     5   ar
@<TRIPOS>MOLECULE
*****
 37 42 0 0 0
SMALL
GASTEIGER

@<TRIPOS>ATOM
      1 C         -21.0003  -11.1514  -11.8205 C.ar    1  UNL1        0.1379
      2 N         -21.1124  -12.4875  -12.0919 N.ar    1  UNL1       -0.2089
      3 C         -20.2451  -13.4089  -11.5675 C.ar    1  UNL1        0.2014
      4 N         -19.2128  -13.0110  -10.7683 N.ar    1  UNL1       -0.2050
      5 C         -19.0914  -11.6904  -10.4935 C.ar    1  UNL1        0.1654
      6 C         -19.9673  -10.7585  -10.9618 C.ar    1  UNL1        0.0865
      7 C         -19.5471   -9.5681  -10.3807 C.ar    1  UNL1        0.1095
      8 N         -18.4538   -9.8163   -9.6171 N.ar    1  UNL1       -0.1677
      9 N         -18.1701  -11.1097   -9.7101 N.ar    1  UNL1       -0.2319
     10 C         -17.1133  -11.7735   -8.9587 C.3     1  UNL1        0.1554
     11 C         -20.2565   -8.2842  -10.3618 C.ar    1  UNL1        0.0577
     12 C         -20.5319   -7.4786  -11.4492 C.ar    1  UNL1        0.1231
     13 N         -21.1282   -6.3466  -11.0250 N.ar    1  UNL1       -0.1676
     14 N         -21.2458   -6.4188   -9.7074 N.ar    1  UNL1       -0.2488
     15 C         -21.7966   -5.3408   -8.8935 C.3     1  UNL1        0.1537
     16 C         -20.7280   -7.5858   -9.2667 C.ar    1  UNL1        0.0809
     17 C         -20.5628   -7.9637   -7.8509 C.ar    1  UNL1        0.0174
     18 C         -19.3658   -7.6733   -7.1810 C.ar    1  UNL1        0.0012
     19 C         -19.1998   -8.0437   -5.8434 C.ar    1  UNL1       -0.0042
     20 C         -20.2347   -8.6966   -5.1565 C.ar    1  UNL1       -0.0218
     21 C         -20.0413   -9.1307   -3.7340 C.3     1  UNL1        0.0310
     22 C         -21.4263   -9.0003   -5.8327 C.ar    1  UNL1       -0.0042
     23 C         -21.5917   -8.6296   -7.1703 C.ar    1  UNL1        0.0012
     24 C         -23.2762  -10.1380  -12.2442 C.3     1  UNL1        0.1051
     25 C         -23.8893   -9.4096  -13.4447 C.3     1  UNL1        0.0400
     26 C         -22.8304   -9.4721  -14.5600 C.3     1  UNL1        0.0791
     27 C         -21.5023   -9.7396  -13.8469 C.3     1  UNL1        0.1081
     28 N         -21.8421  -10.2094  -12.5085 N.pl3   1  UNL1       -0.2908
     29 N         -23.0990  -10.4963  -15.6050 N.3     1  UNL1       -0.2723
     30 C         -21.9554  -11.3710  -15.9432 C.3     1  UNL1        0.0721
     31 C         -22.2174  -12.0914  -17.2779 C.3     1  UNL1        0.0174
     32 C         -23.7170  -12.3104  -17.5453 C.3     1  UNL1        0.0029
     33 C         -24.4902  -12.4979  -16.2379 C.3     1  UNL1        0.0174
     34 C         -24.3239  -11.2765  -15.3081 C.3     1  UNL1        0.0721
     35 C         -23.5513   -9.4154  -10.9152 C.3     1  UNL1        0.1619
     36 C         -24.5855  -10.1539   -8.9721 C.3     1  UNL1        0.1742
     37 O         -23.4806  -10.3250   -9.8323 O.3     1  UNL1       -0.3493
@<TRIPOS>BOND
     1    36    37    1
     2    37    35    1
     3    35    24    1
     4    24    25    1
     5    25    26    1
     6    26    29    1
     7    29    30    1
     8    30    31    1
     9    31    32    1
    10    32    33    1
    11    33    34    1
    12    26    27    1
    13    27    28    1
    14    28     1    1
    15     1     2   ar
    16     2     3   ar
    17     3     4   ar
    18     4     5   ar
    19     5     6   ar
    20     6     7   ar
    21     7    11    1
    22    11    12   ar
    23    12    13   ar
    24    13    14   ar
    25    14    15    1
    26    14    16   ar
    27    16    17    1
    28    17    18   ar
    29    18    19   ar
    30    19    20   ar
    31    20    21    1
    32    20    22   ar
    33    22    23   ar
    34     7     8   ar
    35     8     9   ar
    36     9    10    1
    37    28    24    1
    38     6     1   ar
    39    16    11   ar
    40    23    17   ar
    41    34    29    1
    42     9     5   ar
@<TRIPOS>MOLECULE
*****
 37 42 0 0 0
SMALL
GASTEIGER

@<TRIPOS>ATOM
      1 C         -24.1470   -9.2794  -13.3630 C.ar    1  UNL1        0.1379
      2 N         -25.0299   -8.6771  -14.2169 N.ar    1  UNL1       -0.2089
      3 C         -26.1909   -8.1023  -13.7722 C.ar    1  UNL1        0.2014
      4 N         -26.5176   -8.1379  -12.4475 N.ar    1  UNL1       -0.2050
      5 C         -25.6513   -8.7325  -11.5929 C.ar    1  UNL1        0.1654
      6 C         -24.4678   -9.2691  -12.0008 C.ar    1  UNL1        0.0865
      7 C         -23.8525   -9.6801  -10.8245 C.ar    1  UNL1        0.1095
      8 N         -24.6719   -9.3986   -9.7808 N.ar    1  UNL1       -0.1677
      9 N         -25.7764   -8.8410  -10.2616 N.ar    1  UNL1       -0.2319
     10 C         -26.8575   -8.3188   -9.4366 C.3     1  UNL1        0.1554
     11 C         -22.4652  -10.1241  -10.6501 C.ar    1  UNL1        0.0577
     12 C         -22.0392  -11.4093  -10.3781 C.ar    1  UNL1        0.1231
     13 N         -20.7018  -11.4089  -10.2099 N.ar    1  UNL1       -0.1676
     14 N         -20.2719  -10.1670  -10.3774 N.ar    1  UNL1       -0.2488
     15 C         -18.8766   -9.7748  -10.2127 C.3     1  UNL1        0.1537
     16 C         -21.3169   -9.3556  -10.6493 C.ar    1  UNL1        0.0809
     17 C         -21.2469   -7.8875  -10.7682 C.ar    1  UNL1        0.0174
     18 C         -21.0307   -7.2932  -12.0196 C.ar    1  UNL1        0.0012
     19 C         -20.9484   -5.9024  -12.1338 C.ar    1  UNL1       -0.0042
     20 C         -21.0953   -5.0895  -10.9995 C.ar    1  UNL1       -0.0218
     21 C         -20.9659   -3.5998  -11.1154 C.3     1  UNL1        0.0310
     22 C         -21.2963   -5.6864   -9.7454 C.ar    1  UNL1       -0.0042
     23 C         -21.3785   -7.0771   -9.6318 C.ar    1  UNL1        0.0012
     24 C         -22.5444   -9.7692  -15.2546 C.3     1  UNL1        0.1051
     25 C         -21.6898  -10.9899  -15.6113 C.3     1  UNL1        0.0400
     26 C         -22.0603  -12.0765  -14.5861 C.3     1  UNL1        0.0791
     27 C         -22.6783  -11.3271  -13.4027 C.3     1  UNL1        0.1081
     28 N         -23.0168   -9.9951  -13.8917 N.pl3   1  UNL1       -0.2908
     29 N         -22.9825  -13.1218  -15.1054 N.3     1  UNL1       -0.2723
     30 C         -22.4601  -14.5049  -15.0635 C.3     1  UNL1        0.0721
     31 C         -23.3034  -15.4164  -15.9728 C.3     1  UNL1        0.0174
     32 C         -24.7588  -14.9341  -16.1046 C.3     1  UNL1        0.0029
     33 C         -25.2262  -14.2315  -14.8278 C.3     1  UNL1        0.0174
     34 C         -24.3291  -13.0200  -14.4941 C.3     1  UNL1        0.0721
     35 C         -21.7561   -8.4524  -15.3480 C.3     1  UNL1        0.1619
     36 C         -23.0303   -7.4525  -17.0116 C.3     1  UNL1        0.1742
     37 O         -21.7594   -7.9658  -16.6778 O.3     1  UNL1       -0.3493
@<TRIPOS>BOND
     1    36    37    1
     2    37    35    1
     3    35    24    1
     4    24    25    1
     5    25    26    1
     6    26    29    1
     7    29    30    1
     8    30    31    1
     9    31    32    1
    10    32    33    1
    11    33    34    1
    12    26    27    1
    13    27    28    1
    14    28     1    1
    15     1     2   ar
    16     2     3   ar
    17     3     4   ar
    18     4     5   ar
    19     5     6   ar
    20     6     7   ar
    21     7    11    1
    22    11    12   ar
    23    12    13   ar
    24    13    14   ar
    25    14    15    1
    26    14    16   ar
    27    16    17    1
    28    17    18   ar
    29    18    19   ar
    30    19    20   ar
    31    20    21    1
    32    20    22   ar
    33    22    23   ar
    34     7     8   ar
    35     8     9   ar
    36     9    10    1
    37    28    24    1
    38     6     1   ar
    39    16    11   ar
    40    23    17   ar
    41    34    29    1
    42     9     5   ar
@<TRIPOS>MOLECULE
*****
 37 42 0 0 0
SMALL
GASTEIGER

@<TRIPOS>ATOM
      1 C         -22.4293   -9.0899  -14.6800 C.ar    1  UNL1        0.1379
      2 N         -21.2426   -9.1524  -15.3573 N.ar    1  UNL1       -0.2089
      3 C         -20.9814   -8.3516  -16.4375 C.ar    1  UNL1        0.2014
      4 N         -21.9225   -7.4737  -16.8917 N.ar    1  UNL1       -0.2050
      5 C         -23.1018   -7.4039  -16.2293 C.ar    1  UNL1        0.1654
      6 C         -23.3696   -8.1532  -15.1240 C.ar    1  UNL1        0.0865
      7 C         -24.6209   -7.7159  -14.7064 C.ar    1  UNL1        0.1095
      8 N         -25.0565   -6.7567  -15.5610 N.ar    1  UNL1       -0.1677
      9 N         -24.1328   -6.5892  -16.4994 N.ar    1  UNL1       -0.2319
     10 C         -24.2019   -5.5794  -17.5471 C.3     1  UNL1        0.1554
     11 C         -25.2979   -8.0222  -13.4416 C.ar    1  UNL1        0.0577
     12 C         -26.4727   -8.7313  -13.2861 C.ar    1  UNL1        0.1231
     13 N         -26.8201   -8.7375  -11.9838 N.ar    1  UNL1       -0.1676
     14 N         -25.8965   -8.0640  -11.3140 N.ar    1  UNL1       -0.2488
     15 C         -25.9725   -7.8141   -9.8788 C.3     1  UNL1        0.1537
     16 C         -24.9513   -7.6144  -12.1676 C.ar    1  UNL1        0.0809
     17 C         -23.8368   -6.7179  -11.8091 C.ar    1  UNL1        0.0174
     18 C         -24.0280   -5.3289  -11.7971 C.ar    1  UNL1        0.0012
     19 C         -22.9696   -4.4753  -11.4727 C.ar    1  UNL1       -0.0042
     20 C         -21.7115   -5.0020  -11.1430 C.ar    1  UNL1       -0.0218
     21 C         -20.5653   -4.0850  -10.8352 C.3     1  UNL1        0.0310
     22 C         -21.5175   -6.3917  -11.1703 C.ar    1  UNL1       -0.0042
     23 C         -22.5762   -7.2448  -11.4948 C.ar    1  UNL1        0.0012
     24 C         -21.6416  -10.7119  -12.9093 C.3     1  UNL1        0.1051
     25 C         -22.2737  -11.9550  -12.2748 C.3     1  UNL1        0.0400
     26 C         -23.5933  -12.1887  -13.0318 C.3     1  UNL1        0.0791
     27 C         -23.9364  -10.8439  -13.6781 C.3     1  UNL1        0.1081
     28 N         -22.7137  -10.0492  -13.6465 N.pl3   1  UNL1       -0.2908
     29 N         -23.5358  -13.2766  -14.0448 N.3     1  UNL1       -0.2723
     30 C         -24.6319  -13.2760  -15.0378 C.3     1  UNL1        0.0721
     31 C         -24.6960  -14.6361  -15.7553 C.3     1  UNL1        0.0174
     32 C         -23.3245  -15.3304  -15.8266 C.3     1  UNL1        0.0029
     33 C         -22.1899  -14.3065  -15.9077 C.3     1  UNL1        0.0174
     34 C         -22.2039  -13.3566  -14.6905 C.3     1  UNL1        0.0721
     35 C         -21.0311   -9.7642  -11.8638 C.3     1  UNL1        0.1619
     36 C         -19.5091   -9.5813  -10.1201 C.3     1  UNL1        0.1742
     37 O         -20.1446  -10.4689  -11.0136 O.3     1  UNL1       -0.3493
@<TRIPOS>BOND
     1    36    37    1
     2    37    35    1
     3    35    24    1
     4    24    25    1
     5    25    26    1
     6    26    29    1
     7    29    30    1
     8    30    31    1
     9    31    32    1
    10    32    33    1
    11    33    34    1
    12    26    27    1
    13    27    28    1
    14    28     1    1
    15     1     2   ar
    16     2     3   ar
    17     3     4   ar
    18     4     5   ar
    19     5     6   ar
    20     6     7   ar
    21     7    11    1
    22    11    12   ar
    23    12    13   ar
    24    13    14   ar
    25    14    15    1
    26    14    16   ar
    27    16    17    1
    28    17    18   ar
    29    18    19   ar
    30    19    20   ar
    31    20    21    1
    32    20    22   ar
    33    22    23   ar
    34     7     8   ar
    35     8     9   ar
    36     9    10    1
    37    28    24    1
    38     6     1   ar
    39    16    11   ar
    40    23    17   ar
    41    34    29    1
    42     9     5   ar
@<TRIPOS>MOLECULE
*****
 37 42 0 0 0
SMALL
GASTEIGER

@<TRIPOS>ATOM
      1 C         -23.9098   -8.7562  -13.9001 C.ar    1  UNL1        0.1379
      2 N         -24.5820   -9.6184  -14.7222 N.ar    1  UNL1       -0.2089
      3 C         -24.0026  -10.1514  -15.8431 C.ar    1  UNL1        0.2014
      4 N         -22.7275   -9.8115  -16.1912 N.ar    1  UNL1       -0.2050
      5 C         -22.0525   -8.9578  -15.3850 C.ar    1  UNL1        0.1654
      6 C         -22.5868   -8.4509  -14.2395 C.ar    1  UNL1        0.0865
      7 C         -21.5533   -7.7134  -13.6744 C.ar    1  UNL1        0.1095
      8 N         -20.4687   -7.7876  -14.4857 N.ar    1  UNL1       -0.1677
      9 N         -20.7900   -8.5305  -15.5378 N.ar    1  UNL1       -0.2319
     10 C         -19.8558   -8.9117  -16.5886 C.3     1  UNL1        0.1554
     11 C         -21.5015   -7.1348  -12.3273 C.ar    1  UNL1        0.0577
     12 C         -21.7680   -5.8244  -11.9823 C.ar    1  UNL1        0.1231
     13 N         -21.5389   -5.6555  -10.6648 N.ar    1  UNL1       -0.1676
     14 N         -21.1470   -6.8195  -10.1682 N.ar    1  UNL1       -0.2488
     15 C         -20.7539   -7.0032   -8.7755 C.3     1  UNL1        0.1537
     16 C         -21.1139   -7.7462  -11.1503 C.ar    1  UNL1        0.0809
     17 C         -20.6039   -9.1222  -11.0061 C.ar    1  UNL1        0.0174
     18 C         -19.4177   -9.3616  -10.2978 C.ar    1  UNL1        0.0012
     19 C         -18.9231  -10.6630  -10.1722 C.ar    1  UNL1       -0.0042
     20 C         -19.6167  -11.7415  -10.7420 C.ar    1  UNL1       -0.0218
     21 C         -19.0645  -13.1324  -10.6425 C.3     1  UNL1        0.0310
     22 C         -20.7955  -11.4987  -11.4637 C.ar    1  UNL1       -0.0042
     23 C         -21.2897  -10.1971  -11.5889 C.ar    1  UNL1        0.0012
     24 C         -25.5512   -8.8412  -11.9805 C.3     1  UNL1        0.1051
     25 C         -26.4157   -7.7773  -11.2962 C.3     1  UNL1        0.0400
     26 C         -26.2104   -6.4844  -12.1057 C.3     1  UNL1        0.0791
     27 C         -24.8939   -6.6813  -12.8619 C.3     1  UNL1        0.1081
     28 N         -24.6055   -8.1105  -12.8193 N.pl3   1  UNL1       -0.2908
     29 N         -27.3248   -6.1588  -13.0358 N.3     1  UNL1       -0.2723
     30 C         -26.9283   -5.4690  -14.2825 C.3     1  UNL1        0.0721
     31 C         -28.1614   -4.8365  -14.9520 C.3     1  UNL1        0.0174
     32 C         -29.4597   -5.6010  -14.6387 C.3     1  UNL1        0.0029
     33 C         -29.1890   -7.0951  -14.4468 C.3     1  UNL1        0.0174
     34 C         -28.1796   -7.3398  -13.3043 C.3     1  UNL1        0.0721
     35 C         -24.8099   -9.7340  -10.9719 C.3     1  UNL1        0.1619
     36 C         -23.8194   -9.6655   -8.8732 C.3     1  UNL1        0.1742
     37 O         -24.0721   -8.9430  -10.0582 O.3     1  UNL1       -0.3493
@<TRIPOS>BOND
     1    36    37    1
     2    37    35    1
     3    35    24    1
     4    24    25    1
     5    25    26    1
     6    26    29    1
     7    29    30    1
     8    30    31    1
     9    31    32    1
    10    32    33    1
    11    33    34    1
    12    26    27    1
    13    27    28    1
    14    28     1    1
    15     1     2   ar
    16     2     3   ar
    17     3     4   ar
    18     4     5   ar
    19     5     6   ar
    20     6     7   ar
    21     7    11    1
    22    11    12   ar
    23    12    13   ar
    24    13    14   ar
    25    14    15    1
    26    14    16   ar
    27    16    17    1
    28    17    18   ar
    29    18    19   ar
    30    19    20   ar
    31    20    21    1
    32    20    22   ar
    33    22    23   ar
    34     7     8   ar
    35     8     9   ar
    36     9    10    1
    37    28    24    1
    38     6     1   ar
    39    16    11   ar
    40    23    17   ar
    41    34    29    1
    42     9     5   ar
@<TRIPOS>MOLECULE
*****
 37 42 0 0 0
SMALL
GASTEIGER

@<TRIPOS>ATOM
      1 C         -22.5840   -8.6563  -12.2718 C.ar    1  UNL1        0.1379
      2 N         -21.2610   -9.0034  -12.2922 N.ar    1  UNL1       -0.2089
      3 C         -20.2675   -8.0862  -12.0733 C.ar    1  UNL1        0.2014
      4 N         -20.5732   -6.7747  -11.8512 N.ar    1  UNL1       -0.2050
      5 C         -21.8799   -6.4193  -11.8297 C.ar    1  UNL1        0.1654
      6 C         -22.8892   -7.3185  -11.9962 C.ar    1  UNL1        0.0865
      7 C         -24.0479   -6.5739  -11.8114 C.ar    1  UNL1        0.1095
      8 N         -23.7046   -5.2853  -11.5629 N.ar    1  UNL1       -0.1677
      9 N         -22.3806   -5.1964  -11.5983 N.ar    1  UNL1       -0.2319
     10 C         -21.6315   -3.9855  -11.2908 C.3     1  UNL1        0.1554
     11 C         -25.4177   -7.0762  -11.6591 C.ar    1  UNL1        0.0577
     12 C         -25.8789   -7.9270  -10.6738 C.ar    1  UNL1        0.1231
     13 N         -27.1719   -8.2242  -10.9115 N.ar    1  UNL1       -0.1676
     14 N         -27.5416   -7.5798  -12.0084 N.ar    1  UNL1       -0.2488
     15 C         -28.8672   -7.7093  -12.6035 C.3     1  UNL1        0.1537
     16 C         -26.5006   -6.8678  -12.4917 C.ar    1  UNL1        0.0809
     17 C         -26.4934   -6.1284  -13.7675 C.ar    1  UNL1        0.0174
     18 C         -27.4640   -5.1477  -14.0169 C.ar    1  UNL1        0.0012
     19 C         -27.4696   -4.4555  -15.2314 C.ar    1  UNL1       -0.0042
     20 C         -26.4960   -4.7268  -16.2048 C.ar    1  UNL1       -0.0218
     21 C         -26.5269   -4.0137  -17.5238 C.3     1  UNL1        0.0310
     22 C         -25.5346   -5.7194  -15.9600 C.ar    1  UNL1       -0.0042
     23 C         -25.5295   -6.4112  -14.7454 C.ar    1  UNL1        0.0012
     24 C         -23.6634  -10.9250  -11.9997 C.3     1  UNL1        0.1051
     25 C         -24.4751  -11.8168  -12.9450 C.3     1  UNL1        0.0400
     26 C         -24.4613  -11.1051  -14.3097 C.3     1  UNL1        0.0791
     27 C         -24.1262   -9.6429  -14.0038 C.3     1  UNL1        0.1081
     28 N         -23.5817   -9.6207  -12.6508 N.pl3   1  UNL1       -0.2908
     29 N         -23.5082  -11.6839  -15.2943 N.3     1  UNL1       -0.2723
     30 C         -23.5019  -13.1606  -15.3772 C.3     1  UNL1        0.0721
     31 C         -22.2331  -13.6441  -16.1019 C.3     1  UNL1        0.0174
     32 C         -21.7050  -12.6146  -17.1165 C.3     1  UNL1        0.0029
     33 C         -22.8491  -11.7982  -17.7223 C.3     1  UNL1        0.0174
     34 C         -23.6475  -11.0551  -16.6294 C.3     1  UNL1        0.0721
     35 C         -24.3084  -10.8019  -10.6094 C.3     1  UNL1        0.1619
     36 C         -23.6208   -9.5909   -8.7516 C.3     1  UNL1        0.1742
     37 O         -23.3131  -10.6662   -9.6114 O.3     1  UNL1       -0.3493
@<TRIPOS>BOND
     1    36    37    1
     2    37    35    1
     3    35    24    1
     4    24    25    1
     5    25    26    1
     6    26    29    1
     7    29    30    1
     8    30    31    1
     9    31    32    1
    10    32    33    1
    11    33    34    1
    12    26    27    1
    13    27    28    1
    14    28     1    1
    15     1     2   ar
    16     2     3   ar
    17     3     4   ar
    18     4     5   ar
    19     5     6   ar
    20     6     7   ar
    21     7    11    1
    22    11    12   ar
    23    12    13   ar
    24    13    14   ar
    25    14    15    1
    26    14    16   ar
    27    16    17    1
    28    17    18   ar
    29    18    19   ar
    30    19    20   ar
    31    20    21    1
    32    20    22   ar
    33    22    23   ar
    34     7     8   ar
    35     8     9   ar
    36     9    10    1
    37    28    24    1
    38     6     1   ar
    39    16    11   ar
    40    23    17   ar
    41    34    29    1
    42     9     5   ar
@<TRIPOS>MOLECULE
*****
 37 42 0 0 0
SMALL
GASTEIGER

@<TRIPOS>ATOM
      1 C         -22.4499   -8.9601  -14.7841 C.ar    1  UNL1        0.1379
      2 N         -21.3732   -9.1671  -15.6020 N.ar    1  UNL1       -0.2089
      3 C         -21.1957   -8.4577  -16.7602 C.ar    1  UNL1        0.2014
      4 N         -22.1159   -7.5284  -17.1504 N.ar    1  UNL1       -0.2050
      5 C         -23.1867   -7.3157  -16.3488 C.ar    1  UNL1        0.1654
      6 C         -23.3633   -7.9718  -15.1685 C.ar    1  UNL1        0.0865
      7 C         -24.5085   -7.4017  -14.6255 C.ar    1  UNL1        0.1095
      8 N         -24.9765   -6.4599  -15.4823 N.ar    1  UNL1       -0.1677
      9 N         -24.1762   -6.4304  -16.5409 N.ar    1  UNL1       -0.2319
     10 C         -24.3039   -5.4821  -17.6393 C.3     1  UNL1        0.1554
     11 C         -25.0325   -7.5717  -13.2659 C.ar    1  UNL1        0.0577
     12 C         -24.4068   -8.2144  -12.2159 C.ar    1  UNL1        0.1231
     13 N         -25.2324   -8.2343  -11.1505 N.ar    1  UNL1       -0.1676
     14 N         -26.3527   -7.6159  -11.4934 N.ar    1  UNL1       -0.2488
     15 C         -27.5033   -7.4948  -10.6050 C.3     1  UNL1        0.1537
     16 C         -26.2680   -7.1961  -12.7744 C.ar    1  UNL1        0.0809
     17 C         -27.3666   -6.5841  -13.5445 C.ar    1  UNL1        0.0174
     18 C         -27.3209   -5.2217  -13.8728 C.ar    1  UNL1        0.0012
     19 C         -28.3678   -4.6346  -14.5894 C.ar    1  UNL1       -0.0042
     20 C         -29.4658   -5.4069  -14.9980 C.ar    1  UNL1       -0.0218
     21 C         -30.6080   -4.7684  -15.7308 C.3     1  UNL1        0.0310
     22 C         -29.5174   -6.7669  -14.6554 C.ar    1  UNL1       -0.0042
     23 C         -28.4703   -7.3533  -13.9388 C.ar    1  UNL1        0.0012
     24 C         -21.5560  -10.3286  -12.8568 C.3     1  UNL1        0.1051
     25 C         -22.0974  -11.5449  -12.0985 C.3     1  UNL1        0.0400
     26 C         -23.3897  -11.9539  -12.8277 C.3     1  UNL1        0.0791
     27 C         -23.8282  -10.7120  -13.6082 C.3     1  UNL1        0.1081
     28 N         -22.6691   -9.8277  -13.6579 N.pl3   1  UNL1       -0.2908
     29 N         -23.2423  -13.1319  -13.7241 N.3     1  UNL1       -0.2723
     30 C         -24.3949  -13.4011  -14.6110 C.3     1  UNL1        0.0721
     31 C         -24.3050  -14.8300  -15.1758 C.3     1  UNL1        0.0174
     32 C         -22.8534  -15.3263  -15.2961 C.3     1  UNL1        0.0029
     33 C         -21.8949  -14.1680  -15.5825 C.3     1  UNL1        0.0174
     34 C         -21.9638  -13.0961  -14.4734 C.3     1  UNL1        0.0721
     35 C         -21.0269   -9.2357  -11.9136 C.3     1  UNL1        0.1619
     36 C         -21.0105   -6.9179  -12.0475 C.3     1  UNL1        0.1742
     37 O         -20.5783   -8.1156  -12.6548 O.3     1  UNL1       -0.3493
@<TRIPOS>BOND
     1    36    37    1
     2    37    35    1
     3    35    24    1
     4    24    25    1
     5    25    26    1
     6    26    29    1
     7    29    30    1
     8    30    31    1
     9    31    32    1
    10    32    33    1
    11    33    34    1
    12    26    27    1
    13    27    28    1
    14    28     1    1
    15     1     2   ar
    16     2     3   ar
    17     3     4   ar
    18     4     5   ar
    19     5     6   ar
    20     6     7   ar
    21     7    11    1
    22    11    12   ar
    23    12    13   ar
    24    13    14   ar
    25    14    15    1
    26    14    16   ar
    27    16    17    1
    28    17    18   ar
    29    18    19   ar
    30    19    20   ar
    31    20    21    1
    32    20    22   ar
    33    22    23   ar
    34     7     8   ar
    35     8     9   ar
    36     9    10    1
    37    28    24    1
    38     6     1   ar
    39    16    11   ar
    40    23    17   ar
    41    34    29    1
    42     9     5   ar
@<TRIPOS>MOLECULE
*****
 37 42 0 0 0
SMALL
GASTEIGER

@<TRIPOS>ATOM
      1 C         -22.3019   -8.2608  -12.3752 C.ar    1  UNL1        0.1379
      2 N         -21.2478   -7.9147  -13.1753 N.ar    1  UNL1       -0.2089
      3 C         -21.1019   -8.4190  -14.4404 C.ar    1  UNL1        0.2014
      4 N         -22.0037   -9.3153  -14.9364 N.ar    1  UNL1       -0.2050
      5 C         -23.0510   -9.6662  -14.1525 C.ar    1  UNL1        0.1654
      6 C         -23.2468   -9.1438  -12.9101 C.ar    1  UNL1        0.0865
      7 C         -24.4592   -9.6830  -12.4969 C.ar    1  UNL1        0.1095
      8 N         -24.9291  -10.5006  -13.4720 N.ar    1  UNL1       -0.1677
      9 N         -24.0523  -10.5013  -14.4685 N.ar    1  UNL1       -0.2319
     10 C         -24.2503  -11.1941  -15.7346 C.3     1  UNL1        0.1554
     11 C         -25.2600   -9.2918  -11.3317 C.ar    1  UNL1        0.0577
     12 C         -25.3561   -9.9700  -10.1325 C.ar    1  UNL1        0.1231
     13 N         -26.2471   -9.3446   -9.3375 N.ar    1  UNL1       -0.1676
     14 N         -26.7066   -8.2896   -9.9939 N.ar    1  UNL1       -0.2488
     15 C         -27.7365   -7.4036   -9.4628 C.3     1  UNL1        0.1537
     16 C         -26.1270   -8.2226  -11.2121 C.ar    1  UNL1        0.0809
     17 C         -26.4822   -7.2616  -12.2726 C.ar    1  UNL1        0.0174
     18 C         -27.5506   -7.5341  -13.1389 C.ar    1  UNL1        0.0012
     19 C         -27.8805   -6.6328  -14.1552 C.ar    1  UNL1       -0.0042
     20 C         -27.1542   -5.4419  -14.3078 C.ar    1  UNL1       -0.0218
     21 C         -27.4817   -4.4947  -15.4236 C.3     1  UNL1        0.0310
     22 C         -26.0755   -5.1778  -13.4498 C.ar    1  UNL1       -0.0042
     23 C         -25.7461   -6.0795  -12.4337 C.ar    1  UNL1        0.0012
     24 C         -21.6451   -6.6056  -10.5820 C.3     1  UNL1        0.1051
     25 C         -21.4935   -6.7169   -9.0614 C.3     1  UNL1        0.0400
     26 C         -21.7218   -8.2010   -8.7236 C.3     1  UNL1        0.0791
     27 C         -22.4908   -8.7771   -9.9156 C.3     1  UNL1        0.1081
     28 N         -22.3344   -7.8209  -11.0060 N.pl3   1  UNL1       -0.2908
     29 N         -20.4756   -8.9698   -8.4613 N.3     1  UNL1       -0.2723
     30 C         -19.5240   -9.0382   -9.5915 C.3     1  UNL1        0.0721
     31 C         -18.5001  -10.1624   -9.3532 C.3     1  UNL1        0.0174
     32 C         -18.2484  -10.4235   -7.8576 C.3     1  UNL1        0.0029
     33 C         -18.4047   -9.1403   -7.0383 C.3     1  UNL1        0.0174
     34 C         -19.8154   -8.5356   -7.2072 C.3     1  UNL1        0.0721
     35 C         -22.4336   -5.3550  -11.0042 C.3     1  UNL1        0.1619
     36 C         -20.5049   -4.0637  -11.0600 C.3     1  UNL1        0.1742
     37 O         -21.6256   -4.5031  -11.7956 O.3     1  UNL1       -0.3493
@<TRIPOS>BOND
     1    36    37    1
     2    37    35    1
     3    35    24    1
     4    24    25    1
     5    25    26    1
     6    26    29    1
     7    29    30    1
     8    30    31    1
     9    31    32    1
    10    32    33    1
    11    33    34    1
    12    26    27    1
    13    27    28    1
    14    28     1    1
    15     1     2   ar
    16     2     3   ar
    17     3     4   ar
    18     4     5   ar
    19     5     6   ar
    20     6     7   ar
    21     7    11    1
    22    11    12   ar
    23    12    13   ar
    24    13    14   ar
    25    14    15    1
    26    14    16   ar
    27    16    17    1
    28    17    18   ar
    29    18    19   ar
    30    19    20   ar
    31    20    21    1
    32    20    22   ar
    33    22    23   ar
    34     7     8   ar
    35     8     9   ar
    36     9    10    1
    37    28    24    1
    38     6     1   ar
    39    16    11   ar
    40    23    17   ar
    41    34    29    1
    42     9     5   ar
@<TRIPOS>MOLECULE
*****
 37 42 0 0 0
SMALL
GASTEIGER

@<TRIPOS>ATOM
      1 C         -22.1968   -7.3547  -11.1833 C.ar    1  UNL1        0.1379
      2 N         -22.2369   -5.9977  -11.0152 N.ar    1  UNL1       -0.2089
      3 C         -21.7415   -5.3916   -9.8912 C.ar    1  UNL1        0.2014
      4 N         -21.2095   -6.1380   -8.8799 N.ar    1  UNL1       -0.2050
      5 C         -21.1654   -7.4827   -9.0351 C.ar    1  UNL1        0.1654
      6 C         -21.6064   -8.1076  -10.1620 C.ar    1  UNL1        0.0865
      7 C         -21.2980   -9.4470   -9.9562 C.ar    1  UNL1        0.1095
      8 N         -20.7130   -9.5791   -8.7395 N.ar    1  UNL1       -0.1677
      9 N         -20.6568   -8.3787   -8.1757 N.ar    1  UNL1       -0.2319
     10 C         -20.0139   -8.1019   -6.8982 C.3     1  UNL1        0.1554
     11 C         -21.3486  -10.5363  -10.9375 C.ar    1  UNL1        0.0577
     12 C         -22.3955  -10.8307  -11.7888 C.ar    1  UNL1        0.1231
     13 N         -22.1032  -11.9477  -12.4843 N.ar    1  UNL1       -0.1676
     14 N         -20.9023  -12.3592  -12.1055 N.ar    1  UNL1       -0.2488
     15 C         -20.2796  -13.5789  -12.6081 C.3     1  UNL1        0.1537
     16 C         -20.4094  -11.5237  -11.1657 C.ar    1  UNL1        0.0809
     17 C         -19.1569  -11.7298  -10.4152 C.ar    1  UNL1        0.0174
     18 C         -18.5892  -13.0092  -10.3330 C.ar    1  UNL1        0.0012
     19 C         -17.4102  -13.2112   -9.6095 C.ar    1  UNL1       -0.0042
     20 C         -16.7782  -12.1330   -8.9715 C.ar    1  UNL1       -0.0218
     21 C         -15.5362  -12.3570   -8.1611 C.3     1  UNL1        0.0310
     22 C         -17.3559  -10.8559   -9.0417 C.ar    1  UNL1       -0.0042
     23 C         -18.5348  -10.6545   -9.7653 C.ar    1  UNL1        0.0012
     24 C         -22.4990   -7.6002  -13.6803 C.3     1  UNL1        0.1051
     25 C         -23.6801   -8.0385  -14.5524 C.3     1  UNL1        0.0400
     26 C         -24.8628   -8.2397  -13.5881 C.3     1  UNL1        0.0791
     27 C         -24.2339   -8.4305  -12.2054 C.3     1  UNL1        0.1081
     28 N         -22.8589   -7.9550  -12.3105 N.pl3   1  UNL1       -0.2908
     29 N         -25.8487   -7.1258  -13.5848 N.3     1  UNL1       -0.2723
     30 C         -27.2664   -7.5344  -13.6874 C.3     1  UNL1        0.0721
     31 C         -28.1378   -6.3270  -14.0771 C.3     1  UNL1        0.0174
     32 C         -27.5471   -4.9920  -13.5903 C.3     1  UNL1        0.0029
     33 C         -26.7690   -5.1747  -12.2852 C.3     1  UNL1        0.0174
     34 C         -25.6216   -6.1939  -12.4546 C.3     1  UNL1        0.0721
     35 C         -21.1815   -8.2775  -14.0916 C.3     1  UNL1        0.1619
     36 C         -20.5369   -8.3261  -16.3216 C.3     1  UNL1        0.1742
     37 O         -21.3321   -8.9424  -15.3327 O.3     1  UNL1       -0.3493
@<TRIPOS>BOND
     1    36    37    1
     2    37    35    1
     3    35    24    1
     4    24    25    1
     5    25    26    1
     6    26    29    1
     7    29    30    1
     8    30    31    1
     9    31    32    1
    10    32    33    1
    11    33    34    1
    12    26    27    1
    13    27    28    1
    14    28     1    1
    15     1     2   ar
    16     2     3   ar
    17     3     4   ar
    18     4     5   ar
    19     5     6   ar
    20     6     7   ar
    21     7    11    1
    22    11    12   ar
    23    12    13   ar
    24    13    14   ar
    25    14    15    1
    26    14    16   ar
    27    16    17    1
    28    17    18   ar
    29    18    19   ar
    30    19    20   ar
    31    20    21    1
    32    20    22   ar
    33    22    23   ar
    34     7     8   ar
    35     8     9   ar
    36     9    10    1
    37    28    24    1
    38     6     1   ar
    39    16    11   ar
    40    23    17   ar
    41    34    29    1
    42     9     5   ar
