@<TRIPOS>MOLECULE
*****
 41 45 0 0 0
SMALL
GASTEIGER

@<TRIPOS>ATOM
      1 C          -8.4368   -9.6314   32.7720 C.3     1  UNL1        0.1333
      2 N          -8.6759  -10.7606   31.8719 N.ar    1  UNL1       -0.2950
      3 C          -9.6939  -11.6678   31.8982 C.ar    1  UNL1        0.2019
      4 N          -9.5794  -12.6420   30.9604 N.ar    1  UNL1       -0.2134
      5 C          -8.4556  -12.3002   30.3066 C.ar    1  UNL1        0.1033
      6 C          -7.8877  -12.9539   29.2159 C.ar    1  UNL1        0.0284
      7 C          -6.7000  -12.4270   28.6604 C.ar    1  UNL1        0.0922
      8 C          -6.1476  -11.2315   29.1980 C.ar    1  UNL1        0.1782
      9 C          -6.7680  -10.5826   30.2871 C.ar    1  UNL1        0.1897
     10 C          -7.9124  -11.1663   30.8390 C.ar    1  UNL1        0.1173
     11 O          -6.2401   -9.3761   30.7570 O.3     1  UNL1       -0.4669
     12 C          -5.2694   -8.6498   30.0009 C.3     1  UNL1        0.2527
     13 C          -4.2865   -9.6178   29.3330 C.3     1  UNL1        0.2526
     14 O          -5.0002  -10.6482   28.6465 O.3     1  UNL1       -0.4682
     15 C          -6.0706  -13.1214   27.5179 C.2     1  UNL1        0.2526
     16 O          -5.0054  -12.6531   27.0321 O.2     1  UNL1       -0.2697
     17 N          -6.6628  -14.3098   26.9627 N.am    1  UNL1       -0.2803
     18 H          -7.5225  -14.6978   27.4112 H       1  UNL1        0.1552
     19 C          -6.0999  -15.0539   25.8694 C.ar    1  UNL1        0.0506
     20 C          -4.9855  -15.8896   26.0495 C.ar    1  UNL1        0.0170
     21 C          -4.4408  -16.5793   24.9651 C.ar    1  UNL1        0.0309
     22 C          -4.9908  -16.4347   23.6891 C.ar    1  UNL1        0.1441
     23 F          -4.4384  -17.1127   22.6509 F       1  UNL1       -0.2042
     24 C          -6.0944  -15.5864   23.4836 C.ar    1  UNL1        0.1000
     25 C          -6.6340  -14.8901   24.5822 C.ar    1  UNL1        0.0208
     26 C          -6.6663  -15.4256   22.0953 C.3     1  UNL1        0.4207
     27 F          -6.9360  -16.6486   21.5054 F       1  UNL1       -0.1658
     28 F          -7.8423  -14.7011   22.1636 F       1  UNL1       -0.1658
     29 F          -5.7628  -14.7457   21.2984 F       1  UNL1       -0.1658
     30 N         -10.8103  -11.6200   32.7993 N.pl3   1  UNL1       -0.2814
     31 H         -11.2039  -10.6808   33.0327 H       1  UNL1        0.1551
     32 C         -11.3958  -12.7711   33.4284 C.ar    1  UNL1        0.0894
     33 C         -10.7289  -13.3569   34.5157 C.ar    1  UNL1        0.1543
     34 F          -9.5594  -12.8333   34.9622 F       1  UNL1       -0.2028
     35 C         -11.2755  -14.4633   35.1672 C.ar    1  UNL1        0.0315
     36 C         -12.4842  -15.0057   34.7326 C.ar    1  UNL1        0.0091
     37 C         -13.1486  -14.4571   33.6311 C.ar    1  UNL1        0.0334
     38 S         -14.6891  -15.2084   33.0962 S.3     1  UNL1       -0.1405
     39 C         -12.6035  -13.3432   32.9619 C.ar    1  UNL1        0.0787
     40 CL        -13.3973  -12.7225   31.5115 Cl      1  UNL1       -0.0804
     41 H         -15.4498  -14.3645   33.9270 H       1  UNL1        0.1072
@<TRIPOS>BOND
     1     1     2    1
     2     2     3   ar
     3     3    30    1
     4    30    32    1
     5    32    33   ar
     6    33    34    1
     7    33    35   ar
     8    35    36   ar
     9    36    37   ar
    10    37    38    1
    11    37    39   ar
    12    39    40    1
    13     3     4   ar
    14     4     5   ar
    15     5     6   ar
    16     6     7   ar
    17     7    15    1
    18    15    16    2
    19    15    17   am
    20    17    19    1
    21    19    20   ar
    22    20    21   ar
    23    21    22   ar
    24    22    23    1
    25    22    24   ar
    26    24    26    1
    27    26    27    1
    28    26    28    1
    29    26    29    1
    30    24    25   ar
    31     7     8   ar
    32     8     9   ar
    33     9    10   ar
    34     9    11    1
    35    11    12    1
    36    12    13    1
    37    13    14    1
    38    10     2   ar
    39    39    32   ar
    40    10     5   ar
    41    25    19   ar
    42    14     8    1
    43    30    31    1
    44    38    41    1
    45    17    18    1
@<TRIPOS>MOLECULE
*****
 41 45 0 0 0
SMALL
GASTEIGER

@<TRIPOS>ATOM
      1 C          -7.1857  -18.1873   21.7751 C.3     1  UNL1        0.1333
      2 N          -6.6483  -17.0256   22.4850 N.ar    1  UNL1       -0.2950
      3 C          -5.6498  -16.1807   22.0991 C.ar    1  UNL1        0.2019
      4 N          -5.3405  -15.2423   23.0294 N.ar    1  UNL1       -0.2134
      5 C          -6.2108  -15.5024   24.0205 C.ar    1  UNL1        0.1033
      6 C          -6.3484  -14.8082   25.2199 C.ar    1  UNL1        0.0284
      7 C          -7.3372  -15.2359   26.1343 C.ar    1  UNL1        0.0922
      8 C          -8.1843  -16.3250   25.7886 C.ar    1  UNL1        0.1782
      9 C          -8.0317  -16.9861   24.5510 C.ar    1  UNL1        0.1897
     10 C          -7.0072  -16.5636   23.6984 C.ar    1  UNL1        0.1173
     11 O          -8.9168  -18.0131   24.2090 O.3     1  UNL1       -0.4669
     12 C         -10.1239  -18.2237   24.9437 C.3     1  UNL1        0.2527
     13 C          -9.8798  -17.9946   26.4394 C.3     1  UNL1        0.2526
     14 O          -9.2089  -16.7494   26.6436 O.3     1  UNL1       -0.4682
     15 C          -7.4811  -14.5257   27.4222 C.2     1  UNL1        0.2526
     16 O          -6.4953  -14.4822   28.2073 O.2     1  UNL1       -0.2697
     17 N          -8.7251  -13.8971   27.7806 N.am    1  UNL1       -0.2803
     18 H          -9.5114  -13.9142   27.0934 H       1  UNL1        0.1552
     19 C          -8.9363  -13.1691   29.0017 C.ar    1  UNL1        0.0506
     20 C          -8.0084  -12.2179   29.4566 C.ar    1  UNL1        0.0170
     21 C          -8.2235  -11.5451   30.6606 C.ar    1  UNL1        0.0309
     22 C          -9.3565  -11.8209   31.4298 C.ar    1  UNL1        0.1441
     23 F          -9.5388  -11.1562   32.5993 F       1  UNL1       -0.2042
     24 C         -10.2877  -12.7850   31.0021 C.ar    1  UNL1        0.1000
     25 C         -10.0599  -13.4631   29.7891 C.ar    1  UNL1        0.0208
     26 C         -11.4980  -13.0860   31.8537 C.3     1  UNL1        0.4207
     27 F         -11.2685  -12.8072   33.1901 F       1  UNL1       -0.1658
     28 F         -12.5659  -12.3207   31.4216 F       1  UNL1       -0.1658
     29 F         -11.8252  -14.4248   31.7363 F       1  UNL1       -0.1658
     30 N          -4.9800  -16.2299   20.8304 N.pl3   1  UNL1       -0.2814
     31 H          -5.2243  -15.4984   20.1255 H       1  UNL1        0.1551
     32 C          -4.0274  -17.2370   20.4537 C.ar    1  UNL1        0.0894
     33 C          -4.4840  -18.3731   19.7672 C.ar    1  UNL1        0.1543
     34 F          -5.7996  -18.5039   19.4621 F       1  UNL1       -0.2028
     35 C          -3.5871  -19.3638   19.3653 C.ar    1  UNL1        0.0315
     36 C          -2.2293  -19.2394   19.6561 C.ar    1  UNL1        0.0091
     37 C          -1.7583  -18.1311   20.3672 C.ar    1  UNL1        0.0334
     38 S          -0.0044  -18.0311   20.7379 S.3     1  UNL1       -0.1405
     39 C          -2.6553  -17.1271   20.7830 C.ar    1  UNL1        0.0787
     40 CL         -2.0663  -15.7844   21.7676 Cl      1  UNL1       -0.0804
     41 H           0.2609  -17.3310   19.5460 H       1  UNL1        0.1072
@<TRIPOS>BOND
     1     1     2    1
     2     2     3   ar
     3     3    30    1
     4    30    32    1
     5    32    33   ar
     6    33    34    1
     7    33    35   ar
     8    35    36   ar
     9    36    37   ar
    10    37    38    1
    11    37    39   ar
    12    39    40    1
    13     3     4   ar
    14     4     5   ar
    15     5     6   ar
    16     6     7   ar
    17     7    15    1
    18    15    16    2
    19    15    17   am
    20    17    19    1
    21    19    20   ar
    22    20    21   ar
    23    21    22   ar
    24    22    23    1
    25    22    24   ar
    26    24    26    1
    27    26    27    1
    28    26    28    1
    29    26    29    1
    30    24    25   ar
    31     7     8   ar
    32     8     9   ar
    33     9    10   ar
    34     9    11    1
    35    11    12    1
    36    12    13    1
    37    13    14    1
    38    10     2   ar
    39    39    32   ar
    40    10     5   ar
    41    25    19   ar
    42    14     8    1
    43    30    31    1
    44    38    41    1
    45    17    18    1
@<TRIPOS>MOLECULE
*****
 41 45 0 0 0
SMALL
GASTEIGER

@<TRIPOS>ATOM
      1 C          -6.3099  -19.0424   20.9303 C.3     1  UNL1        0.1333
      2 N          -5.5030  -18.2853   21.8885 N.ar    1  UNL1       -0.2950
      3 C          -4.1502  -18.3007   22.0599 C.ar    1  UNL1        0.2019
      4 N          -3.7235  -17.5326   23.0942 N.ar    1  UNL1       -0.2134
      5 C          -4.8640  -16.9949   23.5606 C.ar    1  UNL1        0.1033
      6 C          -4.9973  -16.0932   24.6134 C.ar    1  UNL1        0.0284
      7 C          -6.2919  -15.6347   24.9458 C.ar    1  UNL1        0.0922
      8 C          -7.4061  -16.0693   24.1758 C.ar    1  UNL1        0.1782
      9 C          -7.2270  -16.9631   23.0983 C.ar    1  UNL1        0.1897
     10 C          -5.9359  -17.4318   22.8365 C.ar    1  UNL1        0.1173
     11 O          -8.3294  -17.3264   22.3187 O.3     1  UNL1       -0.4669
     12 C          -9.5647  -16.6140   22.4081 C.3     1  UNL1        0.2527
     13 C          -9.8482  -16.2269   23.8638 C.3     1  UNL1        0.2526
     14 O          -8.6994  -15.6015   24.4394 O.3     1  UNL1       -0.4682
     15 C          -6.4545  -14.6961   26.0755 C.2     1  UNL1        0.2526
     16 O          -5.5467  -13.8500   26.3000 O.2     1  UNL1       -0.2697
     17 N          -7.6252  -14.7463   26.9110 N.am    1  UNL1       -0.2803
     18 H          -8.3790  -15.4301   26.6767 H       1  UNL1        0.1552
     19 C          -7.8670  -13.8544   28.0118 C.ar    1  UNL1        0.0506
     20 C          -9.1190  -13.7966   28.6458 C.ar    1  UNL1        0.0170
     21 C          -9.3360  -12.9010   29.6942 C.ar    1  UNL1        0.0309
     22 C          -8.3143  -12.0456   30.1138 C.ar    1  UNL1        0.1441
     23 F          -8.5536  -11.1806   31.1323 F       1  UNL1       -0.2042
     24 C          -7.0593  -12.0733   29.4784 C.ar    1  UNL1        0.1000
     25 C          -6.8510  -12.9759   28.4178 C.ar    1  UNL1        0.0208
     26 C          -5.9707  -11.1294   29.9305 C.3     1  UNL1        0.4207
     27 F          -5.2891  -11.6201   31.0311 F       1  UNL1       -0.1658
     28 F          -5.0669  -10.9429   28.9004 F       1  UNL1       -0.1658
     29 F          -6.5272   -9.9092   30.2693 F       1  UNL1       -0.1658
     30 N          -3.2282  -19.0273   21.2336 N.pl3   1  UNL1       -0.2814
     31 H          -3.5294  -19.9631   20.8798 H       1  UNL1        0.1551
     32 C          -1.9092  -18.5711   20.8936 C.ar    1  UNL1        0.0894
     33 C          -1.7646  -17.3028   20.3097 C.ar    1  UNL1        0.1543
     34 F          -2.8545  -16.5269   20.0834 F       1  UNL1       -0.2028
     35 C          -0.4984  -16.8149   19.9843 C.ar    1  UNL1        0.0315
     36 C           0.6345  -17.5914   20.2238 C.ar    1  UNL1        0.0091
     37 C           0.5099  -18.8706   20.7750 C.ar    1  UNL1        0.0334
     38 S           1.9978  -19.8398   21.0402 S.3     1  UNL1       -0.1405
     39 C          -0.7640  -19.3762   21.1025 C.ar    1  UNL1        0.0787
     40 CL         -0.9183  -21.0301   21.7022 Cl      1  UNL1       -0.0804
     41 H           2.1569  -19.3350   22.3444 H       1  UNL1        0.1072
@<TRIPOS>BOND
     1     1     2    1
     2     2     3   ar
     3     3    30    1
     4    30    32    1
     5    32    33   ar
     6    33    34    1
     7    33    35   ar
     8    35    36   ar
     9    36    37   ar
    10    37    38    1
    11    37    39   ar
    12    39    40    1
    13     3     4   ar
    14     4     5   ar
    15     5     6   ar
    16     6     7   ar
    17     7    15    1
    18    15    16    2
    19    15    17   am
    20    17    19    1
    21    19    20   ar
    22    20    21   ar
    23    21    22   ar
    24    22    23    1
    25    22    24   ar
    26    24    26    1
    27    26    27    1
    28    26    28    1
    29    26    29    1
    30    24    25   ar
    31     7     8   ar
    32     8     9   ar
    33     9    10   ar
    34     9    11    1
    35    11    12    1
    36    12    13    1
    37    13    14    1
    38    10     2   ar
    39    39    32   ar
    40    10     5   ar
    41    25    19   ar
    42    14     8    1
    43    30    31    1
    44    38    41    1
    45    17    18    1
@<TRIPOS>MOLECULE
*****
 41 45 0 0 0
SMALL
GASTEIGER

@<TRIPOS>ATOM
      1 C          -6.4191  -18.9421   21.2693 C.3     1  UNL1        0.1333
      2 N          -5.5543  -18.1798   22.1712 N.ar    1  UNL1       -0.2950
      3 C          -4.1956  -18.2193   22.2813 C.ar    1  UNL1        0.2019
      4 N          -3.7069  -17.4363   23.2763 N.ar    1  UNL1       -0.2134
      5 C          -4.8140  -16.8645   23.7809 C.ar    1  UNL1        0.1033
      6 C          -4.8811  -15.9359   24.8166 C.ar    1  UNL1        0.0284
      7 C          -6.1499  -15.4432   25.1963 C.ar    1  UNL1        0.0922
      8 C          -7.3066  -15.8723   24.4884 C.ar    1  UNL1        0.1782
      9 C          -7.1947  -16.7944   23.4258 C.ar    1  UNL1        0.1897
     10 C          -5.9264  -17.2958   23.1171 C.ar    1  UNL1        0.1173
     11 O          -8.3387  -17.1528   22.7061 O.3     1  UNL1       -0.4669
     12 C          -9.5543  -16.4131   22.8343 C.3     1  UNL1        0.2527
     13 C          -9.7630  -15.9865   24.2915 C.3     1  UNL1        0.2526
     14 O          -8.5770  -15.3718   24.7992 O.3     1  UNL1       -0.4682
     15 C          -6.2419  -14.4753   26.3093 C.2     1  UNL1        0.2526
     16 O          -5.2817  -13.6826   26.5082 O.2     1  UNL1       -0.2697
     17 N          -7.4041  -14.4380   27.1574 N.am    1  UNL1       -0.2803
     18 H          -8.2009  -15.0785   26.9439 H       1  UNL1        0.1552
     19 C          -7.5784  -13.5125   28.2431 C.ar    1  UNL1        0.0506
     20 C          -6.4990  -12.7752   28.7569 C.ar    1  UNL1        0.0170
     21 C          -6.6899  -11.9039   29.8306 C.ar    1  UNL1        0.0309
     22 C          -7.9529  -11.7670   30.4117 C.ar    1  UNL1        0.1441
     23 F          -8.1098  -10.9168   31.4583 F       1  UNL1       -0.2042
     24 C          -9.0428  -12.5119   29.9252 C.ar    1  UNL1        0.1000
     25 C          -8.8400  -13.3927   28.8455 C.ar    1  UNL1        0.0208
     26 C         -10.3979  -12.3674   30.5758 C.3     1  UNL1        0.4207
     27 F         -10.3375  -11.5964   31.7240 F       1  UNL1       -0.1658
     28 F         -11.2724  -11.7671   29.6883 F       1  UNL1       -0.1658
     29 F         -10.8848  -13.6172   30.9138 F       1  UNL1       -0.1658
     30 N          -3.3270  -18.9838   21.4318 N.pl3   1  UNL1       -0.2814
     31 H          -3.6504  -19.9327   21.1376 H       1  UNL1        0.1551
     32 C          -2.0310  -18.5473   20.9921 C.ar    1  UNL1        0.0894
     33 C          -1.9241  -17.3141   20.3303 C.ar    1  UNL1        0.1543
     34 F          -3.0277  -16.5523   20.1230 F       1  UNL1       -0.2028
     35 C          -0.6800  -16.8451   19.9065 C.ar    1  UNL1        0.0315
     36 C           0.4672  -17.6066   20.1245 C.ar    1  UNL1        0.0091
     37 C           0.3785  -18.8527   20.7532 C.ar    1  UNL1        0.0334
     38 S           1.8824  -19.8050   20.9876 S.3     1  UNL1       -0.1405
     39 C          -0.8730  -19.3391   21.1806 C.ar    1  UNL1        0.0787
     40 CL         -0.9875  -20.9566   21.8805 Cl      1  UNL1       -0.0804
     41 H           2.1135  -19.2273   22.2501 H       1  UNL1        0.1072
@<TRIPOS>BOND
     1     1     2    1
     2     2     3   ar
     3     3    30    1
     4    30    32    1
     5    32    33   ar
     6    33    34    1
     7    33    35   ar
     8    35    36   ar
     9    36    37   ar
    10    37    38    1
    11    37    39   ar
    12    39    40    1
    13     3     4   ar
    14     4     5   ar
    15     5     6   ar
    16     6     7   ar
    17     7    15    1
    18    15    16    2
    19    15    17   am
    20    17    19    1
    21    19    20   ar
    22    20    21   ar
    23    21    22   ar
    24    22    23    1
    25    22    24   ar
    26    24    26    1
    27    26    27    1
    28    26    28    1
    29    26    29    1
    30    24    25   ar
    31     7     8   ar
    32     8     9   ar
    33     9    10   ar
    34     9    11    1
    35    11    12    1
    36    12    13    1
    37    13    14    1
    38    10     2   ar
    39    39    32   ar
    40    10     5   ar
    41    25    19   ar
    42    14     8    1
    43    30    31    1
    44    38    41    1
    45    17    18    1
@<TRIPOS>MOLECULE
*****
 41 45 0 0 0
SMALL
GASTEIGER

@<TRIPOS>ATOM
      1 C          -5.7667  -11.5907   29.2446 C.3     1  UNL1        0.1333
      2 N          -7.0445  -12.2991   29.1566 N.ar    1  UNL1       -0.2950
      3 C          -8.2003  -12.0553   29.8380 C.ar    1  UNL1        0.2019
      4 N          -9.1858  -12.9510   29.5768 N.ar    1  UNL1       -0.2134
      5 C          -8.6201  -13.7649   28.6685 C.ar    1  UNL1        0.1033
      6 C          -9.2125  -14.8532   28.0328 C.ar    1  UNL1        0.0284
      7 C          -8.4472  -15.5817   27.0945 C.ar    1  UNL1        0.0922
      8 C          -7.1215  -15.1610   26.7969 C.ar    1  UNL1        0.1782
      9 C          -6.5653  -14.0358   27.4425 C.ar    1  UNL1        0.1897
     10 C          -7.3390  -13.3752   28.4016 C.ar    1  UNL1        0.1173
     11 O          -5.2831  -13.6060   27.0870 O.3     1  UNL1       -0.4669
     12 C          -4.6383  -14.0981   25.9108 C.3     1  UNL1        0.2527
     13 C          -4.9407  -15.5892   25.7260 C.3     1  UNL1        0.2526
     14 O          -6.3459  -15.8241   25.8378 O.3     1  UNL1       -0.4682
     15 C          -9.0521  -16.7539   26.4282 C.2     1  UNL1        0.2526
     16 O          -9.4992  -17.6949   27.1385 O.2     1  UNL1       -0.2697
     17 N          -9.1272  -16.8265   24.9929 N.am    1  UNL1       -0.2803
     18 H          -8.7860  -16.0145   24.4315 H       1  UNL1        0.1552
     19 C          -9.7205  -17.9196   24.2725 C.ar    1  UNL1        0.0506
     20 C          -9.8639  -19.1890   24.8563 C.ar    1  UNL1        0.0170
     21 C         -10.4176  -20.2411   24.1250 C.ar    1  UNL1        0.0309
     22 C         -10.8220  -20.0445   22.8024 C.ar    1  UNL1        0.1441
     23 F         -11.3524  -21.0861   22.1120 F       1  UNL1       -0.2042
     24 C         -10.6680  -18.7861   22.1924 C.ar    1  UNL1        0.1000
     25 C         -10.1032  -17.7318   22.9357 C.ar    1  UNL1        0.0208
     26 C         -11.0924  -18.5937   20.7560 C.3     1  UNL1        0.4207
     27 F         -10.9137  -19.7452   20.0084 F       1  UNL1       -0.1658
     28 F         -12.4302  -18.2454   20.7145 F       1  UNL1       -0.1658
     29 F         -10.3442  -17.5807   20.1839 F       1  UNL1       -0.1658
     30 N          -8.4045  -10.9548   30.7368 N.pl3   1  UNL1       -0.2814
     31 H          -7.5751  -10.3673   30.9788 H       1  UNL1        0.1551
     32 C          -9.6614  -10.6321   31.3529 C.ar    1  UNL1        0.0894
     33 C         -10.1344  -11.4526   32.3889 C.ar    1  UNL1        0.1543
     34 F          -9.4069  -12.5218   32.7995 F       1  UNL1       -0.2028
     35 C         -11.3405  -11.1605   33.0270 C.ar    1  UNL1        0.0315
     36 C         -12.0942  -10.0570   32.6295 C.ar    1  UNL1        0.0091
     37 C         -11.6570   -9.2453   31.5779 C.ar    1  UNL1        0.0334
     38 S         -12.6769   -7.8512   31.0882 S.3     1  UNL1       -0.1405
     39 C         -10.4434   -9.5336   30.9224 C.ar    1  UNL1        0.0787
     40 CL         -9.9518   -8.5636   29.5308 Cl      1  UNL1       -0.0804
     41 H         -12.0151   -6.9867   31.9801 H       1  UNL1        0.1072
@<TRIPOS>BOND
     1     1     2    1
     2     2     3   ar
     3     3    30    1
     4    30    32    1
     5    32    33   ar
     6    33    34    1
     7    33    35   ar
     8    35    36   ar
     9    36    37   ar
    10    37    38    1
    11    37    39   ar
    12    39    40    1
    13     3     4   ar
    14     4     5   ar
    15     5     6   ar
    16     6     7   ar
    17     7    15    1
    18    15    16    2
    19    15    17   am
    20    17    19    1
    21    19    20   ar
    22    20    21   ar
    23    21    22   ar
    24    22    23    1
    25    22    24   ar
    26    24    26    1
    27    26    27    1
    28    26    28    1
    29    26    29    1
    30    24    25   ar
    31     7     8   ar
    32     8     9   ar
    33     9    10   ar
    34     9    11    1
    35    11    12    1
    36    12    13    1
    37    13    14    1
    38    10     2   ar
    39    39    32   ar
    40    10     5   ar
    41    25    19   ar
    42    14     8    1
    43    30    31    1
    44    38    41    1
    45    17    18    1
@<TRIPOS>MOLECULE
*****
 41 45 0 0 0
SMALL
GASTEIGER

@<TRIPOS>ATOM
      1 C          -6.1865  -11.9600   29.2947 C.3     1  UNL1        0.1333
      2 N          -7.4170  -12.7200   29.0695 N.ar    1  UNL1       -0.2950
      3 C          -8.6258  -12.5826   29.6858 C.ar    1  UNL1        0.2019
      4 N          -9.5440  -13.5024   29.2950 N.ar    1  UNL1       -0.2134
      5 C          -8.8787  -14.2190   28.3724 C.ar    1  UNL1        0.1033
      6 C          -9.3707  -15.2842   27.6224 C.ar    1  UNL1        0.0284
      7 C          -8.5091  -15.9041   26.6895 C.ar    1  UNL1        0.0922
      8 C          -7.1907  -15.3998   26.5139 C.ar    1  UNL1        0.1782
      9 C          -6.7374  -14.3004   27.2739 C.ar    1  UNL1        0.1897
     10 C          -7.6052  -13.7501   28.2220 C.ar    1  UNL1        0.1173
     11 O          -5.4591  -13.7849   27.0383 O.3     1  UNL1       -0.4669
     12 C          -4.7144  -14.1574   25.8772 C.3     1  UNL1        0.2527
     13 C          -4.9256  -15.6434   25.5672 C.3     1  UNL1        0.2526
     14 O          -6.3209  -15.9525   25.5657 O.3     1  UNL1       -0.4682
     15 C          -9.0072  -17.0512   25.9022 C.2     1  UNL1        0.2526
     16 O          -9.0674  -18.1855   26.4497 O.2     1  UNL1       -0.2697
     17 N          -9.4132  -16.8819   24.5319 N.am    1  UNL1       -0.2803
     18 H          -9.3909  -15.9236   24.1175 H       1  UNL1        0.1552
     19 C          -9.9295  -17.9412   23.7091 C.ar    1  UNL1        0.0506
     20 C         -10.5345  -19.0769   24.2720 C.ar    1  UNL1        0.0170
     21 C         -11.0022  -20.1046   23.4514 C.ar    1  UNL1        0.0309
     22 C         -10.8613  -20.0187   22.0642 C.ar    1  UNL1        0.1441
     23 F         -11.3201  -21.0347   21.2895 F       1  UNL1       -0.2042
     24 C         -10.2397  -18.8991   21.4816 C.ar    1  UNL1        0.1000
     25 C          -9.7656  -17.8697   22.3173 C.ar    1  UNL1        0.0208
     26 C         -10.0776  -18.8291   19.9818 C.3     1  UNL1        0.4207
     27 F         -10.8609  -19.7700   19.3355 F       1  UNL1       -0.1658
     28 F         -10.4440  -17.5716   19.5379 F       1  UNL1       -0.1658
     29 F          -8.7548  -19.0580   19.6480 F       1  UNL1       -0.1658
     30 N          -8.9452  -11.5626   30.6440 N.pl3   1  UNL1       -0.2814
     31 H          -9.0339  -10.5817   30.2952 H       1  UNL1        0.1551
     32 C          -9.1132  -11.7948   32.0516 C.ar    1  UNL1        0.0894
     33 C          -8.1524  -11.2837   32.9382 C.ar    1  UNL1        0.1543
     34 F          -7.0943  -10.5777   32.4657 F       1  UNL1       -0.2028
     35 C          -8.2908  -11.4697   34.3142 C.ar    1  UNL1        0.0315
     36 C          -9.3796  -12.1791   34.8193 C.ar    1  UNL1        0.0091
     37 C         -10.3310  -12.7242   33.9514 C.ar    1  UNL1        0.0334
     38 S         -11.7006  -13.6504   34.6513 S.3     1  UNL1       -0.1405
     39 C         -10.1989  -12.5476   32.5596 C.ar    1  UNL1        0.0787
     40 CL        -11.3489  -13.3259   31.4684 Cl      1  UNL1       -0.0804
     41 H         -12.5018  -12.4968   34.7436 H       1  UNL1        0.1072
@<TRIPOS>BOND
     1     1     2    1
     2     2     3   ar
     3     3    30    1
     4    30    32    1
     5    32    33   ar
     6    33    34    1
     7    33    35   ar
     8    35    36   ar
     9    36    37   ar
    10    37    38    1
    11    37    39   ar
    12    39    40    1
    13     3     4   ar
    14     4     5   ar
    15     5     6   ar
    16     6     7   ar
    17     7    15    1
    18    15    16    2
    19    15    17   am
    20    17    19    1
    21    19    20   ar
    22    20    21   ar
    23    21    22   ar
    24    22    23    1
    25    22    24   ar
    26    24    26    1
    27    26    27    1
    28    26    28    1
    29    26    29    1
    30    24    25   ar
    31     7     8   ar
    32     8     9   ar
    33     9    10   ar
    34     9    11    1
    35    11    12    1
    36    12    13    1
    37    13    14    1
    38    10     2   ar
    39    39    32   ar
    40    10     5   ar
    41    25    19   ar
    42    14     8    1
    43    30    31    1
    44    38    41    1
    45    17    18    1
@<TRIPOS>MOLECULE
*****
 41 45 0 0 0
SMALL
GASTEIGER

@<TRIPOS>ATOM
      1 C          -8.4312  -10.2980   31.6699 C.3     1  UNL1        0.1333
      2 N          -8.8239  -11.5043   30.9400 N.ar    1  UNL1       -0.2950
      3 C          -9.9168  -12.2968   31.1333 C.ar    1  UNL1        0.2019
      4 N          -9.9460  -13.3897   30.3292 N.ar    1  UNL1       -0.2134
      5 C          -8.8358  -13.2459   29.5849 C.ar    1  UNL1        0.1033
      6 C          -8.3940  -14.0863   28.5661 C.ar    1  UNL1        0.0284
      7 C          -7.1976  -13.7535   27.8917 C.ar    1  UNL1        0.0922
      8 C          -6.5086  -12.5587   28.2396 C.ar    1  UNL1        0.1782
      9 C          -7.0030  -11.7182   29.2599 C.ar    1  UNL1        0.1897
     10 C          -8.1617  -12.1117   29.9364 C.ar    1  UNL1        0.1173
     11 O          -6.3413  -10.5188   29.5404 O.3     1  UNL1       -0.4669
     12 C          -5.3542   -9.9937   28.6508 C.3     1  UNL1        0.2527
     13 C          -4.5039  -11.1306   28.0734 C.3     1  UNL1        0.2526
     14 O          -5.3469  -12.1658   27.5635 O.3     1  UNL1       -0.4682
     15 C          -6.7015  -14.6467   26.8241 C.2     1  UNL1        0.2526
     16 O          -5.9193  -15.5870   27.1311 O.2     1  UNL1       -0.2697
     17 N          -7.0980  -14.4475   25.4551 N.am    1  UNL1       -0.2803
     18 H          -7.7787  -13.6863   25.2362 H       1  UNL1        0.1552
     19 C          -6.6781  -15.2859   24.3657 C.ar    1  UNL1        0.0506
     20 C          -5.4559  -15.0729   23.7071 C.ar    1  UNL1        0.0170
     21 C          -5.0848  -15.8839   22.6334 C.ar    1  UNL1        0.0309
     22 C          -5.9308  -16.9060   22.1962 C.ar    1  UNL1        0.1441
     23 F          -5.5480  -17.6767   21.1463 F       1  UNL1       -0.2042
     24 C          -7.1685  -17.1227   22.8292 C.ar    1  UNL1        0.1000
     25 C          -7.5375  -16.2961   23.9079 C.ar    1  UNL1        0.0208
     26 C          -8.0808  -18.2192   22.3333 C.3     1  UNL1        0.4207
     27 F          -7.4619  -19.4571   22.3663 F       1  UNL1       -0.1658
     28 F          -9.2114  -18.2712   23.1282 F       1  UNL1       -0.1658
     29 F          -8.4576  -17.9535   21.0292 F       1  UNL1       -0.1658
     30 N         -10.9700  -12.0252   32.0701 N.pl3   1  UNL1       -0.2814
     31 H         -11.3637  -11.0576   32.0884 H       1  UNL1        0.1551
     32 C         -11.4904  -12.9821   33.0067 C.ar    1  UNL1        0.0894
     33 C         -10.7615  -13.2442   34.1773 C.ar    1  UNL1        0.1543
     34 F          -9.5941  -12.5946   34.4148 F       1  UNL1       -0.2028
     35 C         -11.2438  -14.1511   35.1218 C.ar    1  UNL1        0.0315
     36 C         -12.4491  -14.8165   34.9025 C.ar    1  UNL1        0.0091
     37 C         -13.1748  -14.5940   33.7280 C.ar    1  UNL1        0.0334
     38 S         -14.7083  -15.4949   33.4826 S.3     1  UNL1       -0.1405
     39 C         -12.6950  -13.6846   32.7644 C.ar    1  UNL1        0.0787
     40 CL        -13.5661  -13.4877   31.2408 Cl      1  UNL1       -0.0804
     41 H         -15.4644  -14.4790   34.0968 H       1  UNL1        0.1072
@<TRIPOS>BOND
     1     1     2    1
     2     2     3   ar
     3     3    30    1
     4    30    32    1
     5    32    33   ar
     6    33    34    1
     7    33    35   ar
     8    35    36   ar
     9    36    37   ar
    10    37    38    1
    11    37    39   ar
    12    39    40    1
    13     3     4   ar
    14     4     5   ar
    15     5     6   ar
    16     6     7   ar
    17     7    15    1
    18    15    16    2
    19    15    17   am
    20    17    19    1
    21    19    20   ar
    22    20    21   ar
    23    21    22   ar
    24    22    23    1
    25    22    24   ar
    26    24    26    1
    27    26    27    1
    28    26    28    1
    29    26    29    1
    30    24    25   ar
    31     7     8   ar
    32     8     9   ar
    33     9    10   ar
    34     9    11    1
    35    11    12    1
    36    12    13    1
    37    13    14    1
    38    10     2   ar
    39    39    32   ar
    40    10     5   ar
    41    25    19   ar
    42    14     8    1
    43    30    31    1
    44    38    41    1
    45    17    18    1
@<TRIPOS>MOLECULE
*****
 41 45 0 0 0
SMALL
GASTEIGER

@<TRIPOS>ATOM
      1 C          -7.7695  -18.6852   21.3000 C.3     1  UNL1        0.1333
      2 N          -7.3252  -17.5760   22.1453 N.ar    1  UNL1       -0.2950
      3 C          -6.3350  -16.6692   21.9068 C.ar    1  UNL1        0.2019
      4 N          -6.1248  -15.8092   22.9354 N.ar    1  UNL1       -0.2134
      5 C          -7.0500  -16.1845   23.8357 C.ar    1  UNL1        0.1033
      6 C          -7.2944  -15.6058   25.0785 C.ar    1  UNL1        0.0284
      7 C          -8.3264  -16.1446   25.8795 C.ar    1  UNL1        0.0922
      8 C          -9.1069  -17.2240   25.3804 C.ar    1  UNL1        0.1782
      9 C          -8.8461  -17.7659   24.1036 C.ar    1  UNL1        0.1897
     10 C          -7.7826  -17.2366   23.3661 C.ar    1  UNL1        0.1173
     11 O          -9.6670  -18.7849   23.6109 O.3     1  UNL1       -0.4669
     12 C         -10.9125  -19.0983   24.2369 C.3     1  UNL1        0.2527
     13 C         -10.7793  -18.9973   25.7605 C.3     1  UNL1        0.2526
     14 O         -10.1706  -17.7554   26.1201 O.3     1  UNL1       -0.4682
     15 C          -8.5837  -15.5582   27.2113 C.2     1  UNL1        0.2526
     16 O          -8.7094  -16.3281   28.2020 O.2     1  UNL1       -0.2697
     17 N          -8.6946  -14.1331   27.3785 N.am    1  UNL1       -0.2803
     18 H          -8.5455  -13.5180   26.5477 H       1  UNL1        0.1552
     19 C          -8.9199  -13.4863   28.6421 C.ar    1  UNL1        0.0506
     20 C         -10.0730  -13.7446   29.4013 C.ar    1  UNL1        0.0170
     21 C         -10.2813  -13.0816   30.6118 C.ar    1  UNL1        0.0309
     22 C          -9.3516  -12.1464   31.0728 C.ar    1  UNL1        0.1441
     23 F          -9.5812  -11.5120   32.2508 F       1  UNL1       -0.2042
     24 C          -8.2002  -11.8582   30.3174 C.ar    1  UNL1        0.1000
     25 C          -8.0009  -12.5274   29.0946 C.ar    1  UNL1        0.0208
     26 C          -7.2136  -10.8310   30.8194 C.3     1  UNL1        0.4207
     27 F          -6.2026  -10.5982   29.9027 F       1  UNL1       -0.1658
     28 F          -7.8729   -9.6393   31.0596 F       1  UNL1       -0.1658
     29 F          -6.6413  -11.2759   31.9975 F       1  UNL1       -0.1658
     30 N          -5.5793  -16.5831   20.6893 N.pl3   1  UNL1       -0.2814
     31 H          -5.8783  -15.8732   19.9834 H       1  UNL1        0.1551
     32 C          -4.4666  -17.4308   20.3627 C.ar    1  UNL1        0.0894
     33 C          -4.7132  -18.6353   19.6854 C.ar    1  UNL1        0.1543
     34 F          -5.9803  -18.9787   19.3423 F       1  UNL1       -0.2028
     35 C          -3.6572  -19.4761   19.3315 C.ar    1  UNL1        0.0315
     36 C          -2.3471  -19.1324   19.6618 C.ar    1  UNL1        0.0091
     37 C          -2.0826  -17.9527   20.3648 C.ar    1  UNL1        0.0334
     38 S          -0.3804  -17.5686   20.7876 S.3     1  UNL1       -0.1405
     39 C          -3.1413  -17.0985   20.7323 C.ar    1  UNL1        0.0787
     40 CL         -2.8069  -15.6645   21.7075 Cl      1  UNL1       -0.0804
     41 H          -0.1896  -16.8530   19.5908 H       1  UNL1        0.1072
@<TRIPOS>BOND
     1     1     2    1
     2     2     3   ar
     3     3    30    1
     4    30    32    1
     5    32    33   ar
     6    33    34    1
     7    33    35   ar
     8    35    36   ar
     9    36    37   ar
    10    37    38    1
    11    37    39   ar
    12    39    40    1
    13     3     4   ar
    14     4     5   ar
    15     5     6   ar
    16     6     7   ar
    17     7    15    1
    18    15    16    2
    19    15    17   am
    20    17    19    1
    21    19    20   ar
    22    20    21   ar
    23    21    22   ar
    24    22    23    1
    25    22    24   ar
    26    24    26    1
    27    26    27    1
    28    26    28    1
    29    26    29    1
    30    24    25   ar
    31     7     8   ar
    32     8     9   ar
    33     9    10   ar
    34     9    11    1
    35    11    12    1
    36    12    13    1
    37    13    14    1
    38    10     2   ar
    39    39    32   ar
    40    10     5   ar
    41    25    19   ar
    42    14     8    1
    43    30    31    1
    44    38    41    1
    45    17    18    1
@<TRIPOS>MOLECULE
*****
 41 45 0 0 0
SMALL
GASTEIGER

@<TRIPOS>ATOM
      1 C          -6.9904  -17.8833   22.0228 C.3     1  UNL1        0.1333
      2 N          -6.2796  -16.7581   22.6319 N.ar    1  UNL1       -0.2950
      3 C          -5.2338  -16.0412   22.1298 C.ar    1  UNL1        0.2019
      4 N          -4.7543  -15.1045   22.9868 N.ar    1  UNL1       -0.2134
      5 C          -5.5631  -15.2299   24.0534 C.ar    1  UNL1        0.1033
      6 C          -5.5299  -14.4773   25.2246 C.ar    1  UNL1        0.0284
      7 C          -6.4799  -14.7595   26.2320 C.ar    1  UNL1        0.0922
      8 C          -7.4604  -15.7647   26.0057 C.ar    1  UNL1        0.1782
      9 C          -7.4784  -16.4876   24.7937 C.ar    1  UNL1        0.1897
     10 C          -6.4887  -16.2119   23.8454 C.ar    1  UNL1        0.1173
     11 O          -8.4900  -17.4270   24.5711 O.3     1  UNL1       -0.4669
     12 C          -9.6485  -17.4774   25.4057 C.3     1  UNL1        0.2527
     13 C          -9.2609  -17.2157   26.8653 C.3     1  UNL1        0.2526
     14 O          -8.4504  -16.0422   26.9566 O.3     1  UNL1       -0.4682
     15 C          -6.4440  -13.9867   27.4911 C.2     1  UNL1        0.2526
     16 O          -6.8774  -14.5223   28.5472 O.2     1  UNL1       -0.2697
     17 N          -5.9285  -12.6432   27.5151 N.am    1  UNL1       -0.2803
     18 H          -5.5388  -12.2402   26.6339 H       1  UNL1        0.1552
     19 C          -5.8386  -11.8370   28.7016 C.ar    1  UNL1        0.0506
     20 C          -4.6973  -11.0666   28.9784 C.ar    1  UNL1        0.0170
     21 C          -4.6239  -10.3146   30.1520 C.ar    1  UNL1        0.0309
     22 C          -5.6789  -10.3313   31.0675 C.ar    1  UNL1        0.1441
     23 F          -5.5795   -9.5950   32.2036 F       1  UNL1       -0.2042
     24 C          -6.8223  -11.1126   30.8188 C.ar    1  UNL1        0.1000
     25 C          -6.8855  -11.8727   29.6351 C.ar    1  UNL1        0.0208
     26 C          -7.9467  -11.1355   31.8267 C.3     1  UNL1        0.4207
     27 F          -7.4958  -11.4685   33.0925 F       1  UNL1       -0.1658
     28 F          -8.5377   -9.8864   31.8846 F       1  UNL1       -0.1658
     29 F          -8.8948  -12.0661   31.4415 F       1  UNL1       -0.1658
     30 N          -4.6784  -16.2129   20.8173 N.pl3   1  UNL1       -0.2814
     31 H          -4.9465  -15.5189   20.0838 H       1  UNL1        0.1551
     32 C          -3.8114  -17.2935   20.4375 C.ar    1  UNL1        0.0894
     33 C          -4.3678  -18.4086   19.7916 C.ar    1  UNL1        0.1543
     34 F          -5.6980  -18.4515   19.5274 F       1  UNL1       -0.2028
     35 C          -3.5559  -19.4693   19.3879 C.ar    1  UNL1        0.0315
     36 C          -2.1845  -19.4361   19.6367 C.ar    1  UNL1        0.0091
     37 C          -1.6149  -18.3492   20.3075 C.ar    1  UNL1        0.0334
     38 S           0.1521  -18.3668   20.6254 S.3     1  UNL1       -0.1405
     39 C          -2.4255  -17.2748   20.7249 C.ar    1  UNL1        0.0787
     40 CL         -1.7135  -15.9567   21.6600 Cl      1  UNL1       -0.0804
     41 H           0.4301  -17.7135   19.4102 H       1  UNL1        0.1072
@<TRIPOS>BOND
     1     1     2    1
     2     2     3   ar
     3     3    30    1
     4    30    32    1
     5    32    33   ar
     6    33    34    1
     7    33    35   ar
     8    35    36   ar
     9    36    37   ar
    10    37    38    1
    11    37    39   ar
    12    39    40    1
    13     3     4   ar
    14     4     5   ar
    15     5     6   ar
    16     6     7   ar
    17     7    15    1
    18    15    16    2
    19    15    17   am
    20    17    19    1
    21    19    20   ar
    22    20    21   ar
    23    21    22   ar
    24    22    23    1
    25    22    24   ar
    26    24    26    1
    27    26    27    1
    28    26    28    1
    29    26    29    1
    30    24    25   ar
    31     7     8   ar
    32     8     9   ar
    33     9    10   ar
    34     9    11    1
    35    11    12    1
    36    12    13    1
    37    13    14    1
    38    10     2   ar
    39    39    32   ar
    40    10     5   ar
    41    25    19   ar
    42    14     8    1
    43    30    31    1
    44    38    41    1
    45    17    18    1
