@<TRIPOS>MOLECULE
*****
 51 56 0 0 0
SMALL
GASTEIGER

@<TRIPOS>ATOM
      1 C          -9.6677  -11.3574   30.8183 C.2     1  UNL1        0.2483
      2 O          -9.2737  -11.3294   32.0162 O.2     1  UNL1       -0.2701
      3 N         -10.7564  -10.5153   30.4017 N.am    1  UNL1       -0.2945
      4 H         -11.0242  -10.5049   29.3925 H       1  UNL1        0.1501
      5 C          -8.0048  -14.1111   27.9713 C.ar    1  UNL1        0.0518
      6 C          -9.3549  -14.1878   28.3425 C.ar    1  UNL1        0.0149
      7 C          -9.8762  -13.3106   29.2953 C.ar    1  UNL1        0.0080
      8 C          -9.0615  -12.3296   29.8838 C.ar    1  UNL1        0.0808
      9 C          -7.6988  -12.2722   29.5347 C.ar    1  UNL1        0.1457
     10 F          -6.8584  -11.3921   30.1349 F       1  UNL1       -0.2040
     11 C          -7.1801  -13.1539   28.5814 C.ar    1  UNL1        0.0443
     12 C          -6.0639  -15.4157   26.9940 C.3     1  UNL1        0.2125
     13 C          -5.4571  -15.1772   25.6096 C.3     1  UNL1        0.1422
     14 N          -6.3171  -15.7691   24.5761 N.pl3   1  UNL1       -0.3021
     15 C          -7.7353  -15.3876   24.5577 C.3     1  UNL1        0.1124
     16 C          -8.3526  -15.5792   25.9450 C.3     1  UNL1        0.1143
     17 N          -7.4746  -14.9960   26.9669 N.pl3   1  UNL1       -0.2829
     18 C          -5.7298  -16.4577   23.4559 C.ar    1  UNL1        0.0480
     19 C          -4.4235  -16.9622   23.5448 C.ar    1  UNL1        0.0145
     20 C          -3.8491  -17.6360   22.4634 C.ar    1  UNL1        0.0051
     21 C          -4.5651  -17.8023   21.2657 C.ar    1  UNL1        0.0715
     22 C          -5.8837  -17.3222   21.1883 C.ar    1  UNL1        0.0051
     23 C          -6.4578  -16.6492   22.2705 C.ar    1  UNL1        0.0145
     24 C          -3.9639  -18.5722   20.1168 C.3     1  UNL1        0.4186
     25 F          -3.1798  -17.7451   19.3312 F       1  UNL1       -0.1659
     26 F          -4.9795  -19.0998   19.3417 F       1  UNL1       -0.1659
     27 F          -3.1694  -19.6053   20.5834 F       1  UNL1       -0.1659
     28 C          -4.6495  -17.2513   27.1114 C.3     1  UNL1        0.1761
     29 O          -5.9724  -16.7969   27.2959 O.3     1  UNL1       -0.3335
     30 C         -11.7420   -9.9907   31.3542 C.3     1  UNL1        0.1535
     31 C         -12.2045  -11.0891   32.2741 C.2     1  UNL1        0.2443
     32 O         -12.7721  -10.7950   33.3619 O.2     1  UNL1       -0.2730
     33 N         -12.0865  -12.4612   31.8653 N.am    1  UNL1       -0.2825
     34 H         -11.9229  -12.6549   30.8511 H       1  UNL1        0.1549
     35 C         -12.2899  -13.5830   32.7414 C.ar    1  UNL1        0.0535
     36 C         -13.2928  -14.5366   32.4958 C.ar    1  UNL1        0.0353
     37 C         -13.4693  -15.5964   33.3891 C.ar    1  UNL1        0.1002
     38 N         -12.6852  -15.6951   34.4950 N.ar    1  UNL1       -0.2422
     39 C         -11.7202  -14.7775   34.7674 C.ar    1  UNL1        0.1002
     40 C         -11.5114  -13.7018   33.9010 C.ar    1  UNL1        0.0353
     41 C         -11.1317   -8.8400   32.1739 C.3     1  UNL1        0.0569
     42 C         -11.1191   -7.5563   31.3925 C.ar    1  UNL1       -0.0017
     43 C         -12.1911   -7.0051   30.6972 C.ar    1  UNL1        0.0681
     44 N         -11.7928   -5.9172   29.9991 N.ar    1  UNL1       -0.3523
     45 C         -10.4761   -5.7846   30.2355 C.ar    1  UNL1        0.0563
     46 C          -9.6132   -4.8329   29.6936 C.ar    1  UNL1        0.0170
     47 C          -8.2515   -4.9070   30.0386 C.ar    1  UNL1        0.0015
     48 C          -7.7864   -5.9229   30.9022 C.ar    1  UNL1        0.0001
     49 C          -8.6802   -6.8697   31.4349 C.ar    1  UNL1        0.0012
     50 C         -10.0266   -6.7677   31.0798 C.ar    1  UNL1        0.0131
     51 H         -12.3853   -5.3221   29.3786 H       1  UNL1        0.1660
@<TRIPOS>BOND
     1    28    29    1
     2    29    12    1
     3    12    13    1
     4    13    14    1
     5    14    18    1
     6    18    19   ar
     7    19    20   ar
     8    20    21   ar
     9    21    24    1
    10    24    25    1
    11    24    26    1
    12    24    27    1
    13    21    22   ar
    14    22    23   ar
    15    14    15    1
    16    15    16    1
    17    16    17    1
    18    17     5    1
    19     5     6   ar
    20     6     7   ar
    21     7     8   ar
    22     8     1    1
    23     1     2    2
    24     1     3   am
    25     3    30    1
    26    30    41    1
    27    41    42    1
    28    42    43   ar
    29    43    44   ar
    30    44    45   ar
    31    45    46   ar
    32    46    47   ar
    33    47    48   ar
    34    48    49   ar
    35    49    50   ar
    36    30    31    1
    37    31    32    2
    38    31    33   am
    39    33    35    1
    40    35    36   ar
    41    36    37   ar
    42    37    38   ar
    43    38    39   ar
    44    39    40   ar
    45     8     9   ar
    46     9    10    1
    47     9    11   ar
    48    17    12    1
    49    11     5   ar
    50    23    18   ar
    51    50    42   ar
    52    40    35   ar
    53    50    45   ar
    54     3     4    1
    55    44    51    1
    56    33    34    1
@<TRIPOS>MOLECULE
*****
 51 56 0 0 0
SMALL
GASTEIGER

@<TRIPOS>ATOM
      1 C          -9.6143  -11.6847   30.3478 C.2     1  UNL1        0.2483
      2 O         -10.2076  -10.6983   29.8321 O.2     1  UNL1       -0.2701
      3 N          -9.5334  -11.8051   31.7785 N.am    1  UNL1       -0.2945
      4 H          -9.0959  -12.6613   32.1855 H       1  UNL1        0.1501
      5 C          -7.7118  -14.4310   27.6473 C.ar    1  UNL1        0.0518
      6 C          -9.0823  -14.5302   27.9272 C.ar    1  UNL1        0.0149
      7 C          -9.6831  -13.6548   28.8337 C.ar    1  UNL1        0.0080
      8 C          -8.9283  -12.6534   29.4661 C.ar    1  UNL1        0.0808
      9 C          -7.5464  -12.5730   29.2093 C.ar    1  UNL1        0.1457
     10 F          -6.7650  -11.6719   29.8561 F       1  UNL1       -0.2040
     11 C          -6.9481  -13.4530   28.3021 C.ar    1  UNL1        0.0443
     12 C          -5.7003  -15.7477   26.8448 C.3     1  UNL1        0.2125
     13 C          -4.9655  -15.5060   25.5244 C.3     1  UNL1        0.1422
     14 N          -5.7310  -16.0830   24.4112 N.pl3   1  UNL1       -0.3021
     15 C          -7.1380  -15.6878   24.2642 C.3     1  UNL1        0.1124
     16 C          -7.8831  -15.8825   25.5868 C.3     1  UNL1        0.1143
     17 N          -7.0986  -15.3144   26.6900 N.pl3   1  UNL1       -0.2829
     18 C          -5.0484  -16.7698   23.3453 C.ar    1  UNL1        0.0480
     19 C          -5.6364  -16.8599   22.0746 C.ar    1  UNL1        0.0145
     20 C          -4.9773  -17.5204   21.0341 C.ar    1  UNL1        0.0051
     21 C          -3.7244  -18.1190   21.2505 C.ar    1  UNL1        0.0715
     22 C          -3.1236  -18.0026   22.5157 C.ar    1  UNL1        0.0051
     23 C          -3.7830  -17.3411   23.5555 C.ar    1  UNL1        0.0145
     24 C          -2.9912  -18.7884   20.1154 C.3     1  UNL1        0.4186
     25 F          -2.3402  -17.8501   19.3332 F       1  UNL1       -0.1659
     26 F          -3.8977  -19.4773   19.3317 F       1  UNL1       -0.1659
     27 F          -2.0470  -19.6771   20.6001 F       1  UNL1       -0.1659
     28 C          -4.3096  -17.5663   27.2227 C.3     1  UNL1        0.1761
     29 O          -5.6496  -17.1317   27.1436 O.3     1  UNL1       -0.3335
     30 C          -9.6651  -10.6429   32.6650 C.3     1  UNL1        0.1535
     31 C          -9.2934   -9.3858   31.9249 C.2     1  UNL1        0.2443
     32 O          -8.0810   -9.1459   31.6710 O.2     1  UNL1       -0.2730
     33 N         -10.3242   -8.5178   31.4270 N.am    1  UNL1       -0.2825
     34 H         -11.2950   -8.9005   31.3647 H       1  UNL1        0.1549
     35 C         -10.0848   -7.1990   30.9065 C.ar    1  UNL1        0.0535
     36 C         -11.1281   -6.2716   30.7428 C.ar    1  UNL1        0.0353
     37 C         -10.8510   -5.0101   30.2096 C.ar    1  UNL1        0.1002
     38 N          -9.5834   -4.6887   29.8391 N.ar    1  UNL1       -0.2422
     39 C          -8.5585   -5.5720   29.9689 C.ar    1  UNL1        0.1002
     40 C          -8.7922   -6.8442   30.4963 C.ar    1  UNL1        0.0353
     41 C         -11.1066  -10.5358   33.1935 C.3     1  UNL1        0.0569
     42 C         -11.9651  -11.6556   32.6763 C.ar    1  UNL1       -0.0017
     43 C         -12.9141  -11.5650   31.6626 C.ar    1  UNL1        0.0681
     44 N         -13.5938  -12.7285   31.5457 N.ar    1  UNL1       -0.3523
     45 C         -13.0927  -13.5485   32.4858 C.ar    1  UNL1        0.0563
     46 C         -13.5105  -14.8449   32.7842 C.ar    1  UNL1        0.0170
     47 C         -12.8780  -15.5113   33.8495 C.ar    1  UNL1        0.0015
     48 C         -11.8584  -14.8723   34.5887 C.ar    1  UNL1        0.0001
     49 C         -11.4566  -13.5637   34.2646 C.ar    1  UNL1        0.0012
     50 C         -12.0979  -12.9295   33.1988 C.ar    1  UNL1        0.0131
     51 H         -14.3710  -12.9335   30.8793 H       1  UNL1        0.1660
@<TRIPOS>BOND
     1    28    29    1
     2    29    12    1
     3    12    13    1
     4    13    14    1
     5    14    18    1
     6    18    19   ar
     7    19    20   ar
     8    20    21   ar
     9    21    24    1
    10    24    25    1
    11    24    26    1
    12    24    27    1
    13    21    22   ar
    14    22    23   ar
    15    14    15    1
    16    15    16    1
    17    16    17    1
    18    17     5    1
    19     5     6   ar
    20     6     7   ar
    21     7     8   ar
    22     8     1    1
    23     1     2    2
    24     1     3   am
    25     3    30    1
    26    30    41    1
    27    41    42    1
    28    42    43   ar
    29    43    44   ar
    30    44    45   ar
    31    45    46   ar
    32    46    47   ar
    33    47    48   ar
    34    48    49   ar
    35    49    50   ar
    36    30    31    1
    37    31    32    2
    38    31    33   am
    39    33    35    1
    40    35    36   ar
    41    36    37   ar
    42    37    38   ar
    43    38    39   ar
    44    39    40   ar
    45     8     9   ar
    46     9    10    1
    47     9    11   ar
    48    17    12    1
    49    11     5   ar
    50    23    18   ar
    51    50    42   ar
    52    40    35   ar
    53    50    45   ar
    54     3     4    1
    55    44    51    1
    56    33    34    1
@<TRIPOS>MOLECULE
*****
 51 56 0 0 0
SMALL
GASTEIGER

@<TRIPOS>ATOM
      1 C          -9.3314  -11.6755   30.4790 C.2     1  UNL1        0.2483
      2 O          -9.6076  -10.5145   30.0706 O.2     1  UNL1       -0.2701
      3 N          -9.5914  -12.0352   31.8468 N.am    1  UNL1       -0.2945
      4 H          -9.4169  -13.0196   32.1480 H       1  UNL1        0.1501
      5 C          -7.4600  -14.3462   27.6827 C.ar    1  UNL1        0.0518
      6 C          -8.8222  -14.4682   27.9930 C.ar    1  UNL1        0.0149
      7 C          -9.4119  -13.6176   28.9298 C.ar    1  UNL1        0.0080
      8 C          -8.6547  -12.6186   29.5631 C.ar    1  UNL1        0.0808
      9 C          -7.2804  -12.5158   29.2754 C.ar    1  UNL1        0.1457
     10 F          -6.4949  -11.6170   29.9205 F       1  UNL1       -0.2040
     11 C          -6.6931  -13.3709   28.3378 C.ar    1  UNL1        0.0443
     12 C          -5.5127  -15.7643   26.8948 C.3     1  UNL1        0.2125
     13 C          -4.6773  -15.4868   25.6430 C.3     1  UNL1        0.1422
     14 N          -5.4132  -15.9112   24.4444 N.pl3   1  UNL1       -0.3021
     15 C          -6.7717  -15.3883   24.2484 C.3     1  UNL1        0.1124
     16 C          -7.6136  -15.6184   25.5055 C.3     1  UNL1        0.1143
     17 N          -6.8590  -15.2036   26.6945 N.pl3   1  UNL1       -0.2829
     18 C          -4.7204  -16.5710   23.3681 C.ar    1  UNL1        0.0480
     19 C          -4.6961  -15.9962   22.0884 C.ar    1  UNL1        0.0145
     20 C          -4.0212  -16.6284   21.0404 C.ar    1  UNL1        0.0051
     21 C          -3.3726  -17.8574   21.2492 C.ar    1  UNL1        0.0715
     22 C          -3.3729  -18.4173   22.5383 C.ar    1  UNL1        0.0051
     23 C          -4.0473  -17.7840   23.5860 C.ar    1  UNL1        0.0145
     24 C          -2.6029  -18.5146   20.1312 C.3     1  UNL1        0.4186
     25 F          -3.4475  -19.2648   19.3313 F       1  UNL1       -0.1659
     26 F          -1.6376  -19.3445   20.6699 F       1  UNL1       -0.1659
     27 F          -1.9872  -17.5631   19.3365 F       1  UNL1       -0.1659
     28 C          -4.2983  -17.7216   27.1743 C.3     1  UNL1        0.1761
     29 O          -5.5921  -17.1662   27.0837 O.3     1  UNL1       -0.3335
     30 C          -9.7029  -11.0275   32.9079 C.3     1  UNL1        0.1535
     31 C          -9.0458   -9.7452   32.4715 C.2     1  UNL1        0.2443
     32 O          -9.7552   -8.7286   32.2366 O.2     1  UNL1       -0.2730
     33 N          -7.6129   -9.6575   32.4199 N.am    1  UNL1       -0.2825
     34 H          -7.0617  -10.3889   32.9239 H       1  UNL1        0.1549
     35 C          -6.8938   -8.5688   31.8155 C.ar    1  UNL1        0.0535
     36 C          -7.2460   -8.0658   30.5513 C.ar    1  UNL1        0.0353
     37 C          -6.5021   -7.0230   29.9932 C.ar    1  UNL1        0.1002
     38 N          -5.4368   -6.5093   30.6633 N.ar    1  UNL1       -0.2422
     39 C          -5.0624   -6.9884   31.8788 C.ar    1  UNL1        0.1002
     40 C          -5.7781   -8.0311   32.4720 C.ar    1  UNL1        0.0353
     41 C         -11.1820  -10.7719   33.2476 C.3     1  UNL1        0.0569
     42 C         -12.0675  -11.8497   32.6882 C.ar    1  UNL1       -0.0017
     43 C         -12.9324  -11.7252   31.6052 C.ar    1  UNL1        0.0681
     44 N         -13.6718  -12.8483   31.4590 N.ar    1  UNL1       -0.3523
     45 C         -13.2921  -13.6755   32.4482 C.ar    1  UNL1        0.0563
     46 C         -13.8093  -14.9375   32.7380 C.ar    1  UNL1        0.0170
     47 C         -13.2985  -15.6165   33.8592 C.ar    1  UNL1        0.0015
     48 C         -12.2984  -15.0233   34.6606 C.ar    1  UNL1        0.0001
     49 C         -11.7945  -13.7486   34.3439 C.ar    1  UNL1        0.0012
     50 C         -12.3160  -13.1013   33.2220 C.ar    1  UNL1        0.0131
     51 H         -14.4093  -13.0213   30.7403 H       1  UNL1        0.1660
@<TRIPOS>BOND
     1    28    29    1
     2    29    12    1
     3    12    13    1
     4    13    14    1
     5    14    18    1
     6    18    19   ar
     7    19    20   ar
     8    20    21   ar
     9    21    24    1
    10    24    25    1
    11    24    26    1
    12    24    27    1
    13    21    22   ar
    14    22    23   ar
    15    14    15    1
    16    15    16    1
    17    16    17    1
    18    17     5    1
    19     5     6   ar
    20     6     7   ar
    21     7     8   ar
    22     8     1    1
    23     1     2    2
    24     1     3   am
    25     3    30    1
    26    30    41    1
    27    41    42    1
    28    42    43   ar
    29    43    44   ar
    30    44    45   ar
    31    45    46   ar
    32    46    47   ar
    33    47    48   ar
    34    48    49   ar
    35    49    50   ar
    36    30    31    1
    37    31    32    2
    38    31    33   am
    39    33    35    1
    40    35    36   ar
    41    36    37   ar
    42    37    38   ar
    43    38    39   ar
    44    39    40   ar
    45     8     9   ar
    46     9    10    1
    47     9    11   ar
    48    17    12    1
    49    11     5   ar
    50    23    18   ar
    51    50    42   ar
    52    40    35   ar
    53    50    45   ar
    54     3     4    1
    55    44    51    1
    56    33    34    1
@<TRIPOS>MOLECULE
*****
 51 56 0 0 0
SMALL
GASTEIGER

@<TRIPOS>ATOM
      1 C          -9.0631  -11.8650   30.6810 C.2     1  UNL1        0.2483
      2 O          -9.6049  -10.7529   30.4347 O.2     1  UNL1       -0.2701
      3 N          -8.9974  -12.3466   32.0344 N.am    1  UNL1       -0.2945
      4 H          -8.6043  -13.2980   32.2093 H       1  UNL1        0.1501
      5 C          -7.2964  -13.9461   27.3640 C.ar    1  UNL1        0.0518
      6 C          -8.6325  -14.1711   27.7253 C.ar    1  UNL1        0.0149
      7 C          -9.1861  -13.5160   28.8269 C.ar    1  UNL1        0.0080
      8 C          -8.4190  -12.6115   29.5792 C.ar    1  UNL1        0.0808
      9 C          -7.0687  -12.4088   29.2360 C.ar    1  UNL1        0.1457
     10 F          -6.2699  -11.6039   29.9810 F       1  UNL1       -0.2040
     11 C          -6.5175  -13.0683   28.1331 C.ar    1  UNL1        0.0443
     12 C          -7.5966  -15.0982   25.1266 C.3     1  UNL1        0.2125
     13 C          -7.2176  -16.5512   24.8319 C.3     1  UNL1        0.1422
     14 N          -5.7649  -16.6626   24.6438 N.pl3   1  UNL1       -0.3021
     15 C          -4.8906  -16.1366   25.7003 C.3     1  UNL1        0.1124
     16 C          -5.2796  -14.6960   26.0404 C.3     1  UNL1        0.1143
     17 N          -6.7345  -14.5987   26.2102 N.pl3   1  UNL1       -0.2829
     18 C          -5.2342  -17.5143   23.6110 C.ar    1  UNL1        0.0480
     19 C          -6.0732  -17.9972   22.5953 C.ar    1  UNL1        0.0145
     20 C          -5.5638  -18.8199   21.5869 C.ar    1  UNL1        0.0051
     21 C          -4.2080  -19.1897   21.5857 C.ar    1  UNL1        0.0715
     22 C          -3.3628  -18.6815   22.5870 C.ar    1  UNL1        0.0051
     23 C          -3.8728  -17.8581   23.5947 C.ar    1  UNL1        0.0145
     24 C          -3.6480  -20.0365   20.4706 C.3     1  UNL1        0.4186
     25 F          -3.4463  -19.2749   19.3325 F       1  UNL1       -0.1659
     26 F          -4.5383  -21.0532   20.1804 F       1  UNL1       -0.1659
     27 F          -2.4347  -20.5911   20.8401 F       1  UNL1       -0.1659
     28 C          -8.0847  -14.9116   22.8659 C.3     1  UNL1        0.1761
     29 O          -7.3960  -14.3316   23.9521 O.3     1  UNL1       -0.3335
     30 C          -9.0787  -11.4411   33.1865 C.3     1  UNL1        0.1535
     31 C          -8.3489  -10.1590   32.8864 C.2     1  UNL1        0.2443
     32 O          -8.9966   -9.0811   32.7838 O.2     1  UNL1       -0.2730
     33 N          -6.9140  -10.1526   32.8159 N.am    1  UNL1       -0.2825
     34 H          -6.4029  -10.9693   33.2215 H       1  UNL1        0.1549
     35 C          -6.1367   -9.0468   32.3255 C.ar    1  UNL1        0.0535
     36 C          -5.4852   -8.1598   33.1997 C.ar    1  UNL1        0.0353
     37 C          -4.7615   -7.0848   32.6772 C.ar    1  UNL1        0.1002
     38 N          -4.7009   -6.8914   31.3331 N.ar    1  UNL1       -0.2422
     39 C          -5.3361   -7.7224   30.4652 C.ar    1  UNL1        0.1002
     40 C          -6.0715   -8.8085   30.9457 C.ar    1  UNL1        0.0353
     41 C         -10.5494  -11.1421   33.5273 C.3     1  UNL1        0.0569
     42 C         -11.4792  -12.0904   32.8239 C.ar    1  UNL1       -0.0017
     43 C         -12.2125  -11.8221   31.6721 C.ar    1  UNL1        0.0681
     44 N         -13.0443  -12.8508   31.3907 N.ar    1  UNL1       -0.3523
     45 C         -12.8537  -13.7603   32.3621 C.ar    1  UNL1        0.0563
     46 C         -13.5241  -14.9717   32.5271 C.ar    1  UNL1        0.0170
     47 C         -13.2019  -15.7544   33.6507 C.ar    1  UNL1        0.0015
     48 C         -12.2328  -15.3111   34.5774 C.ar    1  UNL1        0.0001
     49 C         -11.5715  -14.0845   34.3851 C.ar    1  UNL1        0.0012
     50 C         -11.9074  -13.3320   33.2579 C.ar    1  UNL1        0.0131
     51 H         -13.7189  -12.9090   30.5958 H       1  UNL1        0.1660
@<TRIPOS>BOND
     1    28    29    1
     2    29    12    1
     3    12    13    1
     4    13    14    1
     5    14    18    1
     6    18    19   ar
     7    19    20   ar
     8    20    21   ar
     9    21    24    1
    10    24    25    1
    11    24    26    1
    12    24    27    1
    13    21    22   ar
    14    22    23   ar
    15    14    15    1
    16    15    16    1
    17    16    17    1
    18    17     5    1
    19     5     6   ar
    20     6     7   ar
    21     7     8   ar
    22     8     1    1
    23     1     2    2
    24     1     3   am
    25     3    30    1
    26    30    41    1
    27    41    42    1
    28    42    43   ar
    29    43    44   ar
    30    44    45   ar
    31    45    46   ar
    32    46    47   ar
    33    47    48   ar
    34    48    49   ar
    35    49    50   ar
    36    30    31    1
    37    31    32    2
    38    31    33   am
    39    33    35    1
    40    35    36   ar
    41    36    37   ar
    42    37    38   ar
    43    38    39   ar
    44    39    40   ar
    45     8     9   ar
    46     9    10    1
    47     9    11   ar
    48    17    12    1
    49    11     5   ar
    50    23    18   ar
    51    50    42   ar
    52    40    35   ar
    53    50    45   ar
    54     3     4    1
    55    44    51    1
    56    33    34    1
@<TRIPOS>MOLECULE
*****
 51 56 0 0 0
SMALL
GASTEIGER

@<TRIPOS>ATOM
      1 C          -9.1164  -10.8898   30.6066 C.2     1  UNL1        0.2483
      2 O          -8.2525  -10.0318   30.9359 O.2     1  UNL1       -0.2701
      3 N         -10.4514  -10.8021   31.1338 N.am    1  UNL1       -0.2945
      4 H         -11.1685  -11.4829   30.7982 H       1  UNL1        0.1501
      5 C          -8.0299  -14.1247   27.9972 C.ar    1  UNL1        0.0518
      6 C          -9.3601  -13.9424   28.4018 C.ar    1  UNL1        0.0149
      7 C          -9.6963  -12.9092   29.2784 C.ar    1  UNL1        0.0080
      8 C          -8.7114  -12.0288   29.7552 C.ar    1  UNL1        0.0808
      9 C          -7.3711  -12.2302   29.3743 C.ar    1  UNL1        0.1457
     10 F          -6.3770  -11.4522   29.8717 F       1  UNL1       -0.2040
     11 C          -7.0383  -13.2675   28.4975 C.ar    1  UNL1        0.0443
     12 C          -6.4015  -15.1610   26.3545 C.3     1  UNL1        0.2125
     13 C          -6.6714  -15.3602   24.8615 C.3     1  UNL1        0.1422
     14 N          -7.5453  -16.5239   24.6604 N.pl3   1  UNL1       -0.3021
     15 C          -8.8168  -16.5661   25.3944 C.3     1  UNL1        0.1124
     16 C          -8.5744  -16.3274   26.8865 C.3     1  UNL1        0.1143
     17 N          -7.6882  -15.1715   27.0697 N.pl3   1  UNL1       -0.2829
     18 C          -7.2992  -17.4313   23.5697 C.ar    1  UNL1        0.0480
     19 C          -6.1010  -17.3525   22.8439 C.ar    1  UNL1        0.0145
     20 C          -5.8532  -18.2333   21.7874 C.ar    1  UNL1        0.0051
     21 C          -6.8082  -19.1988   21.4257 C.ar    1  UNL1        0.0715
     22 C          -7.9950  -19.2957   22.1722 C.ar    1  UNL1        0.0051
     23 C          -8.2417  -18.4150   23.2291 C.ar    1  UNL1        0.0145
     24 C          -6.5200  -20.1810   20.3183 C.3     1  UNL1        0.4186
     25 F          -5.4333  -19.7663   19.5677 F       1  UNL1       -0.1659
     26 F          -7.6262  -20.2760   19.4950 F       1  UNL1       -0.1659
     27 F          -6.2348  -21.4323   20.8369 F       1  UNL1       -0.1659
     28 C          -4.4670  -16.3803   25.9611 C.3     1  UNL1        0.1761
     29 O          -5.5817  -16.2225   26.8113 O.3     1  UNL1       -0.3335
     30 C         -10.7499  -10.0852   32.3791 C.3     1  UNL1        0.1535
     31 C         -10.9440   -8.6194   32.0957 C.2     1  UNL1        0.2443
     32 O         -11.9610   -8.0252   32.5479 O.2     1  UNL1       -0.2730
     33 N          -9.9253   -7.8850   31.3980 N.am    1  UNL1       -0.2825
     34 H          -8.9751   -8.3154   31.3297 H       1  UNL1        0.1549
     35 C         -10.0999   -6.5522   30.8876 C.ar    1  UNL1        0.0535
     36 C         -11.2808   -5.8252   31.1161 C.ar    1  UNL1        0.0353
     37 C         -11.4149   -4.5423   30.5789 C.ar    1  UNL1        0.1002
     38 N         -10.4150   -4.0082   29.8287 N.ar    1  UNL1       -0.2422
     39 C          -9.2699   -4.6955   29.5762 C.ar    1  UNL1        0.1002
     40 C          -9.0957   -5.9814   30.0933 C.ar    1  UNL1        0.0353
     41 C         -12.0135  -10.6654   33.0389 C.3     1  UNL1        0.0569
     42 C         -12.4145  -11.9677   32.4053 C.ar    1  UNL1       -0.0017
     43 C         -13.1282  -12.1218   31.2206 C.ar    1  UNL1        0.0681
     44 N         -13.4296  -13.4244   31.0161 N.ar    1  UNL1       -0.3523
     45 C         -12.9254  -14.0929   32.0678 C.ar    1  UNL1        0.0563
     46 C         -13.0280  -15.4590   32.3273 C.ar    1  UNL1        0.0170
     47 C         -12.4669  -15.9460   33.5218 C.ar    1  UNL1        0.0015
     48 C         -11.8288  -15.0661   34.4234 C.ar    1  UNL1        0.0001
     49 C         -11.7395  -13.6920   34.1353 C.ar    1  UNL1        0.0012
     50 C         -12.3000  -13.2384   32.9397 C.ar    1  UNL1        0.0131
     51 H         -13.9716  -13.8220   30.2171 H       1  UNL1        0.1660
@<TRIPOS>BOND
     1    28    29    1
     2    29    12    1
     3    12    13    1
     4    13    14    1
     5    14    18    1
     6    18    19   ar
     7    19    20   ar
     8    20    21   ar
     9    21    24    1
    10    24    25    1
    11    24    26    1
    12    24    27    1
    13    21    22   ar
    14    22    23   ar
    15    14    15    1
    16    15    16    1
    17    16    17    1
    18    17     5    1
    19     5     6   ar
    20     6     7   ar
    21     7     8   ar
    22     8     1    1
    23     1     2    2
    24     1     3   am
    25     3    30    1
    26    30    41    1
    27    41    42    1
    28    42    43   ar
    29    43    44   ar
    30    44    45   ar
    31    45    46   ar
    32    46    47   ar
    33    47    48   ar
    34    48    49   ar
    35    49    50   ar
    36    30    31    1
    37    31    32    2
    38    31    33   am
    39    33    35    1
    40    35    36   ar
    41    36    37   ar
    42    37    38   ar
    43    38    39   ar
    44    39    40   ar
    45     8     9   ar
    46     9    10    1
    47     9    11   ar
    48    17    12    1
    49    11     5   ar
    50    23    18   ar
    51    50    42   ar
    52    40    35   ar
    53    50    45   ar
    54     3     4    1
    55    44    51    1
    56    33    34    1
@<TRIPOS>MOLECULE
*****
 51 56 0 0 0
SMALL
GASTEIGER

@<TRIPOS>ATOM
      1 C          -9.3667  -12.2169   30.5798 C.2     1  UNL1        0.2483
      2 O         -10.4632  -11.6404   30.3428 O.2     1  UNL1       -0.2701
      3 N          -8.7757  -12.1241   31.8874 N.am    1  UNL1       -0.2945
      4 H          -7.9022  -12.6620   32.0819 H       1  UNL1        0.1501
      5 C          -7.4222  -14.1225   27.2569 C.ar    1  UNL1        0.0518
      6 C          -8.7476  -14.4357   27.5910 C.ar    1  UNL1        0.0149
      7 C          -9.3580  -13.8368   28.6945 C.ar    1  UNL1        0.0080
      8 C          -8.6602  -12.9015   29.4760 C.ar    1  UNL1        0.0808
      9 C          -7.3197  -12.6100   29.1598 C.ar    1  UNL1        0.1457
     10 F          -6.5839  -11.7720   29.9327 F       1  UNL1       -0.2040
     11 C          -6.7113  -13.2135   28.0548 C.ar    1  UNL1        0.0443
     12 C          -7.6052  -15.1272   24.9371 C.3     1  UNL1        0.2125
     13 C          -7.2403  -16.5687   24.5759 C.3     1  UNL1        0.1422
     14 N          -5.7813  -16.7059   24.4714 N.pl3   1  UNL1       -0.3021
     15 C          -4.9644  -16.2684   25.6110 C.3     1  UNL1        0.1124
     16 C          -5.3425  -14.8418   26.0161 C.3     1  UNL1        0.1143
     17 N          -6.8028  -14.7175   26.1013 N.pl3   1  UNL1       -0.2829
     18 C          -5.2050  -17.5061   23.4220 C.ar    1  UNL1        0.0480
     19 C          -3.8134  -17.6657   23.3408 C.ar    1  UNL1        0.0145
     20 C          -3.2475  -18.4451   22.3281 C.ar    1  UNL1        0.0051
     21 C          -4.0630  -19.0655   21.3664 C.ar    1  UNL1        0.0715
     22 C          -5.4582  -18.9289   21.4663 C.ar    1  UNL1        0.0051
     23 C          -6.0234  -18.1499   22.4799 C.ar    1  UNL1        0.0145
     24 C          -3.4560  -19.9466   20.3036 C.3     1  UNL1        0.4186
     25 F          -2.8346  -19.1821   19.3313 F       1  UNL1       -0.1659
     26 F          -4.4528  -20.7015   19.7145 F       1  UNL1       -0.1659
     27 F          -2.5120  -20.7965   20.8539 F       1  UNL1       -0.1659
     28 C          -7.7230  -14.9174   22.6293 C.3     1  UNL1        0.1761
     29 O          -7.3137  -14.2955   23.8278 O.3     1  UNL1       -0.3335
     30 C          -9.1005  -11.0312   32.8115 C.3     1  UNL1        0.1535
     31 C          -8.7847   -9.7052   32.1723 C.2     1  UNL1        0.2443
     32 O          -7.6188   -9.2311   32.2611 O.2     1  UNL1       -0.2730
     33 N          -9.7819   -9.0359   31.3840 N.am    1  UNL1       -0.2825
     34 H         -10.6049   -9.5949   31.0629 H       1  UNL1        0.1549
     35 C          -9.6637   -7.6811   30.9171 C.ar    1  UNL1        0.0535
     36 C         -10.7804   -6.9593   30.4617 C.ar    1  UNL1        0.0353
     37 C         -10.6126   -5.6534   29.9938 C.ar    1  UNL1        0.1002
     38 N          -9.3752   -5.0916   29.9666 N.ar    1  UNL1       -0.2422
     39 C          -8.2752   -5.7724   30.3833 C.ar    1  UNL1        0.1002
     40 C          -8.3985   -7.0807   30.8574 C.ar    1  UNL1        0.0353
     41 C         -10.5884  -11.0865   33.2011 C.3     1  UNL1        0.0569
     42 C         -10.9373  -12.3967   33.8494 C.ar    1  UNL1       -0.0017
     43 C         -10.2181  -13.0351   34.8552 C.ar    1  UNL1        0.0681
     44 N         -10.7419  -14.2560   35.1090 N.ar    1  UNL1       -0.3523
     45 C         -11.7764  -14.4007   34.2629 C.ar    1  UNL1        0.0563
     46 C         -12.5968  -15.5185   34.1165 C.ar    1  UNL1        0.0170
     47 C         -13.5961  -15.4765   33.1274 C.ar    1  UNL1        0.0015
     48 C         -13.7475  -14.3339   32.3114 C.ar    1  UNL1        0.0001
     49 C         -12.9056  -13.2198   32.4819 C.ar    1  UNL1        0.0012
     50 C         -11.9268  -13.2878   33.4753 C.ar    1  UNL1        0.0131
     51 H         -10.3911  -14.9543   35.8016 H       1  UNL1        0.1660
@<TRIPOS>BOND
     1    28    29    1
     2    29    12    1
     3    12    13    1
     4    13    14    1
     5    14    18    1
     6    18    19   ar
     7    19    20   ar
     8    20    21   ar
     9    21    24    1
    10    24    25    1
    11    24    26    1
    12    24    27    1
    13    21    22   ar
    14    22    23   ar
    15    14    15    1
    16    15    16    1
    17    16    17    1
    18    17     5    1
    19     5     6   ar
    20     6     7   ar
    21     7     8   ar
    22     8     1    1
    23     1     2    2
    24     1     3   am
    25     3    30    1
    26    30    41    1
    27    41    42    1
    28    42    43   ar
    29    43    44   ar
    30    44    45   ar
    31    45    46   ar
    32    46    47   ar
    33    47    48   ar
    34    48    49   ar
    35    49    50   ar
    36    30    31    1
    37    31    32    2
    38    31    33   am
    39    33    35    1
    40    35    36   ar
    41    36    37   ar
    42    37    38   ar
    43    38    39   ar
    44    39    40   ar
    45     8     9   ar
    46     9    10    1
    47     9    11   ar
    48    17    12    1
    49    11     5   ar
    50    23    18   ar
    51    50    42   ar
    52    40    35   ar
    53    50    45   ar
    54     3     4    1
    55    44    51    1
    56    33    34    1
@<TRIPOS>MOLECULE
*****
 51 56 0 0 0
SMALL
GASTEIGER

@<TRIPOS>ATOM
      1 C          -8.7732  -11.0790   30.9417 C.2     1  UNL1        0.2483
      2 O          -8.2134  -11.2165   32.0636 O.2     1  UNL1       -0.2701
      3 N          -9.7312  -10.0251   30.7427 N.am    1  UNL1       -0.2945
      4 H         -10.1340   -9.8874   29.7894 H       1  UNL1        0.1501
      5 C          -7.8891  -14.0455   27.9630 C.ar    1  UNL1        0.0518
      6 C          -6.8816  -13.2121   28.4698 C.ar    1  UNL1        0.0149
      7 C          -7.1867  -12.2276   29.4114 C.ar    1  UNL1        0.0080
      8 C          -8.5023  -12.0675   29.8761 C.ar    1  UNL1        0.0808
      9 C          -9.5196  -12.8828   29.3448 C.ar    1  UNL1        0.1457
     10 F         -10.8159  -12.7111   29.7071 F       1  UNL1       -0.2040
     11 C          -9.2102  -13.8665   28.4004 C.ar    1  UNL1        0.0443
     12 C          -6.2968  -15.0641   26.2747 C.3     1  UNL1        0.2125
     13 C          -6.5965  -15.2417   24.7845 C.3     1  UNL1        0.1422
     14 N          -7.4781  -16.3997   24.5847 N.pl3   1  UNL1       -0.3021
     15 C          -8.7352  -16.4481   25.3428 C.3     1  UNL1        0.1124
     16 C          -8.4629  -16.2308   26.8330 C.3     1  UNL1        0.1143
     17 N          -7.5692  -15.0804   27.0147 N.pl3   1  UNL1       -0.2829
     18 C          -7.2566  -17.2927   23.4769 C.ar    1  UNL1        0.0480
     19 C          -8.3017  -18.0995   23.0020 C.ar    1  UNL1        0.0145
     20 C          -8.0953  -18.9646   21.9239 C.ar    1  UNL1        0.0051
     21 C          -6.8334  -19.0518   21.3116 C.ar    1  UNL1        0.0715
     22 C          -5.7956  -18.2218   21.7694 C.ar    1  UNL1        0.0051
     23 C          -6.0032  -17.3563   22.8471 C.ar    1  UNL1        0.0145
     24 C          -6.6240  -19.9483   20.1173 C.3     1  UNL1        0.4186
     25 F          -5.5848  -19.4809   19.3314 F       1  UNL1       -0.1659
     26 F          -7.7815  -19.9783   19.3624 F       1  UNL1       -0.1659
     27 F          -6.3152  -21.2359   20.5209 F       1  UNL1       -0.1659
     28 C          -4.3879  -16.2997   25.8128 C.3     1  UNL1        0.1761
     29 O          -5.4719  -16.1344   26.7006 O.3     1  UNL1       -0.3335
     30 C         -10.4528   -9.4089   31.8624 C.3     1  UNL1        0.1535
     31 C         -10.9381  -10.4730   32.8103 C.2     1  UNL1        0.2443
     32 O         -10.8757  -10.2761   34.0550 O.2     1  UNL1       -0.2730
     33 N         -11.5580  -11.6618   32.2941 N.am    1  UNL1       -0.2825
     34 H         -11.8863  -11.6482   31.3017 H       1  UNL1        0.1549
     35 C         -11.8546  -12.8245   33.0863 C.ar    1  UNL1        0.0535
     36 C         -13.0718  -13.5146   32.9540 C.ar    1  UNL1        0.0353
     37 C         -13.3258  -14.6248   33.7634 C.ar    1  UNL1        0.1002
     38 N         -12.4071  -15.0247   34.6819 N.ar    1  UNL1       -0.2422
     39 C         -11.2297  -14.3655   34.8444 C.ar    1  UNL1        0.1002
     40 C         -10.9365  -13.2499   34.0564 C.ar    1  UNL1        0.0353
     41 C          -9.5386   -8.4189   32.6060 C.3     1  UNL1        0.0569
     42 C          -8.7397   -7.5830   31.6461 C.ar    1  UNL1       -0.0017
     43 C          -9.1937   -7.0491   30.4439 C.ar    1  UNL1        0.0681
     44 N          -8.1757   -6.4654   29.7713 N.ar    1  UNL1       -0.3523
     45 C          -7.0800   -6.6382   30.5307 C.ar    1  UNL1        0.0563
     46 C          -5.7751   -6.2496   30.2301 C.ar    1  UNL1        0.0170
     47 C          -4.7625   -6.5771   31.1500 C.ar    1  UNL1        0.0015
     48 C          -5.0717   -7.2834   32.3331 C.ar    1  UNL1        0.0001
     49 C          -6.3977   -7.6623   32.6109 C.ar    1  UNL1        0.0012
     50 C          -7.3825   -7.3184   31.6828 C.ar    1  UNL1        0.0131
     51 H          -8.2288   -6.0025   28.8368 H       1  UNL1        0.1660
@<TRIPOS>BOND
     1    28    29    1
     2    29    12    1
     3    12    13    1
     4    13    14    1
     5    14    18    1
     6    18    19   ar
     7    19    20   ar
     8    20    21   ar
     9    21    24    1
    10    24    25    1
    11    24    26    1
    12    24    27    1
    13    21    22   ar
    14    22    23   ar
    15    14    15    1
    16    15    16    1
    17    16    17    1
    18    17     5    1
    19     5     6   ar
    20     6     7   ar
    21     7     8   ar
    22     8     1    1
    23     1     2    2
    24     1     3   am
    25     3    30    1
    26    30    41    1
    27    41    42    1
    28    42    43   ar
    29    43    44   ar
    30    44    45   ar
    31    45    46   ar
    32    46    47   ar
    33    47    48   ar
    34    48    49   ar
    35    49    50   ar
    36    30    31    1
    37    31    32    2
    38    31    33   am
    39    33    35    1
    40    35    36   ar
    41    36    37   ar
    42    37    38   ar
    43    38    39   ar
    44    39    40   ar
    45     8     9   ar
    46     9    10    1
    47     9    11   ar
    48    17    12    1
    49    11     5   ar
    50    23    18   ar
    51    50    42   ar
    52    40    35   ar
    53    50    45   ar
    54     3     4    1
    55    44    51    1
    56    33    34    1
@<TRIPOS>MOLECULE
*****
 51 56 0 0 0
SMALL
GASTEIGER

@<TRIPOS>ATOM
      1 C          -7.8698  -11.1945   30.9282 C.2     1  UNL1        0.2483
      2 O          -7.0342  -11.2204   31.8726 O.2     1  UNL1       -0.2701
      3 N          -8.9016  -10.1930   30.9109 N.am    1  UNL1       -0.2945
      4 H          -9.5425  -10.1478   30.0879 H       1  UNL1        0.1501
      5 C          -7.8629  -14.1863   27.8455 C.ar    1  UNL1        0.0518
      6 C          -9.0187  -13.9306   28.5974 C.ar    1  UNL1        0.0149
      7 C          -8.9997  -12.9811   29.6207 C.ar    1  UNL1        0.0080
      8 C          -7.8290  -12.2579   29.9017 C.ar    1  UNL1        0.0808
      9 C          -6.6601  -12.5362   29.1682 C.ar    1  UNL1        0.1457
     10 F          -5.4877  -11.9174   29.4573 F       1  UNL1       -0.2040
     11 C          -6.6828  -13.4893   28.1453 C.ar    1  UNL1        0.0443
     12 C          -7.3863  -14.7964   25.4321 C.3     1  UNL1        0.2125
     13 C          -8.4495  -15.1715   24.3973 C.3     1  UNL1        0.1422
     14 N          -8.8930  -16.5554   24.6126 N.pl3   1  UNL1       -0.3021
     15 C          -9.3660  -16.9271   25.9525 C.3     1  UNL1        0.1124
     16 C          -8.3347  -16.5228   27.0086 C.3     1  UNL1        0.1143
     17 N          -7.8909  -15.1438   26.7706 N.pl3   1  UNL1       -0.2829
     18 C          -9.1309  -17.4205   23.4863 C.ar    1  UNL1        0.0480
     19 C          -9.8124  -18.6344   23.6614 C.ar    1  UNL1        0.0145
     20 C         -10.0513  -19.4765   22.5719 C.ar    1  UNL1        0.0051
     21 C          -9.5969  -19.1277   21.2886 C.ar    1  UNL1        0.0715
     22 C          -8.9403  -17.8981   21.1096 C.ar    1  UNL1        0.0051
     23 C          -8.7025  -17.0561   22.1996 C.ar    1  UNL1        0.0145
     24 C          -9.8979  -20.0124   20.1050 C.3     1  UNL1        0.4186
     25 F          -8.7644  -20.1979   19.3325 F       1  UNL1       -0.1659
     26 F         -10.8781  -19.4194   19.3315 F       1  UNL1       -0.1659
     27 F         -10.3435  -21.2542   20.5238 F       1  UNL1       -0.1659
     28 C          -5.8514  -15.3829   23.7939 C.3     1  UNL1        0.1761
     29 O          -6.2052  -15.5270   25.1520 O.3     1  UNL1       -0.3335
     30 C          -9.3435   -9.5110   32.1330 C.3     1  UNL1        0.1535
     31 C         -10.1241  -10.4624   33.0002 C.2     1  UNL1        0.2443
     32 O         -10.2911  -10.1991   34.2228 O.2     1  UNL1       -0.2730
     33 N         -10.7559  -11.6110   32.4127 N.am    1  UNL1       -0.2825
     34 H         -10.8750  -11.6234   31.3742 H       1  UNL1        0.1549
     35 C         -11.3325  -12.6886   33.1702 C.ar    1  UNL1        0.0535
     36 C         -12.6054  -13.2022   32.8681 C.ar    1  UNL1        0.0353
     37 C         -13.1352  -14.2333   33.6481 C.ar    1  UNL1        0.1002
     38 N         -12.4291  -14.7255   34.7002 N.ar    1  UNL1       -0.2422
     39 C         -11.2041  -14.2356   35.0266 C.ar    1  UNL1        0.1002
     40 C         -10.6384  -13.2039   34.2736 C.ar    1  UNL1        0.0353
     41 C          -8.1306   -8.9667   32.9084 C.3     1  UNL1        0.0569
     42 C          -7.5350   -7.7684   32.2243 C.ar    1  UNL1       -0.0017
     43 C          -6.2497   -7.2685   32.4101 C.ar    1  UNL1        0.0681
     44 N          -6.0931   -6.1051   31.7382 N.ar    1  UNL1       -0.3523
     45 C          -7.2720   -5.8581   31.1414 C.ar    1  UNL1        0.0563
     46 C          -7.6128   -4.7445   30.3747 C.ar    1  UNL1        0.0170
     47 C          -8.9282   -4.6613   29.8833 C.ar    1  UNL1        0.0015
     48 C          -9.8652   -5.6780   30.1711 C.ar    1  UNL1        0.0001
     49 C          -9.4932   -6.7909   30.9470 C.ar    1  UNL1        0.0012
     50 C          -8.1794   -6.8494   31.4160 C.ar    1  UNL1        0.0131
     51 H          -5.2374   -5.5072   31.7158 H       1  UNL1        0.1660
@<TRIPOS>BOND
     1    28    29    1
     2    29    12    1
     3    12    13    1
     4    13    14    1
     5    14    18    1
     6    18    19   ar
     7    19    20   ar
     8    20    21   ar
     9    21    24    1
    10    24    25    1
    11    24    26    1
    12    24    27    1
    13    21    22   ar
    14    22    23   ar
    15    14    15    1
    16    15    16    1
    17    16    17    1
    18    17     5    1
    19     5     6   ar
    20     6     7   ar
    21     7     8   ar
    22     8     1    1
    23     1     2    2
    24     1     3   am
    25     3    30    1
    26    30    41    1
    27    41    42    1
    28    42    43   ar
    29    43    44   ar
    30    44    45   ar
    31    45    46   ar
    32    46    47   ar
    33    47    48   ar
    34    48    49   ar
    35    49    50   ar
    36    30    31    1
    37    31    32    2
    38    31    33   am
    39    33    35    1
    40    35    36   ar
    41    36    37   ar
    42    37    38   ar
    43    38    39   ar
    44    39    40   ar
    45     8     9   ar
    46     9    10    1
    47     9    11   ar
    48    17    12    1
    49    11     5   ar
    50    23    18   ar
    51    50    42   ar
    52    40    35   ar
    53    50    45   ar
    54     3     4    1
    55    44    51    1
    56    33    34    1
