@<TRIPOS>MOLECULE
*****
 48 53 0 0 0
SMALL
GASTEIGER

@<TRIPOS>ATOM
      1 C          60.0559   87.4935   11.0509 C.2     1  UNL1        0.2480
      2 O          59.2120   87.7549   11.9510 O.2     1  UNL1       -0.2701
      3 N          61.1141   86.5572   11.3055 N.am    1  UNL1       -0.2945
      4 H          61.8534   86.4526   10.5741 H       1  UNL1        0.1501
      5 C          58.8771   86.0998    8.6935 C.3     1  UNL1        0.0313
      6 C          59.4094   87.5071    8.6071 C.ar    1  UNL1       -0.0141
      7 C          59.3607   88.1771    7.3728 C.ar    1  UNL1        0.0106
      8 C          59.8199   89.4971    7.2512 C.ar    1  UNL1        0.0499
      9 C          60.3442   90.1459    8.3755 C.ar    1  UNL1        0.0443
     10 C          60.4144   89.4901    9.6055 C.ar    1  UNL1        0.1454
     11 F          60.9689   90.1389   10.6616 F       1  UNL1       -0.2040
     12 C          59.9564   88.1660    9.7363 C.ar    1  UNL1        0.0769
     13 N          59.7631   90.1807    5.9850 N.pl3   1  UNL1       -0.3040
     14 C          60.9291   90.1963    5.0933 C.3     1  UNL1        0.1122
     15 C          61.0486   91.5572    4.4032 C.3     1  UNL1        0.1122
     16 N          59.7484   91.9649    3.8571 N.pl3   1  UNL1       -0.3040
     17 C          58.5912   91.9520    4.7598 C.3     1  UNL1        0.1122
     18 C          58.4670   90.5833    5.4262 C.3     1  UNL1        0.1122
     19 C          59.6695   92.6547    2.5953 C.ar    1  UNL1        0.0488
     20 C          60.5353   93.7249    2.3221 C.ar    1  UNL1        0.0154
     21 C          60.4607   94.4003    1.1014 C.ar    1  UNL1        0.0135
     22 C          59.5210   94.0169    0.1388 C.ar    1  UNL1        0.0683
     23 CL         59.4574   94.8913   -1.3855 Cl      1  UNL1       -0.0814
     24 C          58.6482   92.9481    0.4033 C.ar    1  UNL1        0.0694
     25 CL         57.4539   92.4326   -0.7799 Cl      1  UNL1       -0.0813
     26 C          58.7245   92.2733    1.6276 C.ar    1  UNL1        0.0268
     27 C          61.3457   85.9878   12.6394 C.3     1  UNL1        0.1535
     28 C          60.7525   84.6031   12.7604 C.2     1  UNL1        0.2443
     29 O          60.7730   84.0013   13.8693 O.2     1  UNL1       -0.2730
     30 N          60.0632   84.0289   11.6382 N.am    1  UNL1       -0.2825
     31 H          59.8780   84.6450   10.8145 H       1  UNL1        0.1549
     32 C          59.4350   82.7371   11.6641 C.ar    1  UNL1        0.0535
     33 C          59.6095   81.8580   12.7457 C.ar    1  UNL1        0.0353
     34 C          58.9905   80.6057   12.7214 C.ar    1  UNL1        0.1002
     35 N          58.2356   80.2379   11.6523 N.ar    1  UNL1       -0.2422
     36 C          58.0640   81.0619   10.5849 C.ar    1  UNL1        0.1002
     37 C          58.6670   82.3217   10.5681 C.ar    1  UNL1        0.0353
     38 C          62.8510   85.9806   12.9699 C.3     1  UNL1        0.0569
     39 C          63.2259   87.0331   13.9763 C.ar    1  UNL1       -0.0017
     40 C          63.3300   86.8607   15.3537 C.ar    1  UNL1        0.0681
     41 N          63.5989   88.0403   15.9580 N.ar    1  UNL1       -0.3523
     42 C          63.6564   88.9568   14.9760 C.ar    1  UNL1        0.0563
     43 C          63.8837   90.3258   15.1108 C.ar    1  UNL1        0.0170
     44 C          63.8776   91.1117   13.9436 C.ar    1  UNL1        0.0015
     45 C          63.6461   90.5187   12.6826 C.ar    1  UNL1        0.0001
     46 C          63.4201   89.1347   12.5768 C.ar    1  UNL1        0.0012
     47 C          63.4322   88.3810   13.7516 C.ar    1  UNL1        0.0131
     48 H          63.7185   88.2045   16.9822 H       1  UNL1        0.1660
@<TRIPOS>BOND
     1     5     6    1
     2     6     7   ar
     3     7     8   ar
     4     8    13    1
     5    13    14    1
     6    14    15    1
     7    15    16    1
     8    16    19    1
     9    19    20   ar
    10    20    21   ar
    11    21    22   ar
    12    22    23    1
    13    22    24   ar
    14    24    25    1
    15    24    26   ar
    16    16    17    1
    17    17    18    1
    18     8     9   ar
    19     9    10   ar
    20    10    11    1
    21    10    12   ar
    22    12     1    1
    23     1     2    2
    24     1     3   am
    25     3    27    1
    26    27    38    1
    27    38    39    1
    28    39    40   ar
    29    40    41   ar
    30    41    42   ar
    31    42    43   ar
    32    43    44   ar
    33    44    45   ar
    34    45    46   ar
    35    46    47   ar
    36    27    28    1
    37    28    29    2
    38    28    30   am
    39    30    32    1
    40    32    33   ar
    41    33    34   ar
    42    34    35   ar
    43    35    36   ar
    44    36    37   ar
    45    12     6   ar
    46    47    39   ar
    47    37    32   ar
    48    18    13    1
    49    47    42   ar
    50    26    19   ar
    51     3     4    1
    52    41    48    1
    53    30    31    1
@<TRIPOS>MOLECULE
*****
 48 53 0 0 0
SMALL
GASTEIGER

@<TRIPOS>ATOM
      1 C          59.5434   87.3198   10.9798 C.2     1  UNL1        0.2480
      2 O          58.9495   87.8363   11.9652 O.2     1  UNL1       -0.2701
      3 N          60.1387   86.0187   11.0986 N.am    1  UNL1       -0.2945
      4 H          60.7144   85.6755   10.2964 H       1  UNL1        0.1501
      5 C          60.8263   90.0085   10.8587 C.3     1  UNL1        0.0313
      6 C          60.2303   89.3509    9.6406 C.ar    1  UNL1       -0.0141
      7 C          60.2686   90.0335    8.4130 C.ar    1  UNL1        0.0106
      8 C          59.7503   89.4494    7.2476 C.ar    1  UNL1        0.0499
      9 C          59.1771   88.1742    7.3176 C.ar    1  UNL1        0.0443
     10 C          59.1166   87.4884    8.5317 C.ar    1  UNL1        0.1454
     11 F          58.5144   86.2719    8.5660 F       1  UNL1       -0.2040
     12 C          59.6338   88.0670    9.7055 C.ar    1  UNL1        0.0769
     13 N          59.7967   90.1515    5.9911 N.pl3   1  UNL1       -0.3040
     14 C          60.9572   90.0141    5.1027 C.3     1  UNL1        0.1122
     15 C          61.2714   91.3538    4.4324 C.3     1  UNL1        0.1122
     16 N          60.0445   91.9490    3.8888 N.pl3   1  UNL1       -0.3040
     17 C          58.8929   92.0877    4.7883 C.3     1  UNL1        0.1122
     18 C          58.5732   90.7413    5.4347 C.3     1  UNL1        0.1122
     19 C          60.0698   92.6604    2.6369 C.ar    1  UNL1        0.0488
     20 C          58.9387   92.6648    1.8062 C.ar    1  UNL1        0.0154
     21 C          58.9588   93.3498    0.5886 C.ar    1  UNL1        0.0135
     22 C          60.1077   94.0380    0.1847 C.ar    1  UNL1        0.0683
     23 CL         60.0946   94.8882   -1.3544 Cl      1  UNL1       -0.0814
     24 C          61.2461   94.0379    1.0082 C.ar    1  UNL1        0.0694
     25 CL         62.7099   94.8919    0.5393 Cl      1  UNL1       -0.0813
     26 C          61.2237   93.3502    2.2274 C.ar    1  UNL1        0.0268
     27 C          60.2122   85.3104   12.3830 C.3     1  UNL1        0.1535
     28 C          59.4898   83.9843   12.3257 C.2     1  UNL1        0.2443
     29 O          58.2822   83.9374   11.9624 O.2     1  UNL1       -0.2730
     30 N          60.2187   82.7711   12.5724 N.am    1  UNL1       -0.2825
     31 H          61.2588   82.8367   12.6525 H       1  UNL1        0.1549
     32 C          59.6325   81.4610   12.5063 C.ar    1  UNL1        0.0535
     33 C          58.9711   81.0108   11.3518 C.ar    1  UNL1        0.0353
     34 C          58.4037   79.7341   11.3376 C.ar    1  UNL1        0.1002
     35 N          58.4815   78.9402   12.4383 N.ar    1  UNL1       -0.2422
     36 C          59.1006   79.3571   13.5743 C.ar    1  UNL1        0.1002
     37 C          59.6792   80.6271   13.6314 C.ar    1  UNL1        0.0353
     38 C          61.6800   85.1277   12.8162 C.3     1  UNL1        0.0569
     39 C          62.2361   86.3465   13.4993 C.ar    1  UNL1       -0.0017
     40 C          62.8587   87.4282   12.8829 C.ar    1  UNL1        0.0681
     41 N          63.3144   88.3013   13.8098 N.ar    1  UNL1       -0.3523
     42 C          62.9933   87.7762   15.0051 C.ar    1  UNL1        0.0563
     43 C          63.2790   88.3041   16.2636 C.ar    1  UNL1        0.0170
     44 C          62.8694   87.5712   17.3927 C.ar    1  UNL1        0.0015
     45 C          62.1922   86.3409   17.2406 C.ar    1  UNL1        0.0001
     46 C          61.9172   85.8328   15.9584 C.ar    1  UNL1        0.0012
     47 C          62.3354   86.5819   14.8573 C.ar    1  UNL1        0.0131
     48 H          63.8277   89.1925   13.6293 H       1  UNL1        0.1660
@<TRIPOS>BOND
     1     5     6    1
     2     6     7   ar
     3     7     8   ar
     4     8    13    1
     5    13    14    1
     6    14    15    1
     7    15    16    1
     8    16    19    1
     9    19    20   ar
    10    20    21   ar
    11    21    22   ar
    12    22    23    1
    13    22    24   ar
    14    24    25    1
    15    24    26   ar
    16    16    17    1
    17    17    18    1
    18     8     9   ar
    19     9    10   ar
    20    10    11    1
    21    10    12   ar
    22    12     1    1
    23     1     2    2
    24     1     3   am
    25     3    27    1
    26    27    38    1
    27    38    39    1
    28    39    40   ar
    29    40    41   ar
    30    41    42   ar
    31    42    43   ar
    32    43    44   ar
    33    44    45   ar
    34    45    46   ar
    35    46    47   ar
    36    27    28    1
    37    28    29    2
    38    28    30   am
    39    30    32    1
    40    32    33   ar
    41    33    34   ar
    42    34    35   ar
    43    35    36   ar
    44    36    37   ar
    45    12     6   ar
    46    47    39   ar
    47    37    32   ar
    48    18    13    1
    49    47    42   ar
    50    26    19   ar
    51     3     4    1
    52    41    48    1
    53    30    31    1
@<TRIPOS>MOLECULE
*****
 48 53 0 0 0
SMALL
GASTEIGER

@<TRIPOS>ATOM
      1 C          59.5665   87.4465   10.9944 C.2     1  UNL1        0.2480
      2 O          59.0889   88.0271   12.0070 O.2     1  UNL1       -0.2701
      3 N          60.0164   86.0864   11.0891 N.am    1  UNL1       -0.2945
      4 H          60.5054   85.6801   10.2594 H       1  UNL1        0.1501
      5 C          60.9877   90.0622   10.8268 C.3     1  UNL1        0.0313
      6 C          60.3342   89.4284    9.6257 C.ar    1  UNL1       -0.0141
      7 C          60.3851   90.0990    8.3919 C.ar    1  UNL1        0.0106
      8 C          59.8141   89.5348    7.2413 C.ar    1  UNL1        0.0499
      9 C          59.1756   88.2924    7.3328 C.ar    1  UNL1        0.0443
     10 C          59.1022   87.6197    8.5534 C.ar    1  UNL1        0.1454
     11 F          58.4370   86.4373    8.6092 F       1  UNL1       -0.2040
     12 C          59.6718   88.1785    9.7124 C.ar    1  UNL1        0.0769
     13 N          59.8735   90.2243    5.9784 N.pl3   1  UNL1       -0.3040
     14 C          61.0532   90.0967    5.1141 C.3     1  UNL1        0.1122
     15 C          61.3585   91.4342    4.4354 C.3     1  UNL1        0.1122
     16 N          60.1328   92.0033    3.8619 N.pl3   1  UNL1       -0.3040
     17 C          58.9619   92.1325    4.7374 C.3     1  UNL1        0.1122
     18 C          58.6516   90.7880    5.3922 C.3     1  UNL1        0.1122
     19 C          60.1709   92.7017    2.6029 C.ar    1  UNL1        0.0488
     20 C          59.0443   92.7073    1.7661 C.ar    1  UNL1        0.0154
     21 C          59.0768   93.3797    0.5419 C.ar    1  UNL1        0.0135
     22 C          60.2336   94.0540    0.1373 C.ar    1  UNL1        0.0683
     23 CL         60.2360   94.8887   -1.4104 Cl      1  UNL1       -0.0814
     24 C          61.3675   94.0527    0.9669 C.ar    1  UNL1        0.0694
     25 CL         62.8411   94.8896    0.4974 Cl      1  UNL1       -0.0813
     26 C          61.3327   93.3776    2.1928 C.ar    1  UNL1        0.0268
     27 C          60.0786   85.3745   12.3722 C.3     1  UNL1        0.1535
     28 C          59.3055   84.0769   12.3229 C.2     1  UNL1        0.2443
     29 O          58.1115   84.0366   12.7291 O.2     1  UNL1       -0.2730
     30 N          59.8984   82.9241   11.7037 N.am    1  UNL1       -0.2825
     31 H          60.7967   83.0582   11.1864 H       1  UNL1        0.1549
     32 C          59.2329   81.6573   11.5745 C.ar    1  UNL1        0.0535
     33 C          59.3726   80.6529   12.5464 C.ar    1  UNL1        0.0353
     34 C          58.7179   79.4310   12.3721 C.ar    1  UNL1        0.1002
     35 N          57.9621   79.2135   11.2634 N.ar    1  UNL1       -0.2422
     36 C          57.8236   80.1615   10.2991 C.ar    1  UNL1        0.1002
     37 C          58.4629   81.3962   10.4334 C.ar    1  UNL1        0.0353
     38 C          61.5436   85.1356   12.7872 C.3     1  UNL1        0.0569
     39 C          61.9137   85.8694   14.0465 C.ar    1  UNL1       -0.0017
     40 C          61.5086   85.5497   15.3393 C.ar    1  UNL1        0.0681
     41 N          61.9562   86.4764   16.2168 N.ar    1  UNL1       -0.3523
     42 C          62.6319   87.3824   15.4887 C.ar    1  UNL1        0.0563
     43 C          63.2566   88.5404   15.9500 C.ar    1  UNL1        0.0170
     44 C          63.8905   89.3673   15.0042 C.ar    1  UNL1        0.0015
     45 C          63.8849   89.0228   13.6343 C.ar    1  UNL1        0.0001
     46 C          63.2470   87.8479   13.1977 C.ar    1  UNL1        0.0012
     47 C          62.6270   87.0476   14.1587 C.ar    1  UNL1        0.0131
     48 H          61.7920   86.4910   17.2479 H       1  UNL1        0.1660
@<TRIPOS>BOND
     1     5     6    1
     2     6     7   ar
     3     7     8   ar
     4     8    13    1
     5    13    14    1
     6    14    15    1
     7    15    16    1
     8    16    19    1
     9    19    20   ar
    10    20    21   ar
    11    21    22   ar
    12    22    23    1
    13    22    24   ar
    14    24    25    1
    15    24    26   ar
    16    16    17    1
    17    17    18    1
    18     8     9   ar
    19     9    10   ar
    20    10    11    1
    21    10    12   ar
    22    12     1    1
    23     1     2    2
    24     1     3   am
    25     3    27    1
    26    27    38    1
    27    38    39    1
    28    39    40   ar
    29    40    41   ar
    30    41    42   ar
    31    42    43   ar
    32    43    44   ar
    33    44    45   ar
    34    45    46   ar
    35    46    47   ar
    36    27    28    1
    37    28    29    2
    38    28    30   am
    39    30    32    1
    40    32    33   ar
    41    33    34   ar
    42    34    35   ar
    43    35    36   ar
    44    36    37   ar
    45    12     6   ar
    46    47    39   ar
    47    37    32   ar
    48    18    13    1
    49    47    42   ar
    50    26    19   ar
    51     3     4    1
    52    41    48    1
    53    30    31    1
@<TRIPOS>MOLECULE
*****
 48 53 0 0 0
SMALL
GASTEIGER

@<TRIPOS>ATOM
      1 C          59.8036   87.4295   11.0710 C.2     1  UNL1        0.2480
      2 O          58.8898   87.6731   11.9053 O.2     1  UNL1       -0.2701
      3 N          60.8477   86.4995   11.3970 N.am    1  UNL1       -0.2945
      4 H          61.6426   86.4100   10.7242 H       1  UNL1        0.1501
      5 C          58.8901   86.0303    8.6016 C.3     1  UNL1        0.0313
      6 C          59.3799   87.4555    8.5789 C.ar    1  UNL1       -0.0141
      7 C          59.4200   88.1404    7.3526 C.ar    1  UNL1        0.0106
      8 C          59.8431   89.4763    7.2872 C.ar    1  UNL1        0.0499
      9 C          60.2415   90.1265    8.4612 C.ar    1  UNL1        0.0443
     10 C          60.2228   89.4565    9.6855 C.ar    1  UNL1        0.1454
     11 F          60.6575   90.1086   10.7942 F       1  UNL1       -0.2040
     12 C          59.8002   88.1164    9.7600 C.ar    1  UNL1        0.0769
     13 N          59.8775   90.1750    6.0284 N.pl3   1  UNL1       -0.3040
     14 C          61.0208   90.0202    5.1209 C.3     1  UNL1        0.1122
     15 C          61.3414   91.3541    4.4421 C.3     1  UNL1        0.1122
     16 N          60.1134   91.9645    3.9180 N.pl3   1  UNL1       -0.3040
     17 C          58.9793   92.1205    4.8365 C.3     1  UNL1        0.1122
     18 C          58.6526   90.7799    5.4915 C.3     1  UNL1        0.1122
     19 C          60.1270   92.6727    2.6640 C.ar    1  UNL1        0.0488
     20 C          58.9867   92.6784    1.8459 C.ar    1  UNL1        0.0154
     21 C          58.9953   93.3604    0.6266 C.ar    1  UNL1        0.0135
     22 C          60.1417   94.0442    0.2082 C.ar    1  UNL1        0.0683
     23 CL         60.1141   94.8907   -1.3328 Cl      1  UNL1       -0.0814
     24 C          61.2891   94.0428    1.0190 C.ar    1  UNL1        0.0694
     25 CL         62.7502   94.8913    0.5318 Cl      1  UNL1       -0.0813
     26 C          61.2782   93.3581    2.2401 C.ar    1  UNL1        0.0268
     27 C          60.9803   85.9167   12.7385 C.3     1  UNL1        0.1535
     28 C          60.1727   84.6463   12.8720 C.2     1  UNL1        0.2443
     29 O          58.9631   84.7005   13.2272 O.2     1  UNL1       -0.2730
     30 N          60.7559   83.3935   12.4791 N.am    1  UNL1       -0.2825
     31 H          61.6771   83.4196   11.9860 H       1  UNL1        0.1549
     32 C          60.0598   82.1378   12.5334 C.ar    1  UNL1        0.0535
     33 C          59.0417   81.8234   11.6182 C.ar    1  UNL1        0.0353
     34 C          58.3822   80.5957   11.7177 C.ar    1  UNL1        0.1002
     35 N          58.7162   79.7190   12.7014 N.ar    1  UNL1       -0.2422
     36 C          59.6855   80.0048   13.6105 C.ar    1  UNL1        0.1002
     37 C          60.3681   81.2218   13.5479 C.ar    1  UNL1        0.0353
     38 C          62.4638   85.6727   13.0774 C.3     1  UNL1        0.0569
     39 C          63.0538   86.7753   13.9127 C.ar    1  UNL1       -0.0017
     40 C          63.3551   86.7135   15.2703 C.ar    1  UNL1        0.0681
     41 N          63.7875   87.9161   15.7129 N.ar    1  UNL1       -0.3523
     42 C          63.7531   88.7382   14.6496 C.ar    1  UNL1        0.0563
     43 C          64.0849   90.0920   14.6178 C.ar    1  UNL1        0.0170
     44 C          63.9513   90.7735   13.3940 C.ar    1  UNL1        0.0015
     45 C          63.4933   90.0947   12.2430 C.ar    1  UNL1        0.0001
     46 C          63.1661   88.7283   12.3046 C.ar    1  UNL1        0.0012
     47 C          63.3089   88.0790   13.5320 C.ar    1  UNL1        0.0131
     48 H          64.0717   88.1574   16.6882 H       1  UNL1        0.1660
@<TRIPOS>BOND
     1     5     6    1
     2     6     7   ar
     3     7     8   ar
     4     8    13    1
     5    13    14    1
     6    14    15    1
     7    15    16    1
     8    16    19    1
     9    19    20   ar
    10    20    21   ar
    11    21    22   ar
    12    22    23    1
    13    22    24   ar
    14    24    25    1
    15    24    26   ar
    16    16    17    1
    17    17    18    1
    18     8     9   ar
    19     9    10   ar
    20    10    11    1
    21    10    12   ar
    22    12     1    1
    23     1     2    2
    24     1     3   am
    25     3    27    1
    26    27    38    1
    27    38    39    1
    28    39    40   ar
    29    40    41   ar
    30    41    42   ar
    31    42    43   ar
    32    43    44   ar
    33    44    45   ar
    34    45    46   ar
    35    46    47   ar
    36    27    28    1
    37    28    29    2
    38    28    30   am
    39    30    32    1
    40    32    33   ar
    41    33    34   ar
    42    34    35   ar
    43    35    36   ar
    44    36    37   ar
    45    12     6   ar
    46    47    39   ar
    47    37    32   ar
    48    18    13    1
    49    47    42   ar
    50    26    19   ar
    51     3     4    1
    52    41    48    1
    53    30    31    1
@<TRIPOS>MOLECULE
*****
 48 53 0 0 0
SMALL
GASTEIGER

@<TRIPOS>ATOM
      1 C          59.7355   85.8727    9.8149 C.2     1  UNL1        0.2480
      2 O          58.5371   86.1859    9.5780 O.2     1  UNL1       -0.2701
      3 N          60.2346   84.5849    9.4228 N.am    1  UNL1       -0.2945
      4 H          61.1974   84.3240    9.7351 H       1  UNL1        0.1501
      5 C          60.1918   88.6102    8.7252 C.3     1  UNL1        0.0313
      6 C          60.8530   88.1333    9.9928 C.ar    1  UNL1       -0.0141
      7 C          61.7225   89.0021   10.6738 C.ar    1  UNL1        0.0106
      8 C          62.3394   88.6110   11.8715 C.ar    1  UNL1        0.0499
      9 C          62.0913   87.3320   12.3834 C.ar    1  UNL1        0.0443
     10 C          61.2427   86.4505   11.7120 C.ar    1  UNL1        0.1454
     11 F          61.0616   85.2038   12.2187 F       1  UNL1       -0.2040
     12 C          60.6201   86.8345   10.5099 C.ar    1  UNL1        0.0769
     13 N          63.2258   89.5074   12.5678 N.pl3   1  UNL1       -0.3040
     14 C          63.5896   90.8022   11.9795 C.3     1  UNL1        0.1122
     15 C          65.0555   91.1255   12.2788 C.3     1  UNL1        0.1122
     16 N          65.3446   90.9001   13.7003 N.pl3   1  UNL1       -0.3040
     17 C          64.9827   89.5992   14.2757 C.3     1  UNL1        0.1122
     18 C          63.5130   89.2959   13.9915 C.3     1  UNL1        0.1122
     19 C          66.2326   91.7810   14.4141 C.ar    1  UNL1        0.0488
     20 C          65.7371   92.6017   15.4390 C.ar    1  UNL1        0.0154
     21 C          66.5931   93.4612   16.1322 C.ar    1  UNL1        0.0135
     22 C          67.9535   93.5129   15.8110 C.ar    1  UNL1        0.0683
     23 CL         68.9993   94.6073   16.7058 Cl      1  UNL1       -0.0814
     24 C          68.4592   92.6968   14.7852 C.ar    1  UNL1        0.0694
     25 CL         70.1629   92.7292   14.3511 Cl      1  UNL1       -0.0813
     26 C          67.5992   91.8369   14.0915 C.ar    1  UNL1        0.0268
     27 C          59.3559   83.5428    8.8761 C.3     1  UNL1        0.1535
     28 C          60.0155   82.1839    8.9197 C.2     1  UNL1        0.2443
     29 O          59.8803   81.3842    7.9530 O.2     1  UNL1       -0.2730
     30 N          60.8904   81.8576   10.0116 N.am    1  UNL1       -0.2825
     31 H          61.1478   82.6241   10.6740 H       1  UNL1        0.1549
     32 C          61.5919   80.6090   10.1258 C.ar    1  UNL1        0.0535
     33 C          62.1376   79.9687    9.0010 C.ar    1  UNL1        0.0353
     34 C          62.7995   78.7483    9.1575 C.ar    1  UNL1        0.1002
     35 N          62.9026   78.1806   10.3884 N.ar    1  UNL1       -0.2422
     36 C          62.3691   78.7698   11.4910 C.ar    1  UNL1        0.1002
     37 C          61.6974   79.9894   11.3781 C.ar    1  UNL1        0.0353
     38 C          58.0050   83.5312    9.6181 C.3     1  UNL1        0.0569
     39 C          58.1135   82.9613   11.0054 C.ar    1  UNL1       -0.0017
     40 C          58.2619   83.6829   12.1866 C.ar    1  UNL1        0.0681
     41 N          58.4172   82.8438   13.2358 N.ar    1  UNL1       -0.3523
     42 C          58.3774   81.6001   12.7267 C.ar    1  UNL1        0.0563
     43 C          58.5194   80.3988   13.4200 C.ar    1  UNL1        0.0170
     44 C          58.4697   79.2027   12.6806 C.ar    1  UNL1        0.0015
     45 C          58.2824   79.2337   11.2808 C.ar    1  UNL1        0.0001
     46 C          58.1417   80.4605   10.6078 C.ar    1  UNL1        0.0012
     47 C          58.1950   81.6303   11.3677 C.ar    1  UNL1        0.0131
     48 H          58.5579   83.1125   14.2350 H       1  UNL1        0.1660
@<TRIPOS>BOND
     1     5     6    1
     2     6     7   ar
     3     7     8   ar
     4     8    13    1
     5    13    14    1
     6    14    15    1
     7    15    16    1
     8    16    19    1
     9    19    20   ar
    10    20    21   ar
    11    21    22   ar
    12    22    23    1
    13    22    24   ar
    14    24    25    1
    15    24    26   ar
    16    16    17    1
    17    17    18    1
    18     8     9   ar
    19     9    10   ar
    20    10    11    1
    21    10    12   ar
    22    12     1    1
    23     1     2    2
    24     1     3   am
    25     3    27    1
    26    27    38    1
    27    38    39    1
    28    39    40   ar
    29    40    41   ar
    30    41    42   ar
    31    42    43   ar
    32    43    44   ar
    33    44    45   ar
    34    45    46   ar
    35    46    47   ar
    36    27    28    1
    37    28    29    2
    38    28    30   am
    39    30    32    1
    40    32    33   ar
    41    33    34   ar
    42    34    35   ar
    43    35    36   ar
    44    36    37   ar
    45    12     6   ar
    46    47    39   ar
    47    37    32   ar
    48    18    13    1
    49    47    42   ar
    50    26    19   ar
    51     3     4    1
    52    41    48    1
    53    30    31    1
@<TRIPOS>MOLECULE
*****
 48 53 0 0 0
SMALL
GASTEIGER

@<TRIPOS>ATOM
      1 C          59.6276   86.3599    9.1905 C.2     1  UNL1        0.2480
      2 O          58.5249   86.7677    8.7341 O.2     1  UNL1       -0.2701
      3 N          60.0092   84.9851    9.0309 N.am    1  UNL1       -0.2945
      4 H          60.8766   84.6645    9.5183 H       1  UNL1        0.1501
      5 C          60.1485   89.0927    8.1180 C.3     1  UNL1        0.0313
      6 C          60.7830   88.5993    9.3928 C.ar    1  UNL1       -0.0141
      7 C          61.6583   89.4498   10.0893 C.ar    1  UNL1        0.0106
      8 C          62.2511   89.0432   11.2941 C.ar    1  UNL1        0.0499
      9 C          61.9727   87.7670   11.7975 C.ar    1  UNL1        0.0443
     10 C          61.1179   86.9035   11.1107 C.ar    1  UNL1        0.1454
     11 F          60.9073   85.6585   11.6100 F       1  UNL1       -0.2040
     12 C          60.5194   87.3030    9.9015 C.ar    1  UNL1        0.0769
     13 N          63.1435   89.9209   12.0063 N.pl3   1  UNL1       -0.3040
     14 C          63.6327   91.1550   11.3798 C.3     1  UNL1        0.1122
     15 C          65.0920   91.4031   11.7693 C.3     1  UNL1        0.1122
     16 N          65.2648   91.2413   13.2182 N.pl3   1  UNL1       -0.3040
     17 C          64.7781   90.0002   13.8322 C.3     1  UNL1        0.1122
     18 C          63.3151   89.7732   13.4565 C.3     1  UNL1        0.1122
     19 C          66.1566   92.1044   13.9487 C.ar    1  UNL1        0.0488
     20 C          66.1878   93.4803   13.6738 C.ar    1  UNL1        0.0154
     21 C          67.0538   94.3218   14.3765 C.ar    1  UNL1        0.0135
     22 C          67.8996   93.8010   15.3614 C.ar    1  UNL1        0.0683
     23 CL         68.9755   94.8918   16.2243 Cl      1  UNL1       -0.0814
     24 C          67.8774   92.4246   15.6428 C.ar    1  UNL1        0.0694
     25 CL         68.9224   91.7294   16.8744 Cl      1  UNL1       -0.0813
     26 C          67.0093   91.5833   14.9368 C.ar    1  UNL1        0.0268
     27 C          59.0918   83.9819    8.4753 C.3     1  UNL1        0.1535
     28 C          59.6649   82.5878    8.5838 C.2     1  UNL1        0.2443
     29 O          59.5031   81.7627    7.6429 O.2     1  UNL1       -0.2730
     30 N          60.4920   82.2492    9.7086 N.am    1  UNL1       -0.2825
     31 H          60.7808   83.0224   10.3499 H       1  UNL1        0.1549
     32 C          61.1121   80.9652    9.8848 C.ar    1  UNL1        0.0535
     33 C          60.4079   79.8792   10.4306 C.ar    1  UNL1        0.0353
     34 C          61.0558   78.6525   10.5966 C.ar    1  UNL1        0.1002
     35 N          62.3615   78.5168   10.2436 N.ar    1  UNL1       -0.2422
     36 C          63.0715   79.5556    9.7292 C.ar    1  UNL1        0.1002
     37 C          62.4623   80.7995    9.5487 C.ar    1  UNL1        0.0353
     38 C          57.7133   84.0730    9.1587 C.3     1  UNL1        0.0569
     39 C          57.7877   83.8362   10.6418 C.ar    1  UNL1       -0.0017
     40 C          57.9366   82.6063   11.2765 C.ar    1  UNL1        0.0681
     41 N          57.8739   82.7574   12.6191 N.ar    1  UNL1       -0.3523
     42 C          57.6777   84.0695   12.8370 C.ar    1  UNL1        0.0563
     43 C          57.5226   84.7073   14.0670 C.ar    1  UNL1        0.0170
     44 C          57.3007   86.0968   14.0642 C.ar    1  UNL1        0.0015
     45 C          57.2384   86.8093   12.8461 C.ar    1  UNL1        0.0001
     46 C          57.3989   86.1395   11.6199 C.ar    1  UNL1        0.0012
     47 C          57.6178   84.7613   11.6542 C.ar    1  UNL1        0.0131
     48 H          57.9453   82.0023   13.3366 H       1  UNL1        0.1660
@<TRIPOS>BOND
     1     5     6    1
     2     6     7   ar
     3     7     8   ar
     4     8    13    1
     5    13    14    1
     6    14    15    1
     7    15    16    1
     8    16    19    1
     9    19    20   ar
    10    20    21   ar
    11    21    22   ar
    12    22    23    1
    13    22    24   ar
    14    24    25    1
    15    24    26   ar
    16    16    17    1
    17    17    18    1
    18     8     9   ar
    19     9    10   ar
    20    10    11    1
    21    10    12   ar
    22    12     1    1
    23     1     2    2
    24     1     3   am
    25     3    27    1
    26    27    38    1
    27    38    39    1
    28    39    40   ar
    29    40    41   ar
    30    41    42   ar
    31    42    43   ar
    32    43    44   ar
    33    44    45   ar
    34    45    46   ar
    35    46    47   ar
    36    27    28    1
    37    28    29    2
    38    28    30   am
    39    30    32    1
    40    32    33   ar
    41    33    34   ar
    42    34    35   ar
    43    35    36   ar
    44    36    37   ar
    45    12     6   ar
    46    47    39   ar
    47    37    32   ar
    48    18    13    1
    49    47    42   ar
    50    26    19   ar
    51     3     4    1
    52    41    48    1
    53    30    31    1
@<TRIPOS>MOLECULE
*****
 48 53 0 0 0
SMALL
GASTEIGER

@<TRIPOS>ATOM
      1 C          59.0311   84.8116   12.6777 C.2     1  UNL1        0.2480
      2 O          57.8348   85.1366   12.4456 O.2     1  UNL1       -0.2701
      3 N          59.4231   83.4309   12.6388 N.am    1  UNL1       -0.2945
      4 H          60.3946   83.1955   12.9444 H       1  UNL1        0.1501
      5 C          60.5106   86.2501   10.5256 C.3     1  UNL1        0.0313
      6 C          60.7421   86.5394   11.9865 C.ar    1  UNL1       -0.0141
      7 C          61.6954   87.5078   12.3444 C.ar    1  UNL1        0.0106
      8 C          61.9252   87.8292   13.6905 C.ar    1  UNL1        0.0499
      9 C          61.2008   87.1637   14.6865 C.ar    1  UNL1        0.0443
     10 C          60.2613   86.1882   14.3497 C.ar    1  UNL1        0.1454
     11 F          59.6105   85.5355   15.3467 F       1  UNL1       -0.2040
     12 C          60.0248   85.8593   13.0021 C.ar    1  UNL1        0.0769
     13 N          62.8999   88.8260   14.0513 N.pl3   1  UNL1       -0.3040
     14 C          62.9425   90.1151   13.3505 C.3     1  UNL1        0.1122
     15 C          64.3927   90.5678   13.1639 C.3     1  UNL1        0.1122
     16 N          65.1315   90.4360   14.4256 N.pl3   1  UNL1       -0.3040
     17 C          65.0874   89.1403   15.1137 C.3     1  UNL1        0.1122
     18 C          63.6364   88.7080   15.3155 C.3     1  UNL1        0.1122
     19 C          66.1147   91.4184   14.8029 C.ar    1  UNL1        0.0488
     20 C          65.7990   92.4023   15.7525 C.ar    1  UNL1        0.0154
     21 C          66.7474   93.3603   16.1194 C.ar    1  UNL1        0.0135
     22 C          68.0219   93.3489   15.5430 C.ar    1  UNL1        0.0683
     23 CL         69.1884   94.5711   16.0303 Cl      1  UNL1       -0.0814
     24 C          68.3472   92.3692   14.5899 C.ar    1  UNL1        0.0694
     25 CL         69.9382   92.3176   13.8427 Cl      1  UNL1       -0.0813
     26 C          67.3949   91.4108   14.2233 C.ar    1  UNL1        0.0268
     27 C          58.4442   82.3479   12.4786 C.3     1  UNL1        0.1535
     28 C          58.3884   81.8594   11.0496 C.2     1  UNL1        0.2443
     29 O          57.8781   80.7361   10.7849 O.2     1  UNL1       -0.2730
     30 N          58.8111   82.7302    9.9880 N.am    1  UNL1       -0.2825
     31 H          59.0185   83.7258   10.2294 H       1  UNL1        0.1549
     32 C          58.7630   82.3736    8.5970 C.ar    1  UNL1        0.0535
     33 C          57.7087   81.6082    8.0721 C.ar    1  UNL1        0.0353
     34 C          57.7106   81.2731    6.7157 C.ar    1  UNL1        0.1002
     35 N          58.7326   81.6753    5.9146 N.ar    1  UNL1       -0.2422
     36 C          59.7738   82.4021    6.3998 C.ar    1  UNL1        0.1002
     37 C          59.8117   82.7567    7.7503 C.ar    1  UNL1        0.0353
     38 C          58.7523   81.1928   13.4514 C.3     1  UNL1        0.0569
     39 C          60.1943   80.7688   13.4055 C.ar    1  UNL1       -0.0017
     40 C          60.6875   79.5670   12.9054 C.ar    1  UNL1        0.0681
     41 N          62.0224   79.4845   13.1063 N.ar    1  UNL1       -0.3523
     42 C          62.3745   80.6187   13.7364 C.ar    1  UNL1        0.0563
     43 C          63.6472   80.9803   14.1763 C.ar    1  UNL1        0.0170
     44 C          63.7881   82.2124   14.8410 C.ar    1  UNL1        0.0015
     45 C          62.6667   83.0456   15.0497 C.ar    1  UNL1        0.0001
     46 C          61.3945   82.6552   14.5946 C.ar    1  UNL1        0.0012
     47 C          61.2857   81.4279   13.9386 C.ar    1  UNL1        0.0131
     48 H          62.6461   78.6904   12.8406 H       1  UNL1        0.1660
@<TRIPOS>BOND
     1     5     6    1
     2     6     7   ar
     3     7     8   ar
     4     8    13    1
     5    13    14    1
     6    14    15    1
     7    15    16    1
     8    16    19    1
     9    19    20   ar
    10    20    21   ar
    11    21    22   ar
    12    22    23    1
    13    22    24   ar
    14    24    25    1
    15    24    26   ar
    16    16    17    1
    17    17    18    1
    18     8     9   ar
    19     9    10   ar
    20    10    11    1
    21    10    12   ar
    22    12     1    1
    23     1     2    2
    24     1     3   am
    25     3    27    1
    26    27    38    1
    27    38    39    1
    28    39    40   ar
    29    40    41   ar
    30    41    42   ar
    31    42    43   ar
    32    43    44   ar
    33    44    45   ar
    34    45    46   ar
    35    46    47   ar
    36    27    28    1
    37    28    29    2
    38    28    30   am
    39    30    32    1
    40    32    33   ar
    41    33    34   ar
    42    34    35   ar
    43    35    36   ar
    44    36    37   ar
    45    12     6   ar
    46    47    39   ar
    47    37    32   ar
    48    18    13    1
    49    47    42   ar
    50    26    19   ar
    51     3     4    1
    52    41    48    1
    53    30    31    1
@<TRIPOS>MOLECULE
*****
 48 53 0 0 0
SMALL
GASTEIGER

@<TRIPOS>ATOM
      1 C          58.5304   87.1043   11.9208 C.2     1  UNL1        0.2480
      2 O          57.3743   87.3942   12.3330 O.2     1  UNL1       -0.2701
      3 N          58.7239   85.9783   11.0513 N.am    1  UNL1       -0.2945
      4 H          59.7073   85.7075   10.8228 H       1  UNL1        0.1501
      5 C          59.9739   88.8570    9.9884 C.3     1  UNL1        0.0313
      6 C          60.3870   88.7494   11.4338 C.ar    1  UNL1       -0.0141
      7 C          61.4961   89.4881   11.8800 C.ar    1  UNL1        0.0106
      8 C          61.9007   89.4399   13.2224 C.ar    1  UNL1        0.0499
      9 C          61.1936   88.6334   14.1220 C.ar    1  UNL1        0.0443
     10 C          60.0992   87.8811   13.6926 C.ar    1  UNL1        0.1454
     11 F          59.4665   87.0786   14.5866 F       1  UNL1       -0.2040
     12 C          59.6869   87.9232   12.3479 C.ar    1  UNL1        0.0769
     13 N          63.0350   90.2029   13.6753 N.pl3   1  UNL1       -0.3040
     14 C          63.5684   91.3009   12.8600 C.3     1  UNL1        0.1122
     15 C          65.0961   91.3322   12.9498 C.3     1  UNL1        0.1122
     16 N          65.5239   91.2329   14.3505 N.pl3   1  UNL1       -0.3040
     17 C          64.9895   90.1269   15.1539 C.3     1  UNL1        0.1122
     18 C          63.4641   90.1178   15.0763 C.3     1  UNL1        0.1122
     19 C          66.6592   91.9828   14.8228 C.ar    1  UNL1        0.0488
     20 C          66.5112   92.8939   15.8799 C.ar    1  UNL1        0.0154
     21 C          67.6081   93.6270   16.3397 C.ar    1  UNL1        0.0135
     22 C          68.8656   93.4607   15.7500 C.ar    1  UNL1        0.0683
     23 CL         70.2220   94.4014   16.3561 Cl      1  UNL1       -0.0814
     24 C          69.0238   92.5526   14.6897 C.ar    1  UNL1        0.0694
     25 CL         70.5873   92.3116   13.9219 Cl      1  UNL1       -0.0813
     26 C          67.9230   91.8196   14.2303 C.ar    1  UNL1        0.0268
     27 C          57.6350   85.0467   10.7298 C.3     1  UNL1        0.1535
     28 C          57.9253   84.2715    9.4655 C.2     1  UNL1        0.2443
     29 O          58.1303   84.8839    8.3814 O.2     1  UNL1       -0.2730
     30 N          58.0824   82.8449    9.5314 N.am    1  UNL1       -0.2825
     31 H          58.1232   82.4037   10.4780 H       1  UNL1        0.1549
     32 C          58.3947   82.0236    8.3947 C.ar    1  UNL1        0.0535
     33 C          57.4482   81.7755    7.3869 C.ar    1  UNL1        0.0353
     34 C          57.7916   80.9588    6.3065 C.ar    1  UNL1        0.1002
     35 N          59.0288   80.3995    6.2396 N.ar    1  UNL1       -0.2422
     36 C          59.9580   80.6090    7.2093 C.ar    1  UNL1        0.1002
     37 C          59.6549   81.4172    8.3075 C.ar    1  UNL1        0.0353
     38 C          57.3666   84.0995   11.9157 C.3     1  UNL1        0.0569
     39 C          58.6274   83.4925   12.4663 C.ar    1  UNL1       -0.0017
     40 C          59.7278   84.1830   12.9664 C.ar    1  UNL1        0.0681
     41 N          60.7177   83.3209   13.2922 N.ar    1  UNL1       -0.3523
     42 C          60.2557   82.0941   12.9939 C.ar    1  UNL1        0.0563
     43 C          60.9295   80.8813   13.1321 C.ar    1  UNL1        0.0170
     44 C          60.2623   79.7087   12.7323 C.ar    1  UNL1        0.0015
     45 C          58.9522   79.7739   12.2082 C.ar    1  UNL1        0.0001
     46 C          58.2967   81.0116   12.0805 C.ar    1  UNL1        0.0012
     47 C          58.9834   82.1574   12.4856 C.ar    1  UNL1        0.0131
     48 H          61.6562   83.5650   13.6795 H       1  UNL1        0.1660
@<TRIPOS>BOND
     1     5     6    1
     2     6     7   ar
     3     7     8   ar
     4     8    13    1
     5    13    14    1
     6    14    15    1
     7    15    16    1
     8    16    19    1
     9    19    20   ar
    10    20    21   ar
    11    21    22   ar
    12    22    23    1
    13    22    24   ar
    14    24    25    1
    15    24    26   ar
    16    16    17    1
    17    17    18    1
    18     8     9   ar
    19     9    10   ar
    20    10    11    1
    21    10    12   ar
    22    12     1    1
    23     1     2    2
    24     1     3   am
    25     3    27    1
    26    27    38    1
    27    38    39    1
    28    39    40   ar
    29    40    41   ar
    30    41    42   ar
    31    42    43   ar
    32    43    44   ar
    33    44    45   ar
    34    45    46   ar
    35    46    47   ar
    36    27    28    1
    37    28    29    2
    38    28    30   am
    39    30    32    1
    40    32    33   ar
    41    33    34   ar
    42    34    35   ar
    43    35    36   ar
    44    36    37   ar
    45    12     6   ar
    46    47    39   ar
    47    37    32   ar
    48    18    13    1
    49    47    42   ar
    50    26    19   ar
    51     3     4    1
    52    41    48    1
    53    30    31    1
@<TRIPOS>MOLECULE
*****
 48 53 0 0 0
SMALL
GASTEIGER

@<TRIPOS>ATOM
      1 C          59.4985   87.5271   10.9801 C.2     1  UNL1        0.2480
      2 O          58.7330   86.5304   11.0848 O.2     1  UNL1       -0.2701
      3 N          60.2746   87.9611   12.1073 N.am    1  UNL1       -0.2945
      4 H          60.8097   88.8538   12.0108 H       1  UNL1        0.1501
      5 C          60.0899   90.4483   10.8968 C.3     1  UNL1        0.0313
      6 C          59.8507   89.6445    9.6446 C.ar    1  UNL1       -0.0141
      7 C          59.8942   90.2963    8.4004 C.ar    1  UNL1        0.0106
      8 C          59.7041   89.5838    7.2070 C.ar    1  UNL1        0.0499
      9 C          59.4557   88.2073    7.2636 C.ar    1  UNL1        0.0443
     10 C          59.3937   87.5467    8.4915 C.ar    1  UNL1        0.1454
     11 F          59.1081   86.2193    8.5060 F       1  UNL1       -0.2040
     12 C          59.5827   88.2537    9.6934 C.ar    1  UNL1        0.0769
     13 N          59.7547   90.2560    5.9344 N.pl3   1  UNL1       -0.3040
     14 C          60.9432   90.1460    5.0799 C.3     1  UNL1        0.1122
     15 C          61.2191   91.4808    4.3835 C.3     1  UNL1        0.1122
     16 N          59.9833   92.0100    3.7936 N.pl3   1  UNL1       -0.3040
     17 C          58.8035   92.1220    4.6595 C.3     1  UNL1        0.1122
     18 C          58.5229   90.7797    5.3320 C.3     1  UNL1        0.1122
     19 C          60.0123   92.6907    2.5248 C.ar    1  UNL1        0.0488
     20 C          61.0899   93.5290    2.1996 C.ar    1  UNL1        0.0154
     21 C          61.1215   94.1950    0.9718 C.ar    1  UNL1        0.0135
     22 C          60.0784   94.0334    0.0540 C.ar    1  UNL1        0.0683
     23 CL         60.1538   94.8883   -1.4808 Cl      1  UNL1       -0.0814
     24 C          58.9940   93.1980    0.3708 C.ar    1  UNL1        0.0694
     25 CL         57.6634   92.9654   -0.7550 Cl      1  UNL1       -0.0813
     26 C          58.9643   92.5323    1.6020 C.ar    1  UNL1        0.0268
     27 C          60.1055   87.3722   13.4420 C.3     1  UNL1        0.1535
     28 C          61.1150   86.2765   13.6952 C.2     1  UNL1        0.2443
     29 O          60.8623   85.3645   14.5298 O.2     1  UNL1       -0.2730
     30 N          62.3075   86.2158   12.8962 N.am    1  UNL1       -0.2825
     31 H          62.3740   86.8562   12.0728 H       1  UNL1        0.1549
     32 C          63.3088   85.1948   13.0341 C.ar    1  UNL1        0.0535
     33 C          64.2133   85.1949   14.1088 C.ar    1  UNL1        0.0353
     34 C          65.1798   84.1895   14.1948 C.ar    1  UNL1        0.1002
     35 N          65.2503   83.2267   13.2378 N.ar    1  UNL1       -0.2422
     36 C          64.3989   83.2124   12.1783 C.ar    1  UNL1        0.1002
     37 C          63.4192   84.2002   12.0533 C.ar    1  UNL1        0.0353
     38 C          60.1825   88.4634   14.5278 C.3     1  UNL1        0.0569
     39 C          61.5873   88.7003   15.0092 C.ar    1  UNL1       -0.0017
     40 C          62.1136   88.3245   16.2418 C.ar    1  UNL1        0.0681
     41 N          63.3814   88.7773   16.3716 N.ar    1  UNL1       -0.3523
     42 C          63.6567   89.4429   15.2363 C.ar    1  UNL1        0.0563
     43 C          64.8375   90.1105   14.9139 C.ar    1  UNL1        0.0170
     44 C          64.9033   90.7680   13.6716 C.ar    1  UNL1        0.0015
     45 C          63.7999   90.7447   12.7900 C.ar    1  UNL1        0.0001
     46 C          62.6213   90.0627   13.1416 C.ar    1  UNL1        0.0012
     47 C          62.5855   89.4198   14.3801 C.ar    1  UNL1        0.0131
     48 H          64.0091   88.6493   17.1961 H       1  UNL1        0.1660
@<TRIPOS>BOND
     1     5     6    1
     2     6     7   ar
     3     7     8   ar
     4     8    13    1
     5    13    14    1
     6    14    15    1
     7    15    16    1
     8    16    19    1
     9    19    20   ar
    10    20    21   ar
    11    21    22   ar
    12    22    23    1
    13    22    24   ar
    14    24    25    1
    15    24    26   ar
    16    16    17    1
    17    17    18    1
    18     8     9   ar
    19     9    10   ar
    20    10    11    1
    21    10    12   ar
    22    12     1    1
    23     1     2    2
    24     1     3   am
    25     3    27    1
    26    27    38    1
    27    38    39    1
    28    39    40   ar
    29    40    41   ar
    30    41    42   ar
    31    42    43   ar
    32    43    44   ar
    33    44    45   ar
    34    45    46   ar
    35    46    47   ar
    36    27    28    1
    37    28    29    2
    38    28    30   am
    39    30    32    1
    40    32    33   ar
    41    33    34   ar
    42    34    35   ar
    43    35    36   ar
    44    36    37   ar
    45    12     6   ar
    46    47    39   ar
    47    37    32   ar
    48    18    13    1
    49    47    42   ar
    50    26    19   ar
    51     3     4    1
    52    41    48    1
    53    30    31    1
