@<TRIPOS>MOLECULE
*****
 45 49 0 0 0
SMALL
GASTEIGER

@<TRIPOS>ATOM
      1 C          -8.8219   -7.0399   30.4722 C.3     1  UNL1        0.1562
      2 C          -8.6177   -6.6626   31.9453 C.3     1  UNL1        0.0622
      3 C          -7.7120   -7.7521   32.5497 C.3     1  UNL1        0.1294
      4 O          -8.1991   -8.1009   33.8249 O.3     1  UNL1       -0.3808
      5 C          -7.8701   -8.9640   31.6004 C.3     1  UNL1        0.1264
      6 N          -8.4805   -8.4571   30.3804 N.am    1  UNL1       -0.2544
      7 C          -8.7368   -9.3013   29.2383 C.2     1  UNL1        0.3081
      8 O          -9.7113   -9.0635   28.4769 O.2     1  UNL1       -0.2522
      9 N          -7.9294  -10.4568   28.9852 N.am    1  UNL1       -0.2681
     10 H          -7.6561   -8.8670   34.1510 H       1  UNL1        0.2107
     11 H          -8.4136  -11.3596   28.7797 H       1  UNL1        0.1564
     12 C          -6.2624   -7.2359   32.6285 C.ar    1  UNL1        0.0310
     13 C          -5.5016   -7.4402   33.7996 C.ar    1  UNL1        0.0026
     14 C          -4.1780   -7.0046   33.8860 C.ar    1  UNL1        0.0295
     15 C          -3.5731   -6.3867   32.7931 C.ar    1  UNL1        0.1424
     16 F          -2.2861   -5.9686   32.8761 F       1  UNL1       -0.2041
     17 C          -4.2862   -6.2218   31.6057 C.ar    1  UNL1        0.0590
     18 C          -5.6139   -6.6537   31.5105 C.ar    1  UNL1        0.1406
     19 F          -6.2415   -6.5183   30.3152 F       1  UNL1       -0.2044
     20 C          -6.4985  -10.4011   28.8811 C.ar    1  UNL1        0.0516
     21 C          -5.8725   -9.7074   27.8304 C.ar    1  UNL1        0.0156
     22 C          -4.4781   -9.6563   27.7506 C.ar    1  UNL1        0.0127
     23 C          -3.6970  -10.3098   28.7086 C.ar    1  UNL1        0.0578
     24 CL         -1.9474  -10.2387   28.6110 Cl      1  UNL1       -0.0822
     25 C          -4.3131  -11.0239   29.7415 C.ar    1  UNL1        0.0127
     26 C          -5.7082  -11.0751   29.8237 C.ar    1  UNL1        0.0156
     27 N         -11.2143   -7.8015   29.8829 N.am    1  UNL1       -0.2680
     28 C         -10.2394   -6.7556   30.0224 C.2     1  UNL1        0.2454
     29 O         -10.5585   -5.5785   29.7021 O.2     1  UNL1       -0.2730
     30 H         -11.9619   -7.6677   29.1647 H       1  UNL1        0.1563
     31 C         -11.3728  -11.2191   32.3663 C.ar    1  UNL1        0.2465
     32 C         -11.6334   -9.9502   32.9046 C.ar    1  UNL1        0.0736
     33 C         -11.5875   -8.8194   32.0870 C.ar    1  UNL1        0.0406
     34 C         -11.2874   -8.9624   30.7267 C.ar    1  UNL1        0.1346
     35 N         -11.0151  -10.2007   30.2297 N.ar    1  UNL1       -0.2228
     36 C         -11.0525  -11.3163   31.0042 C.ar    1  UNL1        0.1691
     37 C         -12.4889  -14.4711   33.7844 C.2     1  UNL1        0.0476
     38 C         -11.5305  -14.6785   34.7813 C.2     1  UNL1        0.0116
     39 C         -10.5144  -13.7460   34.9732 C.2     1  UNL1        0.1153
     40 C         -10.4658  -12.6007   34.1733 C.2     1  UNL1        0.4230
     41 O          -9.5538  -11.7526   34.3756 O.2     1  UNL1       -0.2135
     42 N         -11.4103  -12.3971   33.1974 N.am    1  UNL1       -0.0844
     43 C         -12.4143  -13.3076   33.0056 C.2     1  UNL1        0.2860
     44 C         -13.2478  -16.4952   32.5428 C.3     1  UNL1        0.0052
     45 C         -13.6156  -15.4500   33.5907 C.3     1  UNL1        0.0326
@<TRIPOS>BOND
     1    44    45    1
     2    45    37    1
     3    37    38    1
     4    38    39    2
     5    39    40    1
     6    40    41    2
     7    40    42    1
     8    42    31    1
     9    31    32   ar
    10    32    33   ar
    11    33    34   ar
    12    34    27    1
    13    27    28   am
    14    28    29    2
    15    28     1    1
    16     1     2    1
    17     2     3    1
    18     3     4    1
    19     3    12    1
    20    12    13   ar
    21    13    14   ar
    22    14    15   ar
    23    15    16    1
    24    15    17   ar
    25    17    18   ar
    26    18    19    1
    27     3     5    1
    28     5     6    1
    29     6     7   am
    30     7     8    2
    31     7     9   am
    32     9    20    1
    33    20    21   ar
    34    21    22   ar
    35    22    23   ar
    36    23    24    1
    37    23    25   ar
    38    25    26   ar
    39    34    35   ar
    40    35    36   ar
    41    42    43    1
    42    43    37    2
    43    36    31   ar
    44     6     1    1
    45    26    20   ar
    46    18    12   ar
    47    27    30    1
    48     4    10    1
    49     9    11    1
@<TRIPOS>MOLECULE
*****
 45 49 0 0 0
SMALL
GASTEIGER

@<TRIPOS>ATOM
      1 C          -6.6657  -10.8846   29.5993 C.3     1  UNL1        0.1562
      2 C          -6.5905  -11.8425   30.7954 C.3     1  UNL1        0.0622
      3 C          -7.2603  -11.1142   31.9760 C.3     1  UNL1        0.1294
      4 O          -6.4933  -11.3206   33.1396 O.3     1  UNL1       -0.3808
      5 C          -7.2045   -9.6155   31.5942 C.3     1  UNL1        0.1264
      6 N          -6.9029   -9.5619   30.1715 N.am    1  UNL1       -0.2544
      7 C          -6.8209   -8.3162   29.4473 C.2     1  UNL1        0.3081
      8 O          -6.0476   -8.2038   28.4598 O.2     1  UNL1       -0.2522
      9 N          -7.5670   -7.1704   29.8734 N.am    1  UNL1       -0.2681
     10 H          -6.8932  -10.7664   33.8614 H       1  UNL1        0.2107
     11 H          -7.0643   -6.2578   29.9522 H       1  UNL1        0.1564
     12 C          -8.6991  -11.6348   32.1568 C.ar    1  UNL1        0.0310
     13 C          -9.4890  -11.9372   31.0269 C.ar    1  UNL1        0.0026
     14 C         -10.7863  -12.4343   31.1648 C.ar    1  UNL1        0.0295
     15 C         -11.3116  -12.6739   32.4332 C.ar    1  UNL1        0.1424
     16 F         -12.5696  -13.1615   32.5661 F       1  UNL1       -0.2041
     17 C         -10.5317  -12.4346   33.5647 C.ar    1  UNL1        0.0590
     18 C          -9.2310  -11.9347   33.4362 C.ar    1  UNL1        0.1406
     19 F          -8.4983  -11.7731   34.5667 F       1  UNL1       -0.2044
     20 C          -8.9882   -7.1959   30.0760 C.ar    1  UNL1        0.0516
     21 C          -9.7700   -8.2669   29.6081 C.ar    1  UNL1        0.0156
     22 C         -11.1510   -8.2789   29.8227 C.ar    1  UNL1        0.0127
     23 C         -11.7655   -7.2158   30.4914 C.ar    1  UNL1        0.0578
     24 CL        -13.4975   -7.2359   30.7661 Cl      1  UNL1       -0.0822
     25 C         -10.9976   -6.1346   30.9361 C.ar    1  UNL1        0.0127
     26 C          -9.6155   -6.1214   30.7234 C.ar    1  UNL1        0.0156
     27 N          -4.9774  -12.1418   28.1094 N.am    1  UNL1       -0.2680
     28 C          -5.3997  -10.9383   28.7705 C.2     1  UNL1        0.2454
     29 O          -4.6622   -9.9175   28.7075 O.2     1  UNL1       -0.2730
     30 H          -3.9501  -12.2790   27.9731 H       1  UNL1        0.1563
     31 C          -7.5678  -15.0376   26.4433 C.ar    1  UNL1        0.2465
     32 C          -7.8435  -14.4970   27.7080 C.ar    1  UNL1        0.0736
     33 C          -6.9937  -13.5365   28.2598 C.ar    1  UNL1        0.0406
     34 C          -5.8706  -13.1122   27.5390 C.ar    1  UNL1        0.1346
     35 N          -5.6091  -13.6670   26.3230 N.ar    1  UNL1       -0.2228
     36 C          -6.4196  -14.6035   25.7648 C.ar    1  UNL1        0.1691
     37 C          -9.7333  -16.7865   23.9767 C.2     1  UNL1        0.0476
     38 C         -10.1075  -17.9241   24.6987 C.2     1  UNL1        0.0116
     39 C          -9.6340  -18.1114   25.9947 C.2     1  UNL1        0.1153
     40 C          -8.7948  -17.1531   26.5703 C.2     1  UNL1        0.4230
     41 O          -8.3940  -17.3244   27.7544 O.2     1  UNL1       -0.2135
     42 N          -8.4316  -16.0348   25.8609 N.am    1  UNL1       -0.0844
     43 C          -8.8963  -15.8421   24.5877 C.2     1  UNL1        0.2860
     44 C         -11.7591  -16.2340   22.6330 C.3     1  UNL1        0.0052
     45 C         -10.2679  -16.5506   22.5896 C.3     1  UNL1        0.0326
@<TRIPOS>BOND
     1    44    45    1
     2    45    37    1
     3    37    38    1
     4    38    39    2
     5    39    40    1
     6    40    41    2
     7    40    42    1
     8    42    31    1
     9    31    32   ar
    10    32    33   ar
    11    33    34   ar
    12    34    27    1
    13    27    28   am
    14    28    29    2
    15    28     1    1
    16     1     2    1
    17     2     3    1
    18     3     4    1
    19     3    12    1
    20    12    13   ar
    21    13    14   ar
    22    14    15   ar
    23    15    16    1
    24    15    17   ar
    25    17    18   ar
    26    18    19    1
    27     3     5    1
    28     5     6    1
    29     6     7   am
    30     7     8    2
    31     7     9   am
    32     9    20    1
    33    20    21   ar
    34    21    22   ar
    35    22    23   ar
    36    23    24    1
    37    23    25   ar
    38    25    26   ar
    39    34    35   ar
    40    35    36   ar
    41    42    43    1
    42    43    37    2
    43    36    31   ar
    44     6     1    1
    45    26    20   ar
    46    18    12   ar
    47    27    30    1
    48     4    10    1
    49     9    11    1
