@<TRIPOS>MOLECULE
*****
 38 41 0 0 0
SMALL
GASTEIGER

@<TRIPOS>ATOM
      1 C         -10.9660  -11.0037   31.8630 C.ar    1  UNL1       -0.0156
      2 C         -10.2100   -9.9172   31.3779 C.ar    1  UNL1        0.0328
      3 C         -10.6970   -8.6071   31.3818 C.ar    1  UNL1        0.1409
      4 C         -11.9662   -8.3554   31.9388 C.ar    1  UNL1        0.0126
      5 C         -12.7186   -9.4213   32.4575 C.ar    1  UNL1        0.0023
      6 C         -12.2423  -10.7451   32.4355 C.ar    1  UNL1        0.0674
      7 C         -12.5483   -6.9769   31.9864 C.3     1  UNL1        0.0342
      8 C         -12.5808   -6.3862   30.5846 C.3     1  UNL1        0.0342
      9 C         -11.2968   -5.6692   30.2974 C.ar    1  UNL1        0.0128
     10 C         -11.3736   -4.3457   29.8277 C.ar    1  UNL1       -0.0012
     11 C         -10.2216   -3.6258   29.5350 C.ar    1  UNL1        0.0000
     12 C          -8.9739   -4.2113   29.7068 C.ar    1  UNL1        0.0076
     13 C          -8.8607   -5.5272   30.1805 C.ar    1  UNL1        0.0875
     14 C         -10.0256   -6.2819   30.4693 C.ar    1  UNL1        0.1455
     15 O          -9.8351   -7.6285   30.8470 O.3     1  UNL1       -0.4540
     16 C         -13.1115  -11.8522   33.0108 C.3     1  UNL1        0.4183
     17 F         -12.3769  -12.7533   33.7631 F       1  UNL1       -0.1659
     18 F         -14.0795  -11.3038   33.8328 F       1  UNL1       -0.1659
     19 F         -13.7170  -12.5588   31.9872 F       1  UNL1       -0.1659
     20 C          -7.5030   -6.1025   30.3193 C.2     1  UNL1        0.2490
     21 O          -6.6583   -5.8951   29.4053 O.2     1  UNL1       -0.2700
     22 N          -7.1238   -6.8420   31.4930 N.am    1  UNL1       -0.2986
     23 H          -7.8122   -6.9538   32.2714 H       1  UNL1        0.1500
     24 C          -5.7870   -7.4183   31.6690 C.3     1  UNL1        0.0944
     25 C          -5.5675   -7.7617   33.1478 C.3     1  UNL1        0.0262
     26 C          -5.6033   -8.5826   30.7105 C.ar    1  UNL1       -0.0045
     27 C          -6.4660   -9.6853   30.8293 C.ar    1  UNL1       -0.0025
     28 C          -6.3479  -10.7826   29.9729 C.ar    1  UNL1        0.0062
     29 C          -5.3634  -10.8024   28.9729 C.ar    1  UNL1        0.0754
     30 C          -4.4934   -9.7059   28.8540 C.ar    1  UNL1        0.0062
     31 C          -4.5987   -8.6163   29.7228 C.ar    1  UNL1       -0.0025
     32 C          -5.2351  -11.9697   28.0732 C.2     1  UNL1        0.3380
     33 O          -4.4015  -11.9587   27.1273 O.2     1  UNL1       -0.2451
     34 O          -6.0309  -13.0959   28.2667 O.3     1  UNL1       -0.4771
     35 H          -5.9458  -13.9035   27.6612 H       1  UNL1        0.2954
     36 C          -9.8766  -12.7873   30.4111 C.3     1  UNL1        0.0047
     37 C         -10.3523  -12.4038   31.8211 C.3     1  UNL1        0.0224
     38 C          -9.2129  -12.5150   32.8379 C.3     1  UNL1        0.0047
@<TRIPOS>BOND
     1    36    37    1
     2    37    38    1
     3    37     1    1
     4     1     2   ar
     5     2     3   ar
     6     3     4   ar
     7     4     5   ar
     8     5     6   ar
     9     6    16    1
    10    16    17    1
    11    16    18    1
    12    16    19    1
    13     4     7    1
    14     7     8    1
    15     8     9    1
    16     9    10   ar
    17    10    11   ar
    18    11    12   ar
    19    12    13   ar
    20    13    20    1
    21    20    21    2
    22    20    22   am
    23    22    24    1
    24    24    25    1
    25    24    26    1
    26    26    27   ar
    27    27    28   ar
    28    28    29   ar
    29    29    32    1
    30    32    33    2
    31    32    34    1
    32    29    30   ar
    33    30    31   ar
    34    13    14   ar
    35    14    15    1
    36     6     1   ar
    37    14     9   ar
    38    15     3    1
    39    31    26   ar
    40    22    23    1
    41    34    35    1
@<TRIPOS>MOLECULE
*****
 38 41 0 0 0
SMALL
GASTEIGER

@<TRIPOS>ATOM
      1 C          -5.6460   -9.8621   30.7343 C.ar    1  UNL1       -0.0156
      2 C          -6.9117   -9.9166   31.3527 C.ar    1  UNL1        0.0328
      3 C          -8.0493   -9.3428   30.7780 C.ar    1  UNL1        0.1409
      4 C          -7.9385   -8.7352   29.5119 C.ar    1  UNL1        0.0126
      5 C          -6.6921   -8.7021   28.8664 C.ar    1  UNL1        0.0023
      6 C          -5.5392   -9.2584   29.4507 C.ar    1  UNL1        0.0674
      7 C          -9.1154   -8.1089   28.8309 C.3     1  UNL1        0.0342
      8 C          -9.7391   -7.0640   29.7443 C.3     1  UNL1        0.0342
      9 C         -10.7764   -7.6981   30.6202 C.ar    1  UNL1        0.0128
     10 C         -12.0542   -7.1116   30.6562 C.ar    1  UNL1       -0.0012
     11 C         -13.0604   -7.6448   31.4528 C.ar    1  UNL1        0.0000
     12 C         -12.8113   -8.7717   32.2254 C.ar    1  UNL1        0.0076
     13 C         -11.5500   -9.3863   32.2076 C.ar    1  UNL1        0.0875
     14 C         -10.5072   -8.8470   31.4129 C.ar    1  UNL1        0.1455
     15 O          -9.2406   -9.4603   31.5220 O.3     1  UNL1       -0.4540
     16 C          -4.2203   -9.1836   28.6977 C.3     1  UNL1        0.4183
     17 F          -3.4683  -10.3365   28.8488 F       1  UNL1       -0.1659
     18 F          -4.4649   -9.0112   27.3472 F       1  UNL1       -0.1659
     19 F          -3.4640   -8.1268   29.1717 F       1  UNL1       -0.1659
     20 C         -11.3407  -10.5706   33.0720 C.2     1  UNL1        0.2490
     21 O         -12.2662  -10.9245   33.8531 O.2     1  UNL1       -0.2700
     22 N         -10.1305  -11.3439   32.9956 N.am    1  UNL1       -0.2986
     23 H          -9.3970  -11.0782   32.3002 H       1  UNL1        0.1500
     24 C          -9.8920  -12.5267   33.8289 C.3     1  UNL1        0.0944
     25 C          -9.5559  -12.0865   35.2594 C.3     1  UNL1        0.0262
     26 C         -11.0719  -13.4770   33.7153 C.ar    1  UNL1       -0.0045
     27 C         -11.6225  -13.7057   32.4430 C.ar    1  UNL1       -0.0025
     28 C         -12.7050  -14.5728   32.2764 C.ar    1  UNL1        0.0062
     29 C         -13.2625  -15.2358   33.3806 C.ar    1  UNL1        0.0754
     30 C         -12.7208  -15.0056   34.6561 C.ar    1  UNL1        0.0062
     31 C         -11.6502  -14.1234   34.8261 C.ar    1  UNL1       -0.0025
     32 C         -14.4144  -16.1468   33.2022 C.2     1  UNL1        0.3380
     33 O         -14.2446  -17.3095   32.7452 O.2     1  UNL1       -0.2451
     34 O         -15.6984  -15.7299   33.5438 O.3     1  UNL1       -0.4771
     35 H         -16.4929  -16.3483   33.4328 H       1  UNL1        0.2954
     36 C          -4.0531   -9.7733   32.7170 C.3     1  UNL1        0.0047
     37 C          -4.4561  -10.5190   31.4353 C.3     1  UNL1        0.0224
     38 C          -4.7571  -11.9921   31.7246 C.3     1  UNL1        0.0047
@<TRIPOS>BOND
     1    36    37    1
     2    37    38    1
     3    37     1    1
     4     1     2   ar
     5     2     3   ar
     6     3     4   ar
     7     4     5   ar
     8     5     6   ar
     9     6    16    1
    10    16    17    1
    11    16    18    1
    12    16    19    1
    13     4     7    1
    14     7     8    1
    15     8     9    1
    16     9    10   ar
    17    10    11   ar
    18    11    12   ar
    19    12    13   ar
    20    13    20    1
    21    20    21    2
    22    20    22   am
    23    22    24    1
    24    24    25    1
    25    24    26    1
    26    26    27   ar
    27    27    28   ar
    28    28    29   ar
    29    29    32    1
    30    32    33    2
    31    32    34    1
    32    29    30   ar
    33    30    31   ar
    34    13    14   ar
    35    14    15    1
    36     6     1   ar
    37    14     9   ar
    38    15     3    1
    39    31    26   ar
    40    22    23    1
    41    34    35    1
@<TRIPOS>MOLECULE
*****
 38 41 0 0 0
SMALL
GASTEIGER

@<TRIPOS>ATOM
      1 C          -5.9040   -7.7307   31.7457 C.ar    1  UNL1       -0.0156
      2 C          -7.1749   -8.2375   32.0856 C.ar    1  UNL1        0.0328
      3 C          -8.3413   -7.8287   31.4331 C.ar    1  UNL1        0.1409
      4 C          -8.2381   -6.9184   30.3629 C.ar    1  UNL1        0.0126
      5 C          -6.9763   -6.4295   29.9889 C.ar    1  UNL1        0.0023
      6 C          -5.8014   -6.8207   30.6571 C.ar    1  UNL1        0.0674
      7 C          -9.4426   -6.4434   29.6114 C.3     1  UNL1        0.0342
      8 C         -10.4455   -5.8375   30.5821 C.3     1  UNL1        0.0342
      9 C         -11.3721   -6.8977   31.0947 C.ar    1  UNL1        0.0128
     10 C         -12.7556   -6.6616   31.0041 C.ar    1  UNL1       -0.0012
     11 C         -13.6701   -7.5999   31.4671 C.ar    1  UNL1        0.0000
     12 C         -13.2221   -8.7896   32.0265 C.ar    1  UNL1        0.0076
     13 C         -11.8490   -9.0606   32.1257 C.ar    1  UNL1        0.0875
     14 C         -10.9015   -8.1082   31.6727 C.ar    1  UNL1        0.1455
     15 O          -9.5402   -8.4080   31.8950 O.3     1  UNL1       -0.4540
     16 C          -4.4679   -6.2487   30.2024 C.3     1  UNL1        0.4183
     17 F          -3.6756   -5.8623   31.2704 F       1  UNL1       -0.1659
     18 F          -3.7730   -7.2043   29.4831 F       1  UNL1       -0.1659
     19 F          -4.6764   -5.1328   29.4120 F       1  UNL1       -0.1659
     20 C         -11.4350  -10.3364   32.7538 C.2     1  UNL1        0.2490
     21 O         -12.2784  -10.9798   33.4366 O.2     1  UNL1       -0.2700
     22 N         -10.1147  -10.8707   32.5544 N.am    1  UNL1       -0.2986
     23 H          -9.4447  -10.3606   31.9355 H       1  UNL1        0.1500
     24 C          -9.6726  -12.1343   33.1529 C.3     1  UNL1        0.0944
     25 C          -9.1241  -11.8704   34.5609 C.3     1  UNL1        0.0262
     26 C         -10.7996  -13.1511   33.0884 C.ar    1  UNL1       -0.0045
     27 C         -11.1763  -13.8034   34.2744 C.ar    1  UNL1       -0.0025
     28 C         -12.2089  -14.7444   34.2773 C.ar    1  UNL1        0.0062
     29 C         -12.8929  -15.0543   33.0917 C.ar    1  UNL1        0.0754
     30 C         -12.5158  -14.4105   31.9014 C.ar    1  UNL1        0.0062
     31 C         -11.4702  -13.4832   31.8942 C.ar    1  UNL1       -0.0025
     32 C         -13.9800  -16.0576   33.0963 C.2     1  UNL1        0.3380
     33 O         -13.7676  -17.2317   32.6886 O.2     1  UNL1       -0.2451
     34 O         -15.2487  -15.7158   33.5574 O.3     1  UNL1       -0.4771
     35 H         -15.9981  -16.3971   33.5720 H       1  UNL1        0.2954
     36 C          -4.5700   -7.6051   33.9092 C.3     1  UNL1        0.0047
     37 C          -4.6814   -8.2362   32.5126 C.3     1  UNL1        0.0224
     38 C          -4.7021   -9.7649   32.5971 C.3     1  UNL1        0.0047
@<TRIPOS>BOND
     1    36    37    1
     2    37    38    1
     3    37     1    1
     4     1     2   ar
     5     2     3   ar
     6     3     4   ar
     7     4     5   ar
     8     5     6   ar
     9     6    16    1
    10    16    17    1
    11    16    18    1
    12    16    19    1
    13     4     7    1
    14     7     8    1
    15     8     9    1
    16     9    10   ar
    17    10    11   ar
    18    11    12   ar
    19    12    13   ar
    20    13    20    1
    21    20    21    2
    22    20    22   am
    23    22    24    1
    24    24    25    1
    25    24    26    1
    26    26    27   ar
    27    27    28   ar
    28    28    29   ar
    29    29    32    1
    30    32    33    2
    31    32    34    1
    32    29    30   ar
    33    30    31   ar
    34    13    14   ar
    35    14    15    1
    36     6     1   ar
    37    14     9   ar
    38    15     3    1
    39    31    26   ar
    40    22    23    1
    41    34    35    1
@<TRIPOS>MOLECULE
*****
 38 41 0 0 0
SMALL
GASTEIGER

@<TRIPOS>ATOM
      1 C          -6.8742   -7.5882   30.1412 C.ar    1  UNL1       -0.0156
      2 C          -7.2864   -8.9313   30.0250 C.ar    1  UNL1        0.0328
      3 C          -8.6052   -9.3311   30.2585 C.ar    1  UNL1        0.1409
      4 C          -9.5679   -8.3506   30.5689 C.ar    1  UNL1        0.0126
      5 C          -9.1814   -7.0035   30.6553 C.ar    1  UNL1        0.0023
      6 C          -7.8506   -6.5987   30.4432 C.ar    1  UNL1        0.0674
      7 C         -11.0007   -8.7030   30.8220 C.3     1  UNL1        0.0342
      8 C         -11.0845   -9.7393   31.9329 C.3     1  UNL1        0.0342
      9 C         -11.0052  -11.1203   31.3566 C.ar    1  UNL1        0.0128
     10 C         -12.0030  -12.0425   31.7197 C.ar    1  UNL1       -0.0012
     11 C         -11.9853  -13.3419   31.2273 C.ar    1  UNL1        0.0000
     12 C         -10.9744  -13.7439   30.3638 C.ar    1  UNL1        0.0076
     13 C          -9.9674  -12.8475   29.9753 C.ar    1  UNL1        0.0875
     14 C          -9.9609  -11.5227   30.4800 C.ar    1  UNL1        0.1455
     15 O          -8.8636  -10.7099   30.1227 O.3     1  UNL1       -0.4540
     16 C          -7.5006   -5.1233   30.5567 C.3     1  UNL1        0.4183
     17 F          -6.4254   -4.7799   29.7546 F       1  UNL1       -0.1659
     18 F          -8.5835   -4.3569   30.1648 F       1  UNL1       -0.1659
     19 F          -7.1623   -4.8163   31.8624 F       1  UNL1       -0.1659
     20 C          -8.9044  -13.3441   29.0713 C.2     1  UNL1        0.2490
     21 O          -7.7636  -12.8077   29.1217 O.2     1  UNL1       -0.2700
     22 N          -9.1386  -14.4516   28.1842 N.am    1  UNL1       -0.2986
     23 H         -10.0684  -14.9286   28.1962 H       1  UNL1        0.1500
     24 C          -8.1083  -14.9758   27.2820 C.3     1  UNL1        0.0944
     25 C          -6.9640  -15.5793   28.1062 C.3     1  UNL1        0.0262
     26 C          -8.7426  -15.9263   26.2809 C.ar    1  UNL1       -0.0045
     27 C          -9.0377  -17.2346   26.6998 C.ar    1  UNL1       -0.0025
     28 C          -9.6255  -18.1513   25.8248 C.ar    1  UNL1        0.0062
     29 C          -9.9357  -17.7799   24.5075 C.ar    1  UNL1        0.0754
     30 C          -9.6364  -16.4753   24.0808 C.ar    1  UNL1        0.0062
     31 C          -9.0307  -15.5636   24.9499 C.ar    1  UNL1       -0.0025
     32 C         -10.5502  -18.7556   23.5806 C.2     1  UNL1        0.3380
     33 O         -11.0768  -18.3684   22.5024 O.2     1  UNL1       -0.2451
     34 O         -10.5473  -20.1137   23.8880 O.3     1  UNL1       -0.4771
     35 H         -10.9584  -20.7909   23.2568 H       1  UNL1        0.2954
     36 C          -4.6422   -6.9006   31.1518 C.3     1  UNL1        0.0047
     37 C          -5.4106   -7.2415   29.8655 C.3     1  UNL1        0.0224
     38 C          -4.7300   -8.3801   29.1007 C.3     1  UNL1        0.0047
@<TRIPOS>BOND
     1    36    37    1
     2    37    38    1
     3    37     1    1
     4     1     2   ar
     5     2     3   ar
     6     3     4   ar
     7     4     5   ar
     8     5     6   ar
     9     6    16    1
    10    16    17    1
    11    16    18    1
    12    16    19    1
    13     4     7    1
    14     7     8    1
    15     8     9    1
    16     9    10   ar
    17    10    11   ar
    18    11    12   ar
    19    12    13   ar
    20    13    20    1
    21    20    21    2
    22    20    22   am
    23    22    24    1
    24    24    25    1
    25    24    26    1
    26    26    27   ar
    27    27    28   ar
    28    28    29   ar
    29    29    32    1
    30    32    33    2
    31    32    34    1
    32    29    30   ar
    33    30    31   ar
    34    13    14   ar
    35    14    15    1
    36     6     1   ar
    37    14     9   ar
    38    15     3    1
    39    31    26   ar
    40    22    23    1
    41    34    35    1
@<TRIPOS>MOLECULE
*****
 38 41 0 0 0
SMALL
GASTEIGER

@<TRIPOS>ATOM
      1 C          -6.7103   -7.4902   30.1844 C.ar    1  UNL1       -0.0156
      2 C          -7.0917   -8.8408   30.0508 C.ar    1  UNL1        0.0328
      3 C          -8.4233   -9.2543   30.1475 C.ar    1  UNL1        0.1409
      4 C          -9.4255   -8.2816   30.3317 C.ar    1  UNL1        0.0126
      5 C          -9.0665   -6.9280   30.4329 C.ar    1  UNL1        0.0023
      6 C          -7.7253   -6.5088   30.3587 C.ar    1  UNL1        0.0674
      7 C         -10.8731   -8.6489   30.4345 C.3     1  UNL1        0.0342
      8 C         -11.0653   -9.6656   31.5501 C.3     1  UNL1        0.0342
      9 C         -10.9076  -11.0558   31.0135 C.ar    1  UNL1        0.0128
     10 C         -11.9282  -11.9848   31.2843 C.ar    1  UNL1       -0.0012
     11 C         -11.8417  -13.2927   30.8226 C.ar    1  UNL1        0.0000
     12 C         -10.7382  -13.6966   30.0823 C.ar    1  UNL1        0.0076
     13 C          -9.7053  -12.7937   29.7878 C.ar    1  UNL1        0.0875
     14 C          -9.7694  -11.4599   30.2638 C.ar    1  UNL1        0.1455
     15 O          -8.6492  -10.6388   30.0118 O.3     1  UNL1       -0.4540
     16 C          -7.4070   -5.0269   30.4803 C.3     1  UNL1        0.4183
     17 F          -6.3109   -4.6652   29.7153 F       1  UNL1       -0.1659
     18 F          -8.4896   -4.2818   30.0485 F       1  UNL1       -0.1659
     19 F          -7.1205   -4.7107   31.7961 F       1  UNL1       -0.1659
     20 C          -8.5445  -13.2924   29.0149 C.2     1  UNL1        0.2490
     21 O          -7.4151  -12.7630   29.2044 O.2     1  UNL1       -0.2700
     22 N          -8.6767  -14.3941   28.1000 N.am    1  UNL1       -0.2986
     23 H          -9.6037  -14.8657   27.9980 H       1  UNL1        0.1500
     24 C          -7.5486  -14.9200   27.3247 C.3     1  UNL1        0.0944
     25 C          -6.9293  -16.1122   28.0651 C.3     1  UNL1        0.0262
     26 C          -7.9998  -15.2166   25.9046 C.ar    1  UNL1       -0.0045
     27 C          -7.1816  -14.7928   24.8439 C.ar    1  UNL1       -0.0025
     28 C          -7.5425  -15.0415   23.5175 C.ar    1  UNL1        0.0062
     29 C          -8.7319  -15.7241   23.2194 C.ar    1  UNL1        0.0754
     30 C          -9.5576  -16.1440   24.2756 C.ar    1  UNL1        0.0062
     31 C          -9.2066  -15.8786   25.6021 C.ar    1  UNL1       -0.0025
     32 C          -9.1158  -15.9783   21.8134 C.2     1  UNL1        0.3380
     33 O          -9.3036  -17.1564   21.4054 O.2     1  UNL1       -0.2451
     34 O          -9.2796  -14.9164   20.9276 O.3     1  UNL1       -0.4771
     35 H          -9.5497  -15.0788   19.9650 H       1  UNL1        0.2954
     36 C          -4.5859   -6.8477   31.4295 C.3     1  UNL1        0.0047
     37 C          -5.2295   -7.1285   30.0626 C.3     1  UNL1        0.0224
     38 C          -4.4741   -8.2285   29.3118 C.3     1  UNL1        0.0047
@<TRIPOS>BOND
     1    36    37    1
     2    37    38    1
     3    37     1    1
     4     1     2   ar
     5     2     3   ar
     6     3     4   ar
     7     4     5   ar
     8     5     6   ar
     9     6    16    1
    10    16    17    1
    11    16    18    1
    12    16    19    1
    13     4     7    1
    14     7     8    1
    15     8     9    1
    16     9    10   ar
    17    10    11   ar
    18    11    12   ar
    19    12    13   ar
    20    13    20    1
    21    20    21    2
    22    20    22   am
    23    22    24    1
    24    24    25    1
    25    24    26    1
    26    26    27   ar
    27    27    28   ar
    28    28    29   ar
    29    29    32    1
    30    32    33    2
    31    32    34    1
    32    29    30   ar
    33    30    31   ar
    34    13    14   ar
    35    14    15    1
    36     6     1   ar
    37    14     9   ar
    38    15     3    1
    39    31    26   ar
    40    22    23    1
    41    34    35    1
@<TRIPOS>MOLECULE
*****
 38 41 0 0 0
SMALL
GASTEIGER

@<TRIPOS>ATOM
      1 C          -6.0686   -9.8880   29.8153 C.ar    1  UNL1       -0.0156
      2 C          -7.4099   -9.7060   30.2094 C.ar    1  UNL1        0.0328
      3 C          -8.0306   -8.4538   30.1912 C.ar    1  UNL1        0.1409
      4 C          -7.3078   -7.3437   29.7121 C.ar    1  UNL1        0.0126
      5 C          -5.9816   -7.5134   29.2835 C.ar    1  UNL1        0.0023
      6 C          -5.3448   -8.7677   29.3209 C.ar    1  UNL1        0.0674
      7 C          -7.9102   -5.9744   29.6542 C.3     1  UNL1        0.0342
      8 C          -8.4189   -5.5802   31.0330 C.3     1  UNL1        0.0342
      9 C          -9.8372   -6.0310   31.2075 C.ar    1  UNL1        0.0128
     10 C         -10.7817   -5.0799   31.6335 C.ar    1  UNL1       -0.0012
     11 C         -12.1125   -5.4326   31.8222 C.ar    1  UNL1        0.0000
     12 C         -12.5252   -6.7379   31.5881 C.ar    1  UNL1        0.0076
     13 C         -11.6109   -7.7102   31.1554 C.ar    1  UNL1        0.0875
     14 C         -10.2463   -7.3720   30.9726 C.ar    1  UNL1        0.1455
     15 O          -9.3691   -8.4240   30.6315 O.3     1  UNL1       -0.4540
     16 C          -3.9048   -8.8792   28.8454 C.3     1  UNL1        0.4183
     17 F          -3.3301  -10.0870   29.2038 F       1  UNL1       -0.1659
     18 F          -3.8617   -8.7822   27.4661 F       1  UNL1       -0.1659
     19 F          -3.1417   -7.8709   29.4061 F       1  UNL1       -0.1659
     20 C         -12.1085   -9.0895   30.9465 C.2     1  UNL1        0.2490
     21 O         -13.2740   -9.3804   31.3322 O.2     1  UNL1       -0.2700
     22 N         -11.3087  -10.0754   30.2707 N.am    1  UNL1       -0.2986
     23 H         -10.3697   -9.8054   29.8998 H       1  UNL1        0.1500
     24 C         -11.7714  -11.4473   30.0384 C.3     1  UNL1        0.0944
     25 C         -10.9228  -12.0949   28.9368 C.3     1  UNL1        0.0262
     26 C         -11.7953  -12.2072   31.3538 C.ar    1  UNL1       -0.0045
     27 C         -12.9682  -12.8979   31.7024 C.ar    1  UNL1       -0.0025
     28 C         -13.0471  -13.6178   32.8970 C.ar    1  UNL1        0.0062
     29 C         -11.9513  -13.6667   33.7724 C.ar    1  UNL1        0.0754
     30 C         -10.7784  -12.9722   33.4325 C.ar    1  UNL1        0.0062
     31 C         -10.7055  -12.2360   32.2468 C.ar    1  UNL1       -0.0025
     32 C         -12.0409  -14.4228   35.0408 C.2     1  UNL1        0.3380
     33 O         -11.0920  -14.3934   35.8705 O.2     1  UNL1       -0.2451
     34 O         -13.1788  -15.1702   35.3335 O.3     1  UNL1       -0.4771
     35 H         -13.2536  -15.6853   36.2025 H       1  UNL1        0.2954
     36 C          -4.9733  -11.6640   31.2722 C.3     1  UNL1        0.0047
     37 C          -5.4716  -11.2950   29.8661 C.3     1  UNL1        0.0224
     38 C          -6.4853  -12.3210   29.3522 C.3     1  UNL1        0.0047
@<TRIPOS>BOND
     1    36    37    1
     2    37    38    1
     3    37     1    1
     4     1     2   ar
     5     2     3   ar
     6     3     4   ar
     7     4     5   ar
     8     5     6   ar
     9     6    16    1
    10    16    17    1
    11    16    18    1
    12    16    19    1
    13     4     7    1
    14     7     8    1
    15     8     9    1
    16     9    10   ar
    17    10    11   ar
    18    11    12   ar
    19    12    13   ar
    20    13    20    1
    21    20    21    2
    22    20    22   am
    23    22    24    1
    24    24    25    1
    25    24    26    1
    26    26    27   ar
    27    27    28   ar
    28    28    29   ar
    29    29    32    1
    30    32    33    2
    31    32    34    1
    32    29    30   ar
    33    30    31   ar
    34    13    14   ar
    35    14    15    1
    36     6     1   ar
    37    14     9   ar
    38    15     3    1
    39    31    26   ar
    40    22    23    1
    41    34    35    1
@<TRIPOS>MOLECULE
*****
 38 41 0 0 0
SMALL
GASTEIGER

@<TRIPOS>ATOM
      1 C          -6.5757   -7.4227   31.5242 C.ar    1  UNL1       -0.0156
      2 C          -7.4326   -8.3930   30.9660 C.ar    1  UNL1        0.0328
      3 C          -7.0234   -9.7103   30.7409 C.ar    1  UNL1        0.1409
      4 C          -5.7270  -10.0962   31.1345 C.ar    1  UNL1        0.0126
      5 C          -4.8719   -9.1509   31.7232 C.ar    1  UNL1        0.0023
      6 C          -5.2712   -7.8178   31.9315 C.ar    1  UNL1        0.0674
      7 C          -5.2233  -11.4916   30.9339 C.3     1  UNL1        0.0342
      8 C          -5.3476  -11.8748   29.4666 C.3     1  UNL1        0.0342
      9 C          -6.6910  -12.4849   29.2051 C.ar    1  UNL1        0.0128
     10 C          -6.7320  -13.7288   28.5502 C.ar    1  UNL1       -0.0012
     11 C          -7.9448  -14.3469   28.2704 C.ar    1  UNL1        0.0000
     12 C          -9.1368  -13.7373   28.6397 C.ar    1  UNL1        0.0076
     13 C          -9.1321  -12.4997   29.3009 C.ar    1  UNL1        0.0875
     14 C          -7.9049  -11.8474   29.5806 C.ar    1  UNL1        0.1455
     15 O          -7.9837  -10.5622   30.1589 O.3     1  UNL1       -0.4540
     16 C          -4.2927   -6.8451   32.5707 C.3     1  UNL1        0.4183
     17 F          -4.9382   -5.8623   33.3020 F       1  UNL1       -0.1659
     18 F          -3.4515   -7.5290   33.4298 F       1  UNL1       -0.1659
     19 F          -3.5451   -6.2145   31.5925 F       1  UNL1       -0.1659
     20 C         -10.4371  -11.8905   29.6467 C.2     1  UNL1        0.2490
     21 O         -11.2912  -11.7234   28.7333 O.2     1  UNL1       -0.2700
     22 N         -10.7588  -11.5391   31.0036 N.am    1  UNL1       -0.2986
     23 H         -10.0678  -11.7402   31.7615 H       1  UNL1        0.1500
     24 C         -12.0431  -10.9426   31.3845 C.3     1  UNL1        0.0944
     25 C         -12.4568  -11.4572   32.7690 C.3     1  UNL1        0.0262
     26 C         -11.9581   -9.4303   31.2661 C.ar    1  UNL1       -0.0045
     27 C         -10.9794   -8.8827   30.4197 C.ar    1  UNL1       -0.0025
     28 C         -10.8570   -7.4995   30.2673 C.ar    1  UNL1        0.0062
     29 C         -11.7144   -6.6286   30.9573 C.ar    1  UNL1        0.0754
     30 C         -12.6902   -7.1702   31.8105 C.ar    1  UNL1        0.0062
     31 C         -12.8006   -8.5533   31.9782 C.ar    1  UNL1       -0.0025
     32 C         -11.5766   -5.1640   30.8006 C.2     1  UNL1        0.3380
     33 O         -11.6515   -4.4043   31.8040 O.2     1  UNL1       -0.2451
     34 O         -11.3564   -4.6105   29.5419 O.3     1  UNL1       -0.4771
     35 H         -11.2530   -3.6097   29.4245 H       1  UNL1        0.2954
     36 C          -7.4371   -5.3034   30.4094 C.3     1  UNL1        0.0047
     37 C          -7.1090   -6.0052   31.7365 C.3     1  UNL1        0.0224
     38 C          -8.3265   -6.0292   32.6646 C.3     1  UNL1        0.0047
@<TRIPOS>BOND
     1    36    37    1
     2    37    38    1
     3    37     1    1
     4     1     2   ar
     5     2     3   ar
     6     3     4   ar
     7     4     5   ar
     8     5     6   ar
     9     6    16    1
    10    16    17    1
    11    16    18    1
    12    16    19    1
    13     4     7    1
    14     7     8    1
    15     8     9    1
    16     9    10   ar
    17    10    11   ar
    18    11    12   ar
    19    12    13   ar
    20    13    20    1
    21    20    21    2
    22    20    22   am
    23    22    24    1
    24    24    25    1
    25    24    26    1
    26    26    27   ar
    27    27    28   ar
    28    28    29   ar
    29    29    32    1
    30    32    33    2
    31    32    34    1
    32    29    30   ar
    33    30    31   ar
    34    13    14   ar
    35    14    15    1
    36     6     1   ar
    37    14     9   ar
    38    15     3    1
    39    31    26   ar
    40    22    23    1
    41    34    35    1
@<TRIPOS>MOLECULE
*****
 38 41 0 0 0
SMALL
GASTEIGER

@<TRIPOS>ATOM
      1 C          -6.9348  -16.0615   25.7859 C.ar    1  UNL1       -0.0156
      2 C          -6.7683  -16.6866   24.5333 C.ar    1  UNL1        0.0328
      3 C          -7.8485  -17.1712   23.7906 C.ar    1  UNL1        0.1409
      4 C          -9.1536  -16.9810   24.2855 C.ar    1  UNL1        0.0126
      5 C          -9.3398  -16.3299   25.5154 C.ar    1  UNL1        0.0023
      6 C          -8.2544  -15.8602   26.2777 C.ar    1  UNL1        0.0674
      7 C         -10.3589  -17.4642   23.5404 C.3     1  UNL1        0.0342
      8 C         -10.2275  -18.9551   23.2662 C.3     1  UNL1        0.0342
      9 C          -9.5211  -19.1795   21.9640 C.ar    1  UNL1        0.0128
     10 C         -10.1312  -20.0278   21.0226 C.ar    1  UNL1       -0.0012
     11 C          -9.5267  -20.2846   19.7980 C.ar    1  UNL1        0.0000
     12 C          -8.3053  -19.6995   19.4898 C.ar    1  UNL1        0.0076
     13 C          -7.6724  -18.8424   20.4028 C.ar    1  UNL1        0.0875
     14 C          -8.2670  -18.5814   21.6631 C.ar    1  UNL1        0.1455
     15 O          -7.5255  -17.7893   22.5658 O.3     1  UNL1       -0.4540
     16 C          -8.5279  -15.1675   27.6034 C.3     1  UNL1        0.4183
     17 F          -7.4046  -14.5259   28.0972 F       1  UNL1       -0.1659
     18 F          -9.5193  -14.2175   27.4359 F       1  UNL1       -0.1659
     19 F          -8.9282  -16.0951   28.5484 F       1  UNL1       -0.1659
     20 C          -6.3602  -18.2692   20.0245 C.2     1  UNL1        0.2490
     21 O          -5.5694  -18.9660   19.3311 O.2     1  UNL1       -0.2700
     22 N          -6.0016  -16.9250   20.3892 N.am    1  UNL1       -0.2986
     23 H          -6.6901  -16.3355   20.9096 H       1  UNL1        0.1500
     24 C          -4.7159  -16.3214   20.0251 C.3     1  UNL1        0.0944
     25 C          -4.6433  -14.8942   20.5828 C.3     1  UNL1        0.0262
     26 C          -3.5822  -17.2341   20.4609 C.ar    1  UNL1       -0.0045
     27 C          -2.6154  -17.5964   19.5079 C.ar    1  UNL1       -0.0025
     28 C          -1.5477  -18.4291   19.8517 C.ar    1  UNL1        0.0062
     29 C          -1.4195  -18.9184   21.1608 C.ar    1  UNL1        0.0754
     30 C          -2.3871  -18.5653   22.1161 C.ar    1  UNL1        0.0062
     31 C          -3.4659  -17.7479   21.7679 C.ar    1  UNL1       -0.0025
     32 C          -0.2925  -19.8071   21.5197 C.2     1  UNL1        0.3380
     33 O          -0.4234  -21.0598   21.4621 O.2     1  UNL1       -0.2451
     34 O           0.9273  -19.2673   21.9192 O.3     1  UNL1       -0.4771
     35 H           1.7077  -19.8666   22.1597 H       1  UNL1        0.2954
     36 C          -4.5749  -16.6111   26.5636 C.3     1  UNL1        0.0047
     37 C          -5.6955  -15.5601   26.5283 C.3     1  UNL1        0.0224
     38 C          -5.2026  -14.2474   25.9132 C.3     1  UNL1        0.0047
@<TRIPOS>BOND
     1    36    37    1
     2    37    38    1
     3    37     1    1
     4     1     2   ar
     5     2     3   ar
     6     3     4   ar
     7     4     5   ar
     8     5     6   ar
     9     6    16    1
    10    16    17    1
    11    16    18    1
    12    16    19    1
    13     4     7    1
    14     7     8    1
    15     8     9    1
    16     9    10   ar
    17    10    11   ar
    18    11    12   ar
    19    12    13   ar
    20    13    20    1
    21    20    21    2
    22    20    22   am
    23    22    24    1
    24    24    25    1
    25    24    26    1
    26    26    27   ar
    27    27    28   ar
    28    28    29   ar
    29    29    32    1
    30    32    33    2
    31    32    34    1
    32    29    30   ar
    33    30    31   ar
    34    13    14   ar
    35    14    15    1
    36     6     1   ar
    37    14     9   ar
    38    15     3    1
    39    31    26   ar
    40    22    23    1
    41    34    35    1
@<TRIPOS>MOLECULE
*****
 38 41 0 0 0
SMALL
GASTEIGER

@<TRIPOS>ATOM
      1 C          -6.5993  -10.5446   31.1317 C.ar    1  UNL1       -0.0156
      2 C          -8.0077  -10.5566   31.1942 C.ar    1  UNL1        0.0328
      3 C          -8.7029  -11.1047   32.2757 C.ar    1  UNL1        0.1409
      4 C          -7.9713  -11.6151   33.3660 C.ar    1  UNL1        0.0126
      5 C          -6.5680  -11.5801   33.3353 C.ar    1  UNL1        0.0023
      6 C          -5.8630  -11.0499   32.2391 C.ar    1  UNL1        0.0674
      7 C          -8.6477  -12.2083   34.5625 C.3     1  UNL1        0.0342
      8 C          -9.5789  -13.3279   34.1215 C.3     1  UNL1        0.0342
      9 C         -10.9385  -12.7772   33.8158 C.ar    1  UNL1        0.0128
     10 C         -12.0477  -13.3854   34.4305 C.ar    1  UNL1       -0.0012
     11 C         -13.3372  -12.9291   34.1851 C.ar    1  UNL1        0.0000
     12 C         -13.5433  -11.8585   33.3247 C.ar    1  UNL1        0.0076
     13 C         -12.4588  -11.2239   32.7003 C.ar    1  UNL1        0.0875
     14 C         -11.1378  -11.6859   32.9269 C.ar    1  UNL1        0.1455
     15 O         -10.1090  -11.0619   32.1888 O.3     1  UNL1       -0.4540
     16 C          -4.3428  -11.0474   32.2701 C.3     1  UNL1        0.4183
     17 F          -3.8386  -11.9793   33.1615 F       1  UNL1       -0.1659
     18 F          -3.8515  -11.3536   31.0138 F       1  UNL1       -0.1659
     19 F          -3.8794   -9.8036   32.6597 F       1  UNL1       -0.1659
     20 C         -12.7466  -10.1035   31.7753 C.2     1  UNL1        0.2490
     21 O         -13.7405  -10.1923   31.0033 O.2     1  UNL1       -0.2700
     22 N         -11.9475   -8.9078   31.7825 N.am    1  UNL1       -0.2986
     23 H         -11.1653   -8.8197   32.4699 H       1  UNL1        0.1500
     24 C         -12.2077   -7.7754   30.8879 C.3     1  UNL1        0.0944
     25 C         -13.4005   -6.9684   31.4161 C.3     1  UNL1        0.0262
     26 C         -10.9315   -6.9740   30.6951 C.ar    1  UNL1       -0.0045
     27 C          -9.7693   -7.4033   31.3578 C.ar    1  UNL1       -0.0025
     28 C          -8.5655   -6.7091   31.2146 C.ar    1  UNL1        0.0062
     29 C          -8.4943   -5.5677   30.4011 C.ar    1  UNL1        0.0754
     30 C          -9.6548   -5.1296   29.7418 C.ar    1  UNL1        0.0062
     31 C         -10.8639   -5.8125   29.8999 C.ar    1  UNL1       -0.0025
     32 C          -7.2201   -4.8297   30.2584 C.2     1  UNL1        0.3380
     33 O          -6.2070   -5.3938   29.7633 O.2     1  UNL1       -0.2451
     34 O          -7.1294   -3.5008   30.6646 O.3     1  UNL1       -0.4771
     35 H          -6.2641   -2.9840   30.5642 H       1  UNL1        0.2954
     36 C          -5.6997  -10.9455   28.7852 C.3     1  UNL1        0.0047
     37 C          -5.9226   -9.9222   29.9098 C.3     1  UNL1        0.0224
     38 C          -6.7288   -8.7199   29.4110 C.3     1  UNL1        0.0047
@<TRIPOS>BOND
     1    36    37    1
     2    37    38    1
     3    37     1    1
     4     1     2   ar
     5     2     3   ar
     6     3     4   ar
     7     4     5   ar
     8     5     6   ar
     9     6    16    1
    10    16    17    1
    11    16    18    1
    12    16    19    1
    13     4     7    1
    14     7     8    1
    15     8     9    1
    16     9    10   ar
    17    10    11   ar
    18    11    12   ar
    19    12    13   ar
    20    13    20    1
    21    20    21    2
    22    20    22   am
    23    22    24    1
    24    24    25    1
    25    24    26    1
    26    26    27   ar
    27    27    28   ar
    28    28    29   ar
    29    29    32    1
    30    32    33    2
    31    32    34    1
    32    29    30   ar
    33    30    31   ar
    34    13    14   ar
    35    14    15    1
    36     6     1   ar
    37    14     9   ar
    38    15     3    1
    39    31    26   ar
    40    22    23    1
    41    34    35    1
