@<TRIPOS>MOLECULE
*****
 35 38 0 0 0
SMALL
GASTEIGER

@<TRIPOS>ATOM
      1 N         -30.1507   49.4883   -6.3647 N.am    1  UNL1       -0.2685
      2 C         -30.2895   50.1408   -7.6366 C.2     1  UNL1        0.2672
      3 O         -31.4302   50.5151   -8.0207 O.2     1  UNL1       -0.2682
      4 C         -29.0996   50.3803   -8.4765 C.ar    1  UNL1        0.1347
      5 C         -27.8851   50.8041   -7.9141 C.ar    1  UNL1        0.0238
      6 C         -26.7666   50.9799   -8.7396 C.ar    1  UNL1        0.0031
      7 C         -25.5369   51.3968   -8.2066 C.ar    1  UNL1        0.0001
      8 C         -24.4301   51.5634   -9.0449 C.ar    1  UNL1        0.0000
      9 C         -24.5421   51.3155  -10.4162 C.ar    1  UNL1        0.0000
     10 C         -25.7617   50.8995  -10.9585 C.ar    1  UNL1        0.0015
     11 C         -26.8780   50.7297  -10.1260 C.ar    1  UNL1        0.0192
     12 C         -28.1096   50.3128  -10.6437 C.ar    1  UNL1        0.0989
     13 N         -29.1747   50.1499   -9.8165 N.ar    1  UNL1       -0.2393
     14 C         -30.1228   51.7825   -5.4242 C.3     1  UNL1        0.0265
     15 C         -30.0383   50.2786   -5.1258 C.3     1  UNL1        0.1007
     16 C         -28.7904   49.8808   -4.3498 C.ar    1  UNL1        0.0234
     17 C         -27.5308   50.4454   -4.6418 C.ar    1  UNL1        0.0019
     18 C         -26.3823   50.0023   -3.9807 C.ar    1  UNL1        0.0295
     19 C         -26.4692   48.9848   -3.0297 C.ar    1  UNL1        0.1424
     20 F         -25.3520   48.5524   -2.3950 F       1  UNL1       -0.2041
     21 C         -27.7052   48.4039   -2.7418 C.ar    1  UNL1        0.0590
     22 C         -28.8595   48.8399   -3.4000 C.ar    1  UNL1        0.1399
     23 F         -30.0396   48.2297   -3.1229 F       1  UNL1       -0.2044
     24 C         -30.0388   48.0253   -6.3267 C.3     1  UNL1        0.1211
     25 C         -28.8622   47.5659   -7.1587 C.ar    1  UNL1        0.0033
     26 C         -27.5775   47.8552   -6.6720 C.ar    1  UNL1       -0.0022
     27 C         -26.4451   47.5094   -7.4009 C.ar    1  UNL1       -0.0000
     28 C         -26.5733   46.8527   -8.6201 C.ar    1  UNL1        0.0068
     29 C         -27.8401   46.5217   -9.1277 C.ar    1  UNL1        0.0806
     30 C         -29.0037   46.8955   -8.4042 C.ar    1  UNL1        0.0339
     31 I         -30.9463   46.5374   -9.2382 I       1  UNL1       -0.0426
     32 C         -27.9006   45.7820  -10.4077 C.2     1  UNL1        0.3384
     33 O         -28.5874   46.2347  -11.3633 O.2     1  UNL1       -0.2451
     34 O         -27.1569   44.6208  -10.5934 O.3     1  UNL1       -0.4771
     35 H         -27.1809   44.1229  -11.4753 H       1  UNL1        0.2954
@<TRIPOS>BOND
     1    14    15    1
     2    15    16    1
     3    16    17   ar
     4    17    18   ar
     5    18    19   ar
     6    19    20    1
     7    19    21   ar
     8    21    22   ar
     9    22    23    1
    10    15     1    1
    11     1    24    1
    12    24    25    1
    13    25    26   ar
    14    26    27   ar
    15    27    28   ar
    16    28    29   ar
    17    29    32    1
    18    32    33    2
    19    32    34    1
    20    29    30   ar
    21    30    31    1
    22     1     2   am
    23     2     3    2
    24     2     4    1
    25     4     5   ar
    26     5     6   ar
    27     6     7   ar
    28     7     8   ar
    29     8     9   ar
    30     9    10   ar
    31    10    11   ar
    32    11    12   ar
    33    12    13   ar
    34    22    16   ar
    35    30    25   ar
    36    13     4   ar
    37    11     6   ar
    38    34    35    1
@<TRIPOS>MOLECULE
*****
 35 38 0 0 0
SMALL
GASTEIGER

@<TRIPOS>ATOM
      1 N         -28.7808   47.7904   -6.8284 N.am    1  UNL1       -0.2685
      2 C         -27.6378   47.4618   -7.6336 C.2     1  UNL1        0.2672
      3 O         -27.4846   46.2785   -8.0398 O.2     1  UNL1       -0.2682
      4 C         -26.6611   48.5094   -7.9902 C.ar    1  UNL1        0.1347
      5 C         -26.4882   48.9206   -9.3214 C.ar    1  UNL1        0.0238
      6 C         -25.5811   49.9477   -9.6139 C.ar    1  UNL1        0.0031
      7 C         -25.3902   50.3853  -10.9339 C.ar    1  UNL1        0.0001
      8 C         -24.4835   51.4142  -11.2069 C.ar    1  UNL1        0.0000
      9 C         -23.7636   52.0121  -10.1683 C.ar    1  UNL1        0.0000
     10 C         -23.9454   51.5849   -8.8496 C.ar    1  UNL1        0.0015
     11 C         -24.8526   50.5532   -8.5653 C.ar    1  UNL1        0.0192
     12 C         -25.0540   50.1082   -7.2537 C.ar    1  UNL1        0.0989
     13 N         -25.9421   49.1116   -7.0028 N.ar    1  UNL1       -0.2393
     14 C         -30.7726   46.8180   -7.9401 C.3     1  UNL1        0.0265
     15 C         -30.0769   48.0994   -7.4584 C.3     1  UNL1        0.1007
     16 C         -29.9040   49.1459   -8.5505 C.ar    1  UNL1        0.0234
     17 C         -30.0380   48.8146   -9.9154 C.ar    1  UNL1        0.0019
     18 C         -29.7871   49.7671  -10.9064 C.ar    1  UNL1        0.0295
     19 C         -29.3888   51.0573  -10.5542 C.ar    1  UNL1        0.1424
     20 F         -29.1394   51.9772  -11.5183 F       1  UNL1       -0.2041
     21 C         -29.2349   51.3961   -9.2089 C.ar    1  UNL1        0.0590
     22 C         -29.4820   50.4485   -8.2106 C.ar    1  UNL1        0.1399
     23 F         -29.2885   50.7997   -6.9141 F       1  UNL1       -0.2044
     24 C         -28.6169   47.8952   -5.3735 C.3     1  UNL1        0.1211
     25 C         -28.0713   46.6016   -4.8110 C.ar    1  UNL1        0.0033
     26 C         -28.6523   45.4067   -5.2643 C.ar    1  UNL1       -0.0022
     27 C         -28.2403   44.1782   -4.7602 C.ar    1  UNL1       -0.0000
     28 C         -27.2285   44.1183   -3.8078 C.ar    1  UNL1        0.0068
     29 C         -26.6040   45.2894   -3.3492 C.ar    1  UNL1        0.0806
     30 C         -27.0369   46.5509   -3.8372 C.ar    1  UNL1        0.0339
     31 I         -26.2029   48.3555   -3.0337 I       1  UNL1       -0.0426
     32 C         -25.5036   45.1484   -2.3702 C.2     1  UNL1        0.3384
     33 O         -24.3092   45.3124   -2.7393 O.2     1  UNL1       -0.2451
     34 O         -25.7736   44.8974   -1.0285 O.3     1  UNL1       -0.4771
     35 H         -25.0233   44.8198   -0.3523 H       1  UNL1        0.2954
@<TRIPOS>BOND
     1    14    15    1
     2    15    16    1
     3    16    17   ar
     4    17    18   ar
     5    18    19   ar
     6    19    20    1
     7    19    21   ar
     8    21    22   ar
     9    22    23    1
    10    15     1    1
    11     1    24    1
    12    24    25    1
    13    25    26   ar
    14    26    27   ar
    15    27    28   ar
    16    28    29   ar
    17    29    32    1
    18    32    33    2
    19    32    34    1
    20    29    30   ar
    21    30    31    1
    22     1     2   am
    23     2     3    2
    24     2     4    1
    25     4     5   ar
    26     5     6   ar
    27     6     7   ar
    28     7     8   ar
    29     8     9   ar
    30     9    10   ar
    31    10    11   ar
    32    11    12   ar
    33    12    13   ar
    34    22    16   ar
    35    30    25   ar
    36    13     4   ar
    37    11     6   ar
    38    34    35    1
@<TRIPOS>MOLECULE
*****
 35 38 0 0 0
SMALL
GASTEIGER

@<TRIPOS>ATOM
      1 N         -25.8102   50.8902   -9.1269 N.am    1  UNL1       -0.2685
      2 C         -24.9603   51.0300  -10.2762 C.2     1  UNL1        0.2672
      3 O         -25.2944   50.4887  -11.3644 O.2     1  UNL1       -0.2682
      4 C         -23.7135   51.8142  -10.1805 C.ar    1  UNL1        0.1347
      5 C         -22.8643   51.6985   -9.0685 C.ar    1  UNL1        0.0238
      6 C         -21.6688   52.4284   -9.0344 C.ar    1  UNL1        0.0031
      7 C         -20.7959   52.3295   -7.9396 C.ar    1  UNL1        0.0001
      8 C         -19.6051   53.0624   -7.9243 C.ar    1  UNL1        0.0000
      9 C         -19.2777   53.8959   -8.9978 C.ar    1  UNL1        0.0000
     10 C         -20.1390   54.0023  -10.0939 C.ar    1  UNL1        0.0015
     11 C         -21.3362   53.2713  -10.1187 C.ar    1  UNL1        0.0192
     12 C         -22.2148   53.3590  -11.2047 C.ar    1  UNL1        0.0989
     13 N         -23.3653   52.6370  -11.2082 N.ar    1  UNL1       -0.2393
     14 C         -27.0474   52.2712   -7.4804 C.3     1  UNL1        0.0265
     15 C         -26.9642   51.7866   -8.9352 C.3     1  UNL1        0.1007
     16 C         -28.2426   51.1251   -9.4309 C.ar    1  UNL1        0.0234
     17 C         -29.1326   50.4854   -8.5423 C.ar    1  UNL1        0.0019
     18 C         -30.2540   49.8060   -9.0255 C.ar    1  UNL1        0.0295
     19 C         -30.4989   49.7439  -10.3979 C.ar    1  UNL1        0.1424
     20 F         -31.5840   49.0781  -10.8638 F       1  UNL1       -0.2041
     21 C         -29.6187   50.3568  -11.2911 C.ar    1  UNL1        0.0590
     22 C         -28.4929   51.0372  -10.8165 C.ar    1  UNL1        0.1399
     23 F         -27.6382   51.5915  -11.7131 F       1  UNL1       -0.2044
     24 C         -25.4628   49.8955   -8.1048 C.3     1  UNL1        0.1211
     25 C         -26.3690   48.6896   -8.2148 C.ar    1  UNL1        0.0033
     26 C         -26.5308   48.1198   -9.4876 C.ar    1  UNL1       -0.0022
     27 C         -27.3842   47.0393   -9.6810 C.ar    1  UNL1       -0.0000
     28 C         -28.0779   46.4962   -8.6048 C.ar    1  UNL1        0.0068
     29 C         -27.9219   47.0209   -7.3116 C.ar    1  UNL1        0.0806
     30 C         -27.0742   48.1421   -7.1085 C.ar    1  UNL1        0.0339
     31 I         -26.9453   49.0524   -5.1714 I       1  UNL1       -0.0426
     32 C         -28.6544   46.3647   -6.2062 C.2     1  UNL1        0.3384
     33 O         -29.7907   46.7913   -5.8647 O.2     1  UNL1       -0.2451
     34 O         -28.1317   45.2394   -5.5765 O.3     1  UNL1       -0.4771
     35 H         -28.6399   44.7762   -4.8325 H       1  UNL1        0.2954
@<TRIPOS>BOND
     1    14    15    1
     2    15    16    1
     3    16    17   ar
     4    17    18   ar
     5    18    19   ar
     6    19    20    1
     7    19    21   ar
     8    21    22   ar
     9    22    23    1
    10    15     1    1
    11     1    24    1
    12    24    25    1
    13    25    26   ar
    14    26    27   ar
    15    27    28   ar
    16    28    29   ar
    17    29    32    1
    18    32    33    2
    19    32    34    1
    20    29    30   ar
    21    30    31    1
    22     1     2   am
    23     2     3    2
    24     2     4    1
    25     4     5   ar
    26     5     6   ar
    27     6     7   ar
    28     7     8   ar
    29     8     9   ar
    30     9    10   ar
    31    10    11   ar
    32    11    12   ar
    33    12    13   ar
    34    22    16   ar
    35    30    25   ar
    36    13     4   ar
    37    11     6   ar
    38    34    35    1
@<TRIPOS>MOLECULE
*****
 35 38 0 0 0
SMALL
GASTEIGER

@<TRIPOS>ATOM
      1 N         -26.2087   50.5169   -8.8913 N.am    1  UNL1       -0.2685
      2 C         -25.7060   51.7857   -9.3388 C.2     1  UNL1        0.2672
      3 O         -26.4595   52.7958   -9.3124 O.2     1  UNL1       -0.2682
      4 C         -24.3127   51.9017   -9.8119 C.ar    1  UNL1        0.1347
      5 C         -23.2456   52.0308   -8.9087 C.ar    1  UNL1        0.0238
      6 C         -21.9335   52.0959   -9.3958 C.ar    1  UNL1        0.0031
      7 C         -20.8450   52.2190   -8.5181 C.ar    1  UNL1        0.0001
      8 C         -19.5419   52.2787   -9.0218 C.ar    1  UNL1        0.0000
      9 C         -19.3163   52.2157  -10.4000 C.ar    1  UNL1        0.0000
     10 C         -20.3924   52.0928  -11.2840 C.ar    1  UNL1        0.0015
     11 C         -21.7036   52.0323  -10.7887 C.ar    1  UNL1        0.0192
     12 C         -22.7979   51.9078  -11.6523 C.ar    1  UNL1        0.0989
     13 N         -24.0578   51.8455  -11.1485 N.ar    1  UNL1       -0.2393
     14 C         -25.6225   48.7737   -7.2281 C.3     1  UNL1        0.0265
     15 C         -26.2084   50.1744   -7.4579 C.3     1  UNL1        0.1007
     16 C         -27.5983   50.3581   -6.8645 C.ar    1  UNL1        0.0234
     17 C         -28.4955   49.2760   -6.7425 C.ar    1  UNL1        0.0019
     18 C         -29.7979   49.4808   -6.2797 C.ar    1  UNL1        0.0295
     19 C         -30.2288   50.7647   -5.9432 C.ar    1  UNL1        0.1424
     20 F         -31.4952   50.9610   -5.5009 F       1  UNL1       -0.2041
     21 C         -29.3589   51.8483   -6.0746 C.ar    1  UNL1        0.0590
     22 C         -28.0543   51.6528   -6.5388 C.ar    1  UNL1        0.1399
     23 F         -27.2456   52.7322   -6.6889 F       1  UNL1       -0.2044
     24 C         -26.6451   49.5345   -9.8909 C.3     1  UNL1        0.1211
     25 C         -28.1543   49.5183   -9.9887 C.ar    1  UNL1        0.0033
     26 C         -28.8037   50.7550  -10.1289 C.ar    1  UNL1       -0.0022
     27 C         -30.1913   50.8295  -10.1772 C.ar    1  UNL1       -0.0000
     28 C         -30.9555   49.6698  -10.1045 C.ar    1  UNL1        0.0068
     29 C         -30.3423   48.4116   -9.9911 C.ar    1  UNL1        0.0806
     30 C         -28.9267   48.3273   -9.9128 C.ar    1  UNL1        0.0339
     31 I         -27.9818   46.4310   -9.5831 I       1  UNL1       -0.0426
     32 C         -31.2147   47.2169   -9.9658 C.2     1  UNL1        0.3384
     33 O         -31.5841   46.6854  -11.0478 O.2     1  UNL1       -0.2451
     34 O         -31.5839   46.6319   -8.7586 O.3     1  UNL1       -0.4771
     35 H         -32.1650   45.8023   -8.7385 H       1  UNL1        0.2954
@<TRIPOS>BOND
     1    14    15    1
     2    15    16    1
     3    16    17   ar
     4    17    18   ar
     5    18    19   ar
     6    19    20    1
     7    19    21   ar
     8    21    22   ar
     9    22    23    1
    10    15     1    1
    11     1    24    1
    12    24    25    1
    13    25    26   ar
    14    26    27   ar
    15    27    28   ar
    16    28    29   ar
    17    29    32    1
    18    32    33    2
    19    32    34    1
    20    29    30   ar
    21    30    31    1
    22     1     2   am
    23     2     3    2
    24     2     4    1
    25     4     5   ar
    26     5     6   ar
    27     6     7   ar
    28     7     8   ar
    29     8     9   ar
    30     9    10   ar
    31    10    11   ar
    32    11    12   ar
    33    12    13   ar
    34    22    16   ar
    35    30    25   ar
    36    13     4   ar
    37    11     6   ar
    38    34    35    1
@<TRIPOS>MOLECULE
*****
 35 38 0 0 0
SMALL
GASTEIGER

@<TRIPOS>ATOM
      1 N         -28.4554   50.2825   -5.5527 N.am    1  UNL1       -0.2685
      2 C         -29.1701   51.1985   -6.3971 C.2     1  UNL1        0.2672
      3 O         -29.2960   52.4011   -6.0413 O.2     1  UNL1       -0.2682
      4 C         -29.7385   50.7317   -7.6768 C.ar    1  UNL1        0.1347
      5 C         -29.2370   51.1886   -8.9059 C.ar    1  UNL1        0.0238
      6 C         -29.7755   50.6897  -10.0993 C.ar    1  UNL1        0.0031
      7 C         -29.2915   51.1222  -11.3438 C.ar    1  UNL1        0.0001
      8 C         -29.8383   50.6105  -12.5247 C.ar    1  UNL1        0.0000
      9 C         -30.8682   49.6666  -12.4724 C.ar    1  UNL1        0.0000
     10 C         -31.3583   49.2280  -11.2387 C.ar    1  UNL1        0.0015
     11 C         -30.8165   49.7354  -10.0483 C.ar    1  UNL1        0.0192
     12 C         -31.2884   49.3116   -8.8006 C.ar    1  UNL1        0.0989
     13 N         -30.7438   49.8132   -7.6617 N.ar    1  UNL1       -0.2393
     14 C         -26.3366   51.2295   -4.6796 C.3     1  UNL1        0.0265
     15 C         -26.9853   50.1983   -5.6143 C.3     1  UNL1        0.1007
     16 C         -26.5046   50.2953   -7.0556 C.ar    1  UNL1        0.0234
     17 C         -26.1679   51.5359   -7.6373 C.ar    1  UNL1        0.0019
     18 C         -25.8156   51.6162   -8.9870 C.ar    1  UNL1        0.0295
     19 C         -25.8046   50.4669   -9.7785 C.ar    1  UNL1        0.1424
     20 F         -25.4691   50.5493  -11.0894 F       1  UNL1       -0.2041
     21 C         -26.1519   49.2347   -9.2224 C.ar    1  UNL1        0.0590
     22 C         -26.5077   49.1454   -7.8729 C.ar    1  UNL1        0.1399
     23 F         -26.8744   47.9385   -7.3723 F       1  UNL1       -0.2044
     24 C         -29.2172   49.3733   -4.6880 C.3     1  UNL1        0.1211
     25 C         -28.9397   47.9346   -5.0632 C.ar    1  UNL1        0.0033
     26 C         -29.7020   47.3824   -6.1049 C.ar    1  UNL1       -0.0022
     27 C         -29.5412   46.0526   -6.4775 C.ar    1  UNL1       -0.0000
     28 C         -28.6044   45.2545   -5.8297 C.ar    1  UNL1        0.0068
     29 C         -27.8039   45.7775   -4.8014 C.ar    1  UNL1        0.0806
     30 C         -27.9801   47.1268   -4.3945 C.ar    1  UNL1        0.0339
     31 I         -26.8775   47.8960   -2.7241 I       1  UNL1       -0.0426
     32 C         -26.7958   44.8850   -4.1879 C.2     1  UNL1        0.3384
     33 O         -25.6206   44.8573   -4.6439 O.2     1  UNL1       -0.2451
     34 O         -27.1112   44.1185   -3.0704 O.3     1  UNL1       -0.4771
     35 H         -26.4175   43.5214   -2.6362 H       1  UNL1        0.2954
@<TRIPOS>BOND
     1    14    15    1
     2    15    16    1
     3    16    17   ar
     4    17    18   ar
     5    18    19   ar
     6    19    20    1
     7    19    21   ar
     8    21    22   ar
     9    22    23    1
    10    15     1    1
    11     1    24    1
    12    24    25    1
    13    25    26   ar
    14    26    27   ar
    15    27    28   ar
    16    28    29   ar
    17    29    32    1
    18    32    33    2
    19    32    34    1
    20    29    30   ar
    21    30    31    1
    22     1     2   am
    23     2     3    2
    24     2     4    1
    25     4     5   ar
    26     5     6   ar
    27     6     7   ar
    28     7     8   ar
    29     8     9   ar
    30     9    10   ar
    31    10    11   ar
    32    11    12   ar
    33    12    13   ar
    34    22    16   ar
    35    30    25   ar
    36    13     4   ar
    37    11     6   ar
    38    34    35    1
@<TRIPOS>MOLECULE
*****
 35 38 0 0 0
SMALL
GASTEIGER

@<TRIPOS>ATOM
      1 N         -28.1605   48.8958   -7.8839 N.am    1  UNL1       -0.2685
      2 C         -27.2848   47.7582   -7.8401 C.2     1  UNL1        0.2672
      3 O         -26.5430   47.5079   -8.8280 O.2     1  UNL1       -0.2682
      4 C         -27.2490   46.9009   -6.6392 C.ar    1  UNL1        0.1347
      5 C         -26.1889   46.9770   -5.7218 C.ar    1  UNL1        0.0238
      6 C         -26.2124   46.1763   -4.5723 C.ar    1  UNL1        0.0031
      7 C         -25.1707   46.2339   -3.6333 C.ar    1  UNL1        0.0001
      8 C         -25.2127   45.4303   -2.4897 C.ar    1  UNL1        0.0000
      9 C         -26.2910   44.5667   -2.2755 C.ar    1  UNL1        0.0000
     10 C         -27.3346   44.5008   -3.2034 C.ar    1  UNL1        0.0015
     11 C         -27.3017   45.3029   -4.3540 C.ar    1  UNL1        0.0192
     12 C         -28.3345   45.2568   -5.2975 C.ar    1  UNL1        0.0989
     13 N         -28.2829   46.0472   -6.4009 N.ar    1  UNL1       -0.2393
     14 C         -28.8183   51.2432   -7.4304 C.3     1  UNL1        0.0265
     15 C         -27.6618   50.2387   -7.5376 C.3     1  UNL1        0.1007
     16 C         -26.5691   50.6690   -8.5064 C.ar    1  UNL1        0.0234
     17 C         -26.8209   50.8010   -9.8885 C.ar    1  UNL1        0.0019
     18 C         -25.7847   51.1088  -10.7739 C.ar    1  UNL1        0.0295
     19 C         -24.4835   51.2781  -10.2989 C.ar    1  UNL1        0.1424
     20 F         -23.4792   51.5699  -11.1616 F       1  UNL1       -0.2041
     21 C         -24.2147   51.1339   -8.9369 C.ar    1  UNL1        0.0590
     22 C         -25.2454   50.8240   -8.0439 C.ar    1  UNL1        0.1399
     23 F         -24.9441   50.6555   -6.7314 F       1  UNL1       -0.2044
     24 C         -29.5791   48.6870   -8.1979 C.3     1  UNL1        0.1211
     25 C         -29.7908   48.6790   -9.6955 C.ar    1  UNL1        0.0033
     26 C         -29.9186   49.9226  -10.3343 C.ar    1  UNL1       -0.0022
     27 C         -30.1632   49.9997  -11.7008 C.ar    1  UNL1       -0.0000
     28 C         -30.2669   48.8377  -12.4580 C.ar    1  UNL1        0.0068
     29 C         -30.1181   47.5757  -11.8606 C.ar    1  UNL1        0.0806
     30 C         -29.8959   47.4856  -10.4607 C.ar    1  UNL1        0.0339
     31 I         -29.8220   45.5663   -9.5077 I       1  UNL1       -0.0426
     32 C         -30.1941   46.3838  -12.7339 C.2     1  UNL1        0.3384
     33 O         -31.3052   46.0205  -13.2062 O.2     1  UNL1       -0.2451
     34 O         -29.0419   45.6915  -13.0935 O.3     1  UNL1       -0.4771
     35 H         -29.0885   44.8868  -13.7072 H       1  UNL1        0.2954
@<TRIPOS>BOND
     1    14    15    1
     2    15    16    1
     3    16    17   ar
     4    17    18   ar
     5    18    19   ar
     6    19    20    1
     7    19    21   ar
     8    21    22   ar
     9    22    23    1
    10    15     1    1
    11     1    24    1
    12    24    25    1
    13    25    26   ar
    14    26    27   ar
    15    27    28   ar
    16    28    29   ar
    17    29    32    1
    18    32    33    2
    19    32    34    1
    20    29    30   ar
    21    30    31    1
    22     1     2   am
    23     2     3    2
    24     2     4    1
    25     4     5   ar
    26     5     6   ar
    27     6     7   ar
    28     7     8   ar
    29     8     9   ar
    30     9    10   ar
    31    10    11   ar
    32    11    12   ar
    33    12    13   ar
    34    22    16   ar
    35    30    25   ar
    36    13     4   ar
    37    11     6   ar
    38    34    35    1
@<TRIPOS>MOLECULE
*****
 35 38 0 0 0
SMALL
GASTEIGER

@<TRIPOS>ATOM
      1 N         -28.6689   49.6704   -5.6733 N.am    1  UNL1       -0.2685
      2 C         -29.3737   50.7789   -6.2541 C.2     1  UNL1        0.2672
      3 O         -29.6065   51.8012   -5.5546 O.2     1  UNL1       -0.2682
      4 C         -29.8071   50.7203   -7.6639 C.ar    1  UNL1        0.1347
      5 C         -29.0473   51.3138   -8.6843 C.ar    1  UNL1        0.0238
      6 C         -29.4709   51.2000  -10.0151 C.ar    1  UNL1        0.0031
      7 C         -28.7299   51.7771  -11.0582 C.ar    1  UNL1        0.0001
      8 C         -29.1657   51.6502  -12.3809 C.ar    1  UNL1        0.0000
      9 C         -30.3396   50.9487  -12.6711 C.ar    1  UNL1        0.0000
     10 C         -31.0858   50.3694  -11.6405 C.ar    1  UNL1        0.0015
     11 C         -30.6572   50.4912  -10.3103 C.ar    1  UNL1        0.0192
     12 C         -31.3853   49.9194   -9.2606 C.ar    1  UNL1        0.0989
     13 N         -30.9469   50.0459   -7.9812 N.ar    1  UNL1       -0.2393
     14 C         -26.6824   50.6946   -4.5995 C.3     1  UNL1        0.0265
     15 C         -27.1962   49.6657   -5.6170 C.3     1  UNL1        0.1007
     16 C         -26.6078   49.8405   -7.0102 C.ar    1  UNL1        0.0234
     17 C         -25.9602   51.0347   -7.3912 C.ar    1  UNL1        0.0019
     18 C         -25.5067   51.2110   -8.7010 C.ar    1  UNL1        0.0295
     19 C         -25.7011   50.2080   -9.6514 C.ar    1  UNL1        0.1424
     20 F         -25.2659   50.3850  -10.9231 F       1  UNL1       -0.2041
     21 C         -26.3553   49.0277   -9.2949 C.ar    1  UNL1        0.0590
     22 C         -26.8142   48.8435   -7.9868 C.ar    1  UNL1        0.1399
     23 F         -27.4777   47.6996   -7.6821 F       1  UNL1       -0.2044
     24 C         -29.4349   48.5060   -5.2127 C.3     1  UNL1        0.1211
     25 C         -29.9717   48.7470   -3.8194 C.ar    1  UNL1        0.0033
     26 C         -31.0626   49.6215   -3.6922 C.ar    1  UNL1       -0.0022
     27 C         -31.5838   49.9329   -2.4413 C.ar    1  UNL1       -0.0000
     28 C         -31.0375   49.3635   -1.2960 C.ar    1  UNL1        0.0068
     29 C         -29.9634   48.4632   -1.3840 C.ar    1  UNL1        0.0806
     30 C         -29.4059   48.1604   -2.6547 C.ar    1  UNL1        0.0339
     31 I         -27.6686   46.9114   -2.7937 I       1  UNL1       -0.0426
     32 C         -29.4624   47.8597   -0.1294 C.2     1  UNL1        0.3384
     33 O         -28.9741   48.5953    0.7706 O.2     1  UNL1       -0.2451
     34 O         -29.5800   46.4921    0.0979 O.3     1  UNL1       -0.4771
     35 H         -29.2558   46.0787    0.9641 H       1  UNL1        0.2954
@<TRIPOS>BOND
     1    14    15    1
     2    15    16    1
     3    16    17   ar
     4    17    18   ar
     5    18    19   ar
     6    19    20    1
     7    19    21   ar
     8    21    22   ar
     9    22    23    1
    10    15     1    1
    11     1    24    1
    12    24    25    1
    13    25    26   ar
    14    26    27   ar
    15    27    28   ar
    16    28    29   ar
    17    29    32    1
    18    32    33    2
    19    32    34    1
    20    29    30   ar
    21    30    31    1
    22     1     2   am
    23     2     3    2
    24     2     4    1
    25     4     5   ar
    26     5     6   ar
    27     6     7   ar
    28     7     8   ar
    29     8     9   ar
    30     9    10   ar
    31    10    11   ar
    32    11    12   ar
    33    12    13   ar
    34    22    16   ar
    35    30    25   ar
    36    13     4   ar
    37    11     6   ar
    38    34    35    1
@<TRIPOS>MOLECULE
*****
 35 38 0 0 0
SMALL
GASTEIGER

@<TRIPOS>ATOM
      1 N         -29.0062   49.6010   -9.1648 N.am    1  UNL1       -0.2685
      2 C         -28.0503   48.5432   -8.9912 C.2     1  UNL1        0.2672
      3 O         -27.1881   48.3331   -9.8863 O.2     1  UNL1       -0.2682
      4 C         -28.0746   47.7210   -7.7656 C.ar    1  UNL1        0.1347
      5 C         -26.9074   47.4912   -7.0200 C.ar    1  UNL1        0.0238
      6 C         -26.9795   46.7401   -5.8394 C.ar    1  UNL1        0.0031
      7 C         -25.8316   46.4982   -5.0688 C.ar    1  UNL1        0.0001
      8 C         -25.9229   45.7497   -3.8912 C.ar    1  UNL1        0.0000
      9 C         -27.1563   45.2395   -3.4753 C.ar    1  UNL1        0.0000
     10 C         -28.3066   45.4741   -4.2344 C.ar    1  UNL1        0.0015
     11 C         -28.2254   46.2237   -5.4174 C.ar    1  UNL1        0.0192
     12 C         -29.3623   46.4741   -6.1945 C.ar    1  UNL1        0.0989
     13 N         -29.2594   47.2075   -7.3331 N.ar    1  UNL1       -0.2393
     14 C         -27.8447   51.6531   -9.9317 C.3     1  UNL1        0.0265
     15 C         -28.6593   50.9893   -8.8120 C.3     1  UNL1        0.1007
     16 C         -27.9788   51.0405   -7.4512 C.ar    1  UNL1        0.0234
     17 C         -26.5755   51.1287   -7.3328 C.ar    1  UNL1        0.0019
     18 C         -25.9636   51.0836   -6.0775 C.ar    1  UNL1        0.0295
     19 C         -26.7370   50.9386   -4.9251 C.ar    1  UNL1        0.1424
     20 F         -26.1396   50.8882   -3.7091 F       1  UNL1       -0.2041
     21 C         -28.1251   50.8327   -5.0264 C.ar    1  UNL1        0.0590
     22 C         -28.7458   50.8750   -6.2788 C.ar    1  UNL1        0.1399
     23 F         -30.0938   50.7333   -6.3450 F       1  UNL1       -0.2044
     24 C         -30.3607   49.2652   -9.6200 C.3     1  UNL1        0.1211
     25 C         -30.3758   49.0568  -11.1179 C.ar    1  UNL1        0.0033
     26 C         -30.3490   50.2033  -11.9277 C.ar    1  UNL1       -0.0022
     27 C         -30.4090   50.0985  -13.3129 C.ar    1  UNL1       -0.0000
     28 C         -30.4785   48.8472  -13.9159 C.ar    1  UNL1        0.0068
     29 C         -30.4800   47.6760  -13.1414 C.ar    1  UNL1        0.0806
     30 C         -30.4474   47.7733  -11.7248 C.ar    1  UNL1        0.0339
     31 I         -30.6065   46.0040  -10.5242 I       1  UNL1       -0.0426
     32 C         -30.5087   46.3778  -13.8507 C.2     1  UNL1        0.3384
     33 O         -31.5754   45.9818  -14.3938 O.2     1  UNL1       -0.2451
     34 O         -29.3534   45.6133  -13.9810 O.3     1  UNL1       -0.4771
     35 H         -29.3655   44.7335  -14.4830 H       1  UNL1        0.2954
@<TRIPOS>BOND
     1    14    15    1
     2    15    16    1
     3    16    17   ar
     4    17    18   ar
     5    18    19   ar
     6    19    20    1
     7    19    21   ar
     8    21    22   ar
     9    22    23    1
    10    15     1    1
    11     1    24    1
    12    24    25    1
    13    25    26   ar
    14    26    27   ar
    15    27    28   ar
    16    28    29   ar
    17    29    32    1
    18    32    33    2
    19    32    34    1
    20    29    30   ar
    21    30    31    1
    22     1     2   am
    23     2     3    2
    24     2     4    1
    25     4     5   ar
    26     5     6   ar
    27     6     7   ar
    28     7     8   ar
    29     8     9   ar
    30     9    10   ar
    31    10    11   ar
    32    11    12   ar
    33    12    13   ar
    34    22    16   ar
    35    30    25   ar
    36    13     4   ar
    37    11     6   ar
    38    34    35    1
@<TRIPOS>MOLECULE
*****
 35 38 0 0 0
SMALL
GASTEIGER

@<TRIPOS>ATOM
      1 N         -27.9615   48.1207   -6.0032 N.am    1  UNL1       -0.2685
      2 C         -27.6610   47.1477   -7.0160 C.2     1  UNL1        0.2672
      3 O         -26.5368   46.5777   -7.0146 O.2     1  UNL1       -0.2682
      4 C         -28.6703   46.8127   -8.0396 C.ar    1  UNL1        0.1347
      5 C         -28.3993   46.9704   -9.4080 C.ar    1  UNL1        0.0238
      6 C         -29.3685   46.6016  -10.3503 C.ar    1  UNL1        0.0031
      7 C         -29.1255   46.7415  -11.7256 C.ar    1  UNL1        0.0001
      8 C         -30.1029   46.3646  -12.6519 C.ar    1  UNL1        0.0000
      9 C         -31.3253   45.8468  -12.2140 C.ar    1  UNL1        0.0000
     10 C         -31.5788   45.7025  -10.8467 C.ar    1  UNL1        0.0015
     11 C         -30.6048   46.0779   -9.9094 C.ar    1  UNL1        0.0192
     12 C         -30.8332   45.9422   -8.5352 C.ar    1  UNL1        0.0989
     13 N         -29.8724   46.3072   -7.6472 N.ar    1  UNL1       -0.2393
     14 C         -28.8220   48.9119   -3.8164 C.3     1  UNL1        0.0265
     15 C         -28.4523   47.6970   -4.6796 C.3     1  UNL1        0.1007
     16 C         -27.4543   46.7587   -4.0152 C.ar    1  UNL1        0.0234
     17 C         -26.2483   47.2388   -3.4621 C.ar    1  UNL1        0.0019
     18 C         -25.3041   46.3524   -2.9375 C.ar    1  UNL1        0.0295
     19 C         -25.5411   44.9775   -2.9662 C.ar    1  UNL1        0.1424
     20 F         -24.6199   44.1198   -2.4626 F       1  UNL1       -0.2041
     21 C         -26.7215   44.4855   -3.5255 C.ar    1  UNL1        0.0590
     22 C         -27.6711   45.3653   -4.0545 C.ar    1  UNL1        0.1399
     23 F         -28.7917   44.8525   -4.6230 F       1  UNL1       -0.2044
     24 C         -27.8519   49.5464   -6.3346 C.3     1  UNL1        0.1211
     25 C         -28.8399   49.9117   -7.4200 C.ar    1  UNL1        0.0033
     26 C         -30.2025   49.7211   -7.1409 C.ar    1  UNL1       -0.0022
     27 C         -31.1706   49.9872   -8.1028 C.ar    1  UNL1       -0.0000
     28 C         -30.7980   50.4655   -9.3544 C.ar    1  UNL1        0.0068
     29 C         -29.4474   50.6949   -9.6626 C.ar    1  UNL1        0.0806
     30 C         -28.4490   50.3996   -8.6967 C.ar    1  UNL1        0.0339
     31 I         -26.3748   50.5957   -9.2036 I       1  UNL1       -0.0426
     32 C         -29.1269   51.2484  -10.9968 C.2     1  UNL1        0.3384
     33 O         -28.6612   52.4157  -11.0976 O.2     1  UNL1       -0.2451
     34 O         -29.2743   50.4726  -12.1424 O.3     1  UNL1       -0.4771
     35 H         -29.0371   50.8421  -13.0553 H       1  UNL1        0.2954
@<TRIPOS>BOND
     1    14    15    1
     2    15    16    1
     3    16    17   ar
     4    17    18   ar
     5    18    19   ar
     6    19    20    1
     7    19    21   ar
     8    21    22   ar
     9    22    23    1
    10    15     1    1
    11     1    24    1
    12    24    25    1
    13    25    26   ar
    14    26    27   ar
    15    27    28   ar
    16    28    29   ar
    17    29    32    1
    18    32    33    2
    19    32    34    1
    20    29    30   ar
    21    30    31    1
    22     1     2   am
    23     2     3    2
    24     2     4    1
    25     4     5   ar
    26     5     6   ar
    27     6     7   ar
    28     7     8   ar
    29     8     9   ar
    30     9    10   ar
    31    10    11   ar
    32    11    12   ar
    33    12    13   ar
    34    22    16   ar
    35    30    25   ar
    36    13     4   ar
    37    11     6   ar
    38    34    35    1
