@<TRIPOS>MOLECULE
*****
 52 57 0 0 0
SMALL
GASTEIGER

@<TRIPOS>ATOM
      1 N          -7.8366  -11.4884   32.1251 N.am    1  UNL1       -0.2945
      2 C          -8.5923  -11.4439   30.9027 C.2     1  UNL1        0.2483
      3 O          -9.5353  -10.6159   30.7747 O.2     1  UNL1       -0.2701
      4 H          -7.0398  -12.1587   32.1693 H       1  UNL1        0.1501
      5 C          -8.2204  -12.3004   29.7530 C.ar    1  UNL1        0.0808
      6 C          -6.9134  -12.2339   29.2426 C.ar    1  UNL1        0.0080
      7 C          -6.5047  -13.0938   28.2209 C.ar    1  UNL1        0.0148
      8 C          -7.3997  -14.0290   27.6788 C.ar    1  UNL1        0.0502
      9 C          -8.7141  -14.0785   28.1663 C.ar    1  UNL1        0.0443
     10 C          -9.1275  -13.2192   29.1895 C.ar    1  UNL1        0.1457
     11 F         -10.4205  -13.2670   29.5980 F       1  UNL1       -0.2040
     12 N          -6.9801  -14.9280   26.6347 N.pl3   1  UNL1       -0.3040
     13 C          -5.5552  -15.2377   26.4678 C.3     1  UNL1        0.1122
     14 C          -5.2210  -15.3700   24.9834 C.3     1  UNL1        0.1122
     15 N          -6.1835  -16.2669   24.3331 N.pl3   1  UNL1       -0.3041
     16 C          -7.6117  -15.9708   24.4951 C.3     1  UNL1        0.1122
     17 C          -7.9546  -15.8087   25.9784 C.3     1  UNL1        0.1122
     18 C          -5.7378  -17.1840   23.3160 C.ar    1  UNL1        0.0479
     19 C          -4.3685  -17.4407   23.1503 C.ar    1  UNL1        0.0145
     20 C          -3.9284  -18.3327   22.1684 C.ar    1  UNL1        0.0051
     21 C          -4.8500  -18.9716   21.3213 C.ar    1  UNL1        0.0715
     22 C          -6.2229  -18.7358   21.5074 C.ar    1  UNL1        0.0051
     23 C          -6.6623  -17.8441   22.4901 C.ar    1  UNL1        0.0145
     24 C          -4.3788  -19.9712   20.2953 C.3     1  UNL1        0.4186
     25 F          -3.6347  -19.3171   19.3313 F       1  UNL1       -0.1659
     26 F          -5.4561  -20.5934   19.6883 F       1  UNL1       -0.1659
     27 F          -3.5938  -20.9458   20.8868 F       1  UNL1       -0.1659
     28 C          -7.8716  -10.3975   33.1089 C.3     1  UNL1        0.1535
     29 C          -7.7381   -9.0461   32.4426 C.2     1  UNL1        0.2443
     30 O          -6.5813   -8.6204   32.1756 O.2     1  UNL1       -0.2730
     31 N          -8.8848   -8.2132   32.1891 N.am    1  UNL1       -0.2825
     32 H          -9.7761   -8.4179   32.6910 H       1  UNL1        0.1549
     33 C          -8.8402   -7.0120   31.4015 C.ar    1  UNL1        0.0535
     34 C          -9.9593   -6.6442   30.6420 C.ar    1  UNL1        0.0353
     35 C          -9.9128   -5.4898   29.8569 C.ar    1  UNL1        0.1002
     36 N          -8.7818   -4.7368   29.8181 N.ar    1  UNL1       -0.2422
     37 C          -7.6744   -5.0782   30.5287 C.ar    1  UNL1        0.1002
     38 C          -7.6791   -6.2244   31.3276 C.ar    1  UNL1        0.0353
     39 C          -9.1365  -10.4819   33.9928 C.3     1  UNL1        0.0569
     40 C         -12.3672  -14.6775   33.4180 C.ar    1  UNL1        0.0361
     41 C         -12.2534  -13.5489   32.5599 C.ar    1  UNL1        0.0029
     42 C         -11.2805  -12.5632   32.7921 C.ar    1  UNL1        0.0013
     43 C         -10.4442  -12.7144   33.8943 C.ar    1  UNL1        0.0131
     44 C          -9.4731  -11.8846   34.4223 C.ar    1  UNL1       -0.0017
     45 C          -8.9884  -12.5464   35.5469 C.ar    1  UNL1        0.0681
     46 N          -9.6340  -13.7227   35.7172 N.ar    1  UNL1       -0.3523
     47 C         -10.5225  -13.8089   34.7117 C.ar    1  UNL1        0.0564
     48 C         -11.4688  -14.8114   34.5053 C.ar    1  UNL1        0.0198
     49 H          -9.4955  -14.4035   36.4968 H       1  UNL1        0.1660
     50 C         -13.2144  -16.8558   32.2646 C.3     1  UNL1        0.0773
     51 C         -13.4204  -15.7018   33.1988 C.2     1  UNL1        0.1735
     52 O         -14.5210  -15.6084   33.8073 O.2     1  UNL1       -0.2913
@<TRIPOS>BOND
     1    50    51    1
     2    51    52    2
     3    51    40    1
     4    40    41   ar
     5    41    42   ar
     6    42    43   ar
     7    43    44   ar
     8    44    39    1
     9    39    28    1
    10    28     1    1
    11     1     2   am
    12     2     3    2
    13     2     5    1
    14     5     6   ar
    15     6     7   ar
    16     7     8   ar
    17     8    12    1
    18    12    13    1
    19    13    14    1
    20    14    15    1
    21    15    18    1
    22    18    19   ar
    23    19    20   ar
    24    20    21   ar
    25    21    24    1
    26    24    25    1
    27    24    26    1
    28    24    27    1
    29    21    22   ar
    30    22    23   ar
    31    15    16    1
    32    16    17    1
    33     8     9   ar
    34     9    10   ar
    35    10    11    1
    36    28    29    1
    37    29    30    2
    38    29    31   am
    39    31    33    1
    40    33    34   ar
    41    34    35   ar
    42    35    36   ar
    43    36    37   ar
    44    37    38   ar
    45    44    45   ar
    46    45    46   ar
    47    46    47   ar
    48    47    48   ar
    49    48    40   ar
    50    47    43   ar
    51    10     5   ar
    52    38    33   ar
    53    17    12    1
    54    23    18   ar
    55     1     4    1
    56    31    32    1
    57    46    49    1
@<TRIPOS>MOLECULE
*****
 52 57 0 0 0
SMALL
GASTEIGER

@<TRIPOS>ATOM
      1 N          -8.4299  -11.8192   32.2954 N.am    1  UNL1       -0.2945
      2 C          -8.4213  -11.3123   30.9499 C.2     1  UNL1        0.2483
      3 O          -8.5041  -10.0706   30.7439 O.2     1  UNL1       -0.2701
      4 H          -8.3159  -12.8479   32.4183 H       1  UNL1        0.1501
      5 C          -8.2264  -12.2251   29.7999 C.ar    1  UNL1        0.0808
      6 C          -6.9516  -12.3358   29.2202 C.ar    1  UNL1        0.0080
      7 C          -6.7138  -13.2550   28.1961 C.ar    1  UNL1        0.0148
      8 C          -7.7502  -14.0732   27.7210 C.ar    1  UNL1        0.0502
      9 C          -9.0313  -13.9451   28.2778 C.ar    1  UNL1        0.0443
     10 C          -9.2738  -13.0258   29.3036 C.ar    1  UNL1        0.1457
     11 F         -10.5379  -12.8998   29.7804 F       1  UNL1       -0.2040
     12 N          -7.5079  -15.0329   26.6748 N.pl3   1  UNL1       -0.3040
     13 C          -6.1334  -15.3015   26.2353 C.3     1  UNL1        0.1122
     14 C          -6.1048  -15.5340   24.7261 C.3     1  UNL1        0.1122
     15 N          -7.1324  -16.5129   24.3523 N.pl3   1  UNL1       -0.3041
     16 C          -8.5103  -16.2584   24.7886 C.3     1  UNL1        0.1122
     17 C          -8.5492  -15.9966   26.2966 C.3     1  UNL1        0.1122
     18 C          -6.8580  -17.4876   23.3283 C.ar    1  UNL1        0.0479
     19 C          -5.5374  -17.7272   22.9197 C.ar    1  UNL1        0.0145
     20 C          -5.2627  -18.6746   21.9296 C.ar    1  UNL1        0.0051
     21 C          -6.3069  -19.3880   21.3166 C.ar    1  UNL1        0.0715
     22 C          -7.6264  -19.1680   21.7471 C.ar    1  UNL1        0.0051
     23 C          -7.9003  -18.2208   22.7379 C.ar    1  UNL1        0.0145
     24 C          -6.0064  -20.4452   20.2839 C.3     1  UNL1        0.4186
     25 F          -4.8536  -20.1014   19.6032 F       1  UNL1       -0.1659
     26 F          -7.0485  -20.5552   19.3795 F       1  UNL1       -0.1659
     27 F          -5.8243  -21.6784   20.8856 F       1  UNL1       -0.1659
     28 C          -8.1852  -10.9572   33.4598 C.3     1  UNL1        0.1535
     29 C          -7.4828   -9.6773   33.0638 C.2     1  UNL1        0.2443
     30 O          -8.1262   -8.5946   33.1297 O.2     1  UNL1       -0.2730
     31 N          -6.1415   -9.6836   32.5405 N.am    1  UNL1       -0.2825
     32 H          -5.7422  -10.5815   32.1903 H       1  UNL1        0.1549
     33 C          -5.3647   -8.4946   32.3217 C.ar    1  UNL1        0.0535
     34 C          -4.6481   -7.9339   33.3879 C.ar    1  UNL1        0.0353
     35 C          -3.9099   -6.7653   33.1858 C.ar    1  UNL1        0.1002
     36 N          -3.9005   -6.1672   31.9653 N.ar    1  UNL1       -0.2422
     37 C          -4.6006   -6.6767   30.9174 C.ar    1  UNL1        0.1002
     38 C          -5.3509   -7.8446   31.0762 C.ar    1  UNL1        0.0353
     39 C          -9.4929  -10.6807   34.2356 C.3     1  UNL1        0.0569
     40 C         -12.7408  -14.7533   33.1238 C.ar    1  UNL1        0.0361
     41 C         -11.7434  -14.6932   34.1360 C.ar    1  UNL1        0.0029
     42 C         -11.0288  -13.5078   34.3730 C.ar    1  UNL1        0.0013
     43 C         -11.3128  -12.4011   33.5783 C.ar    1  UNL1        0.0131
     44 C         -10.7270  -11.1509   33.5137 C.ar    1  UNL1       -0.0017
     45 C         -11.4106  -10.4702   32.5101 C.ar    1  UNL1        0.0681
     46 N         -12.3651  -11.2613   31.9691 N.ar    1  UNL1       -0.3523
     47 C         -12.2894  -12.4351   32.6206 C.ar    1  UNL1        0.0564
     48 C         -13.0252  -13.5911   32.3651 C.ar    1  UNL1        0.0198
     49 H         -13.0018  -11.0190   31.1776 H       1  UNL1        0.1660
     50 C         -12.8970  -17.0770   31.9537 C.3     1  UNL1        0.0773
     51 C         -13.4710  -16.0161   32.8436 C.2     1  UNL1        0.1735
     52 O         -14.6044  -16.2119   33.3606 O.2     1  UNL1       -0.2913
@<TRIPOS>BOND
     1    50    51    1
     2    51    52    2
     3    51    40    1
     4    40    41   ar
     5    41    42   ar
     6    42    43   ar
     7    43    44   ar
     8    44    39    1
     9    39    28    1
    10    28     1    1
    11     1     2   am
    12     2     3    2
    13     2     5    1
    14     5     6   ar
    15     6     7   ar
    16     7     8   ar
    17     8    12    1
    18    12    13    1
    19    13    14    1
    20    14    15    1
    21    15    18    1
    22    18    19   ar
    23    19    20   ar
    24    20    21   ar
    25    21    24    1
    26    24    25    1
    27    24    26    1
    28    24    27    1
    29    21    22   ar
    30    22    23   ar
    31    15    16    1
    32    16    17    1
    33     8     9   ar
    34     9    10   ar
    35    10    11    1
    36    28    29    1
    37    29    30    2
    38    29    31   am
    39    31    33    1
    40    33    34   ar
    41    34    35   ar
    42    35    36   ar
    43    36    37   ar
    44    37    38   ar
    45    44    45   ar
    46    45    46   ar
    47    46    47   ar
    48    47    48   ar
    49    48    40   ar
    50    47    43   ar
    51    10     5   ar
    52    38    33   ar
    53    17    12    1
    54    23    18   ar
    55     1     4    1
    56    31    32    1
    57    46    49    1
@<TRIPOS>MOLECULE
*****
 52 57 0 0 0
SMALL
GASTEIGER

@<TRIPOS>ATOM
      1 N         -10.7627  -10.9372   30.1452 N.am    1  UNL1       -0.2945
      2 C          -9.6839  -11.7856   30.5738 C.2     1  UNL1        0.2483
      3 O          -9.3693  -11.8367   31.7943 O.2     1  UNL1       -0.2701
      4 H         -11.0149  -10.9601   29.1342 H       1  UNL1        0.1501
      5 C          -8.9912  -12.6719   29.6103 C.ar    1  UNL1        0.0808
      6 C          -9.7245  -13.6683   28.9451 C.ar    1  UNL1        0.0080
      7 C          -9.1223  -14.4585   27.9636 C.ar    1  UNL1        0.0148
      8 C          -7.7695  -14.2774   27.6370 C.ar    1  UNL1        0.0502
      9 C          -7.0267  -13.3027   28.3196 C.ar    1  UNL1        0.0443
     10 C          -7.6260  -12.5092   29.3032 C.ar    1  UNL1        0.1457
     11 F          -6.8595  -11.6118   29.9728 F       1  UNL1       -0.2040
     12 N          -7.1464  -15.0795   26.6159 N.pl3   1  UNL1       -0.3040
     13 C          -5.7744  -15.5653   26.8059 C.3     1  UNL1        0.1122
     14 C          -5.0252  -15.5445   25.4752 C.3     1  UNL1        0.1122
     15 N          -5.8314  -16.1991   24.4382 N.pl3   1  UNL1       -0.3041
     16 C          -7.2063  -15.7256   24.2404 C.3     1  UNL1        0.1122
     17 C          -7.9606  -15.7157   25.5727 C.3     1  UNL1        0.1122
     18 C          -5.1933  -17.0264   23.4470 C.ar    1  UNL1        0.0479
     19 C          -5.9068  -17.4449   22.3138 C.ar    1  UNL1        0.0145
     20 C          -5.2932  -18.2442   21.3453 C.ar    1  UNL1        0.0051
     21 C          -3.9583  -18.6548   21.5015 C.ar    1  UNL1        0.0715
     22 C          -3.2360  -18.2110   22.6224 C.ar    1  UNL1        0.0051
     23 C          -3.8502  -17.4111   23.5902 C.ar    1  UNL1        0.0145
     24 C          -3.2815  -19.4757   20.4327 C.3     1  UNL1        0.4186
     25 F          -4.1255  -20.4983   20.0419 F       1  UNL1       -0.1659
     26 F          -2.1020  -20.0215   20.9090 F       1  UNL1       -0.1659
     27 F          -2.9817  -18.6926   19.3313 F       1  UNL1       -0.1659
     28 C         -11.7465  -10.3838   31.0859 C.3     1  UNL1        0.1535
     29 C         -12.0915  -11.3762   32.1743 C.2     1  UNL1        0.2443
     30 O         -12.4858  -10.9331   33.2873 O.2     1  UNL1       -0.2730
     31 N         -11.8996  -12.7915   31.9932 N.am    1  UNL1       -0.2825
     32 H         -11.2857  -13.1209   31.2168 H       1  UNL1        0.1549
     33 C         -12.3765  -13.7858   32.9148 C.ar    1  UNL1        0.0535
     34 C         -11.7873  -13.8894   34.1823 C.ar    1  UNL1        0.0353
     35 C         -12.2319  -14.8693   35.0731 C.ar    1  UNL1        0.1002
     36 N         -13.2197  -15.7274   34.7054 N.ar    1  UNL1       -0.2422
     37 C         -13.7972  -15.6638   33.4764 C.ar    1  UNL1        0.1002
     38 C         -13.3831  -14.6979   32.5557 C.ar    1  UNL1        0.0353
     39 C         -11.2670   -9.0345   31.6671 C.3     1  UNL1        0.0569
     40 C          -6.1802   -7.4593   31.7858 C.ar    1  UNL1        0.0361
     41 C          -6.8581   -8.2683   32.7393 C.ar    1  UNL1        0.0029
     42 C          -8.1816   -8.6836   32.5198 C.ar    1  UNL1        0.0013
     43 C          -8.8144   -8.2665   31.3525 C.ar    1  UNL1        0.0131
     44 C         -10.1132   -8.4338   30.9101 C.ar    1  UNL1       -0.0017
     45 C         -10.1779   -7.7741   29.6860 C.ar    1  UNL1        0.0681
     46 N          -8.9834   -7.2140   29.3879 N.ar    1  UNL1       -0.3523
     47 C          -8.1658   -7.5126   30.4128 C.ar    1  UNL1        0.0564
     48 C          -6.8494   -7.0912   30.5926 C.ar    1  UNL1        0.0198
     49 H          -8.7582   -6.6331   28.5499 H       1  UNL1        0.1660
     50 C          -4.1211   -7.1753   33.3583 C.3     1  UNL1        0.0773
     51 C          -4.7941   -6.9855   32.0325 C.2     1  UNL1        0.1735
     52 O          -4.1574   -6.4059   31.1112 O.2     1  UNL1       -0.2913
@<TRIPOS>BOND
     1    50    51    1
     2    51    52    2
     3    51    40    1
     4    40    41   ar
     5    41    42   ar
     6    42    43   ar
     7    43    44   ar
     8    44    39    1
     9    39    28    1
    10    28     1    1
    11     1     2   am
    12     2     3    2
    13     2     5    1
    14     5     6   ar
    15     6     7   ar
    16     7     8   ar
    17     8    12    1
    18    12    13    1
    19    13    14    1
    20    14    15    1
    21    15    18    1
    22    18    19   ar
    23    19    20   ar
    24    20    21   ar
    25    21    24    1
    26    24    25    1
    27    24    26    1
    28    24    27    1
    29    21    22   ar
    30    22    23   ar
    31    15    16    1
    32    16    17    1
    33     8     9   ar
    34     9    10   ar
    35    10    11    1
    36    28    29    1
    37    29    30    2
    38    29    31   am
    39    31    33    1
    40    33    34   ar
    41    34    35   ar
    42    35    36   ar
    43    36    37   ar
    44    37    38   ar
    45    44    45   ar
    46    45    46   ar
    47    46    47   ar
    48    47    48   ar
    49    48    40   ar
    50    47    43   ar
    51    10     5   ar
    52    38    33   ar
    53    17    12    1
    54    23    18   ar
    55     1     4    1
    56    31    32    1
    57    46    49    1
@<TRIPOS>MOLECULE
*****
 52 57 0 0 0
SMALL
GASTEIGER

@<TRIPOS>ATOM
      1 N          -8.1358  -11.6944   32.1905 N.am    1  UNL1       -0.2945
      2 C          -8.5168  -11.3275   30.8534 C.2     1  UNL1        0.2483
      3 O          -8.9697  -10.1732   30.6217 O.2     1  UNL1       -0.2701
      4 H          -7.7267  -12.6432   32.3266 H       1  UNL1        0.1501
      5 C          -8.3009  -12.2604   29.7235 C.ar    1  UNL1        0.0808
      6 C          -7.0187  -12.3707   29.1604 C.ar    1  UNL1        0.0080
      7 C          -6.7612  -13.3073   28.1570 C.ar    1  UNL1        0.0148
      8 C          -7.7850  -14.1436   27.6860 C.ar    1  UNL1        0.0502
      9 C          -9.0735  -14.0163   28.2259 C.ar    1  UNL1        0.0443
     10 C          -9.3356  -13.0797   29.2310 C.ar    1  UNL1        0.1457
     11 F         -10.6061  -12.9559   29.6911 F       1  UNL1       -0.2040
     12 N          -7.5225  -15.1210   26.6613 N.pl3   1  UNL1       -0.3040
     13 C          -6.1429  -15.3691   26.2261 C.3     1  UNL1        0.1122
     14 C          -6.1104  -15.6347   24.7225 C.3     1  UNL1        0.1122
     15 N          -7.1164  -16.6441   24.3721 N.pl3   1  UNL1       -0.3041
     16 C          -8.4993  -16.4102   24.8044 C.3     1  UNL1        0.1122
     17 C          -8.5427  -16.1156   26.3062 C.3     1  UNL1        0.1122
     18 C          -6.8215  -17.6353   23.3698 C.ar    1  UNL1        0.0479
     19 C          -7.8527  -18.4169   22.8274 C.ar    1  UNL1        0.0145
     20 C          -7.5751  -19.3778   21.8512 C.ar    1  UNL1        0.0051
     21 C          -6.2566  -19.5871   21.4119 C.ar    1  UNL1        0.0715
     22 C          -5.2290  -18.7837   21.9348 C.ar    1  UNL1        0.0051
     23 C          -5.5075  -17.8224   22.9106 C.ar    1  UNL1        0.0145
     24 C          -5.9642  -20.5890   20.3234 C.3     1  UNL1        0.4186
     25 F          -5.8455  -21.8473   20.8832 F       1  UNL1       -0.1659
     26 F          -4.7848  -20.2724   19.6716 F       1  UNL1       -0.1659
     27 F          -6.9841  -20.6060   19.3877 F       1  UNL1       -0.1659
     28 C          -7.9201  -10.6957   33.2465 C.3     1  UNL1        0.1535
     29 C          -7.5205   -9.3560   32.6688 C.2     1  UNL1        0.2443
     30 O          -6.3012   -9.1489   32.4214 O.2     1  UNL1       -0.2730
     31 N          -8.4801   -8.2996   32.4789 N.am    1  UNL1       -0.2825
     32 H          -9.3970   -8.3579   32.9731 H       1  UNL1        0.1549
     33 C          -8.1965   -7.0816   31.7710 C.ar    1  UNL1        0.0535
     34 C          -9.1445   -6.5686   30.8751 C.ar    1  UNL1        0.0353
     35 C          -8.8640   -5.3973   30.1676 C.ar    1  UNL1        0.1002
     36 N          -7.6709   -4.7682   30.3360 N.ar    1  UNL1       -0.2422
     37 C          -6.7243   -5.2518   31.1833 C.ar    1  UNL1        0.1002
     38 C          -6.9650   -6.4199   31.9112 C.ar    1  UNL1        0.0353
     39 C          -9.1554  -10.5806   34.1681 C.3     1  UNL1        0.0569
     40 C         -12.5506  -14.5757   33.2288 C.ar    1  UNL1        0.0361
     41 C         -11.5022  -14.5388   34.1892 C.ar    1  UNL1        0.0029
     42 C         -10.7487  -13.3705   34.3878 C.ar    1  UNL1        0.0013
     43 C         -11.0463  -12.2578   33.6065 C.ar    1  UNL1        0.0131
     44 C         -10.4351  -11.0218   33.5103 C.ar    1  UNL1       -0.0017
     45 C         -11.1523  -10.3257   32.5412 C.ar    1  UNL1        0.0681
     46 N         -12.1513  -11.0943   32.0505 N.ar    1  UNL1       -0.3523
     47 C         -12.0706  -12.2692   32.6995 C.ar    1  UNL1        0.0564
     48 C         -12.8455  -13.4075   32.4835 C.ar    1  UNL1        0.0198
     49 H         -12.8213  -10.8374   31.2918 H       1  UNL1        0.1660
     50 C         -12.8288  -16.8881   32.0589 C.3     1  UNL1        0.0773
     51 C         -13.3237  -15.8211   32.9880 C.2     1  UNL1        0.1735
     52 O         -14.4269  -15.9962   33.5734 O.2     1  UNL1       -0.2913
@<TRIPOS>BOND
     1    50    51    1
     2    51    52    2
     3    51    40    1
     4    40    41   ar
     5    41    42   ar
     6    42    43   ar
     7    43    44   ar
     8    44    39    1
     9    39    28    1
    10    28     1    1
    11     1     2   am
    12     2     3    2
    13     2     5    1
    14     5     6   ar
    15     6     7   ar
    16     7     8   ar
    17     8    12    1
    18    12    13    1
    19    13    14    1
    20    14    15    1
    21    15    18    1
    22    18    19   ar
    23    19    20   ar
    24    20    21   ar
    25    21    24    1
    26    24    25    1
    27    24    26    1
    28    24    27    1
    29    21    22   ar
    30    22    23   ar
    31    15    16    1
    32    16    17    1
    33     8     9   ar
    34     9    10   ar
    35    10    11    1
    36    28    29    1
    37    29    30    2
    38    29    31   am
    39    31    33    1
    40    33    34   ar
    41    34    35   ar
    42    35    36   ar
    43    36    37   ar
    44    37    38   ar
    45    44    45   ar
    46    45    46   ar
    47    46    47   ar
    48    47    48   ar
    49    48    40   ar
    50    47    43   ar
    51    10     5   ar
    52    38    33   ar
    53    17    12    1
    54    23    18   ar
    55     1     4    1
    56    31    32    1
    57    46    49    1
