@<TRIPOS>MOLECULE
*****
 40 44 0 0 0
SMALL
GASTEIGER

@<TRIPOS>ATOM
      1 C         -30.7170   49.3221   -9.0385 C.3     1  UNL1        0.1332
      2 N         -29.7252   49.7627  -10.0194 N.ar    1  UNL1       -0.2977
      3 C         -29.7987   49.7145  -11.3794 C.ar    1  UNL1        0.2018
      4 N         -28.7278   50.2651  -12.0059 N.ar    1  UNL1       -0.2130
      5 C         -27.9399   50.6473  -10.9843 C.ar    1  UNL1        0.1061
      6 C         -26.6688   51.2410  -11.0647 C.ar    1  UNL1        0.0610
      7 BR        -25.8731   51.5312  -12.7880 Br      1  UNL1       -0.0471
      8 C         -25.9874   51.5216   -9.8457 C.ar    1  UNL1        0.0950
      9 C         -26.6159   51.1658   -8.6316 C.ar    1  UNL1        0.1406
     10 C         -27.8655   50.5976   -8.5868 C.ar    1  UNL1        0.0327
     11 C         -28.5309   50.3383   -9.7865 C.ar    1  UNL1        0.0794
     12 C         -28.2564   50.3378   -7.1739 C.3     1  UNL1        0.0709
     13 C         -26.9987   50.8196   -6.3769 C.3     1  UNL1        0.1375
     14 C         -26.3315   49.6541   -5.6341 C.3     1  UNL1        0.0439
     15 C         -27.3525   51.9461   -5.3967 C.3     1  UNL1        0.0439
     16 O         -26.0954   51.3228   -7.3639 O.3     1  UNL1       -0.4824
     17 C         -24.6501   52.1402   -9.8169 C.2     1  UNL1        0.2530
     18 O         -24.5581   53.3927   -9.7071 O.2     1  UNL1       -0.2697
     19 N         -23.4699   51.3262   -9.9233 N.am    1  UNL1       -0.2803
     20 H         -23.5822   50.2875   -9.9176 H       1  UNL1        0.1552
     21 C         -22.1317   51.8493   -9.9503 C.ar    1  UNL1        0.0505
     22 C         -21.5116   52.0796  -11.1856 C.ar    1  UNL1        0.0147
     23 C         -20.2144   52.5925  -11.2399 C.ar    1  UNL1        0.0012
     24 C         -19.5329   52.9048  -10.0615 C.ar    1  UNL1        0.0039
     25 C         -20.1563   52.7331   -8.8136 C.ar    1  UNL1        0.0726
     26 C         -21.4529   52.1893   -8.7659 C.ar    1  UNL1        0.0185
     27 C         -19.4141   53.0434   -7.5375 C.3     1  UNL1        0.4186
     28 F         -18.7825   51.8985   -7.0892 F       1  UNL1       -0.1659
     29 F         -20.2890   53.4877   -6.5612 F       1  UNL1       -0.1659
     30 F         -18.4648   54.0289   -7.7473 F       1  UNL1       -0.1659
     31 N         -30.8864   49.1356  -12.1131 N.pl3   1  UNL1       -0.2814
     32 H         -31.8481   49.4814  -11.8968 H       1  UNL1        0.1551
     33 C         -30.7169   48.2489  -13.2331 C.ar    1  UNL1        0.0889
     34 C         -30.8714   48.7126  -14.5566 C.ar    1  UNL1        0.1543
     35 F         -31.2093   50.0021  -14.8092 F       1  UNL1       -0.2028
     36 C         -30.7088   47.8354  -15.6330 C.ar    1  UNL1        0.0310
     37 C         -30.4033   46.4929  -15.4054 C.ar    1  UNL1        0.0033
     38 C         -30.2648   46.0195  -14.0995 C.ar    1  UNL1        0.0128
     39 C         -30.4251   46.8875  -13.0133 C.ar    1  UNL1        0.0733
     40 CL        -30.2130   46.2522  -11.3869 Cl      1  UNL1       -0.0809
@<TRIPOS>BOND
     1     1     2    1
     2     2     3   ar
     3     3    31    1
     4    31    33    1
     5    33    34   ar
     6    34    35    1
     7    34    36   ar
     8    36    37   ar
     9    37    38   ar
    10    38    39   ar
    11    39    40    1
    12     3     4   ar
    13     4     5   ar
    14     5     6   ar
    15     6     7    1
    16     6     8   ar
    17     8    17    1
    18    17    18    2
    19    17    19   am
    20    19    21    1
    21    21    22   ar
    22    22    23   ar
    23    23    24   ar
    24    24    25   ar
    25    25    27    1
    26    27    28    1
    27    27    29    1
    28    27    30    1
    29    25    26   ar
    30     8     9   ar
    31     9    10   ar
    32    10    11   ar
    33    10    12    1
    34    12    13    1
    35    13    14    1
    36    13    15    1
    37    13    16    1
    38    11     2   ar
    39    39    33   ar
    40    11     5   ar
    41    26    21   ar
    42    16     9    1
    43    31    32    1
    44    19    20    1
@<TRIPOS>MOLECULE
*****
 40 44 0 0 0
SMALL
GASTEIGER

@<TRIPOS>ATOM
      1 C         -30.8574   49.8583   -7.4798 C.3     1  UNL1        0.1332
      2 N         -29.4095   49.9336   -7.2852 N.ar    1  UNL1       -0.2977
      3 C         -28.6896   49.6540   -6.1623 C.ar    1  UNL1        0.2018
      4 N         -27.3471   49.7645   -6.3303 N.ar    1  UNL1       -0.2130
      5 C         -27.2315   50.1591   -7.6115 C.ar    1  UNL1        0.1061
      6 C         -26.0486   50.4682   -8.3042 C.ar    1  UNL1        0.0610
      7 BR        -24.3682   50.3902   -7.3784 Br      1  UNL1       -0.0471
      8 C         -26.1643   50.9145   -9.6520 C.ar    1  UNL1        0.0950
      9 C         -27.4581   51.0435  -10.2045 C.ar    1  UNL1        0.1406
     10 C         -28.5947   50.7210   -9.5042 C.ar    1  UNL1        0.0327
     11 C         -28.4702   50.2720   -8.1881 C.ar    1  UNL1        0.0794
     12 C         -29.7979   50.9619  -10.3473 C.3     1  UNL1        0.0709
     13 C         -29.1808   51.5234  -11.6713 C.3     1  UNL1        0.1375
     14 C         -29.6236   52.9717  -11.9202 C.3     1  UNL1        0.0439
     15 C         -29.5366   50.6409  -12.8753 C.3     1  UNL1        0.0439
     16 O         -27.7658   51.4955  -11.4709 O.3     1  UNL1       -0.4824
     17 C         -24.9883   51.2670  -10.4672 C.2     1  UNL1        0.2530
     18 O         -24.7988   50.6658  -11.5590 O.2     1  UNL1       -0.2697
     19 N         -24.0666   52.2743  -10.0168 N.am    1  UNL1       -0.2803
     20 H         -24.3063   52.8158   -9.1562 H       1  UNL1        0.1552
     21 C         -22.8728   52.6464  -10.7247 C.ar    1  UNL1        0.0505
     22 C         -22.9606   53.5646  -11.7796 C.ar    1  UNL1        0.0147
     23 C         -21.8152   53.9473  -12.4799 C.ar    1  UNL1        0.0012
     24 C         -20.5669   53.4368  -12.1172 C.ar    1  UNL1        0.0039
     25 C         -20.4487   52.5570  -11.0274 C.ar    1  UNL1        0.0726
     26 C         -21.6109   52.1540  -10.3446 C.ar    1  UNL1        0.0185
     27 C         -19.1064   51.9820  -10.6494 C.3     1  UNL1        0.4186
     28 F         -18.2875   51.9693  -11.7629 F       1  UNL1       -0.1659
     29 F         -19.2464   50.6882  -10.1776 F       1  UNL1       -0.1659
     30 F         -18.5074   52.7404   -9.6582 F       1  UNL1       -0.1659
     31 N         -29.2640   49.2836   -4.9016 N.pl3   1  UNL1       -0.2814
     32 H         -30.1567   49.7508   -4.6260 H       1  UNL1        0.1551
     33 C         -28.7844   48.1973   -4.0895 C.ar    1  UNL1        0.0889
     34 C         -27.6075   48.3282   -3.3225 C.ar    1  UNL1        0.1543
     35 F         -26.8811   49.4739   -3.3493 F       1  UNL1       -0.2028
     36 C         -27.1527   47.2601   -2.5437 C.ar    1  UNL1        0.0310
     37 C         -27.8537   46.0535   -2.5281 C.ar    1  UNL1        0.0033
     38 C         -29.0101   45.9071   -3.2962 C.ar    1  UNL1        0.0128
     39 C         -29.4758   46.9690   -4.0801 C.ar    1  UNL1        0.0733
     40 CL        -30.9529   46.7476   -5.0091 Cl      1  UNL1       -0.0809
@<TRIPOS>BOND
     1     1     2    1
     2     2     3   ar
     3     3    31    1
     4    31    33    1
     5    33    34   ar
     6    34    35    1
     7    34    36   ar
     8    36    37   ar
     9    37    38   ar
    10    38    39   ar
    11    39    40    1
    12     3     4   ar
    13     4     5   ar
    14     5     6   ar
    15     6     7    1
    16     6     8   ar
    17     8    17    1
    18    17    18    2
    19    17    19   am
    20    19    21    1
    21    21    22   ar
    22    22    23   ar
    23    23    24   ar
    24    24    25   ar
    25    25    27    1
    26    27    28    1
    27    27    29    1
    28    27    30    1
    29    25    26   ar
    30     8     9   ar
    31     9    10   ar
    32    10    11   ar
    33    10    12    1
    34    12    13    1
    35    13    14    1
    36    13    15    1
    37    13    16    1
    38    11     2   ar
    39    39    33   ar
    40    11     5   ar
    41    26    21   ar
    42    16     9    1
    43    31    32    1
    44    19    20    1
@<TRIPOS>MOLECULE
*****
 40 44 0 0 0
SMALL
GASTEIGER

@<TRIPOS>ATOM
      1 C         -25.2159   51.4379  -12.1118 C.3     1  UNL1        0.1332
      2 N         -25.1252   51.3945  -10.6524 N.ar    1  UNL1       -0.2977
      3 C         -24.0109   51.4560   -9.8703 C.ar    1  UNL1        0.2018
      4 N         -24.2750   51.4529   -8.5388 N.ar    1  UNL1       -0.2130
      5 C         -25.6164   51.3561   -8.4942 C.ar    1  UNL1        0.1061
      6 C         -26.4264   51.2668   -7.3494 C.ar    1  UNL1        0.0610
      7 BR        -25.6031   51.2236   -5.6152 Br      1  UNL1       -0.0471
      8 C         -27.8309   51.1226   -7.5379 C.ar    1  UNL1        0.0950
      9 C         -28.3241   51.0534   -8.8599 C.ar    1  UNL1        0.1406
     10 C         -27.5063   51.1565   -9.9586 C.ar    1  UNL1        0.0327
     11 C         -26.1325   51.3106   -9.7634 C.ar    1  UNL1        0.0794
     12 C         -28.3124   51.0467  -11.2054 C.3     1  UNL1        0.0709
     13 C         -29.7610   50.8220  -10.6575 C.3     1  UNL1        0.1375
     14 C         -30.3006   49.4436  -11.0628 C.3     1  UNL1        0.0439
     15 C         -30.7161   51.9286  -11.1244 C.3     1  UNL1        0.0439
     16 O         -29.6398   50.8762   -9.2343 O.3     1  UNL1       -0.4824
     17 C         -28.7694   51.0176   -6.4064 C.2     1  UNL1        0.2530
     18 O         -29.5929   51.9511   -6.2066 O.2     1  UNL1       -0.2697
     19 N         -28.7372   49.8718   -5.5388 N.am    1  UNL1       -0.2803
     20 H         -28.1074   49.0772   -5.7906 H       1  UNL1        0.1552
     21 C         -29.5827   49.7102   -4.3881 C.ar    1  UNL1        0.0505
     22 C         -30.7349   50.4988   -4.2691 C.ar    1  UNL1        0.0147
     23 C         -31.5763   50.3576   -3.1641 C.ar    1  UNL1        0.0012
     24 C         -31.2894   49.4095   -2.1796 C.ar    1  UNL1        0.0039
     25 C         -30.1689   48.5705   -2.3065 C.ar    1  UNL1        0.0726
     26 C         -29.3103   48.7380   -3.4083 C.ar    1  UNL1        0.0185
     27 C         -29.8401   47.5639   -1.2321 C.3     1  UNL1        0.4186
     28 F         -28.6857   46.8881   -1.5804 F       1  UNL1       -0.1659
     29 F         -30.8710   46.6515   -1.0881 F       1  UNL1       -0.1659
     30 F         -29.6451   48.1908   -0.0133 F       1  UNL1       -0.1659
     31 N         -22.6689   51.5107  -10.3729 N.pl3   1  UNL1       -0.2814
     32 H         -22.4219   50.8596  -11.1515 H       1  UNL1        0.1551
     33 C         -21.7103   52.5140   -9.9935 C.ar    1  UNL1        0.0889
     34 C         -21.0652   52.4652   -8.7397 C.ar    1  UNL1        0.1543
     35 F         -21.3499   51.4846   -7.8463 F       1  UNL1       -0.2028
     36 C         -20.1407   53.4521   -8.3852 C.ar    1  UNL1        0.0310
     37 C         -19.8577   54.4981   -9.2645 C.ar    1  UNL1        0.0033
     38 C         -20.5025   54.5657  -10.5007 C.ar    1  UNL1        0.0128
     39 C         -21.4301   53.5839  -10.8675 C.ar    1  UNL1        0.0733
     40 CL        -22.1964   53.6949  -12.4468 Cl      1  UNL1       -0.0809
@<TRIPOS>BOND
     1     1     2    1
     2     2     3   ar
     3     3    31    1
     4    31    33    1
     5    33    34   ar
     6    34    35    1
     7    34    36   ar
     8    36    37   ar
     9    37    38   ar
    10    38    39   ar
    11    39    40    1
    12     3     4   ar
    13     4     5   ar
    14     5     6   ar
    15     6     7    1
    16     6     8   ar
    17     8    17    1
    18    17    18    2
    19    17    19   am
    20    19    21    1
    21    21    22   ar
    22    22    23   ar
    23    23    24   ar
    24    24    25   ar
    25    25    27    1
    26    27    28    1
    27    27    29    1
    28    27    30    1
    29    25    26   ar
    30     8     9   ar
    31     9    10   ar
    32    10    11   ar
    33    10    12    1
    34    12    13    1
    35    13    14    1
    36    13    15    1
    37    13    16    1
    38    11     2   ar
    39    39    33   ar
    40    11     5   ar
    41    26    21   ar
    42    16     9    1
    43    31    32    1
    44    19    20    1
@<TRIPOS>MOLECULE
*****
 40 44 0 0 0
SMALL
GASTEIGER

@<TRIPOS>ATOM
      1 C         -29.1901   50.7667  -12.4246 C.3     1  UNL1        0.1332
      2 N         -29.5633   49.4891  -11.8175 N.ar    1  UNL1       -0.2977
      3 C         -30.3419   48.4989  -12.3376 C.ar    1  UNL1        0.2018
      4 N         -30.4445   47.4059  -11.5392 N.ar    1  UNL1       -0.2130
      5 C         -29.7172   47.7473  -10.4599 C.ar    1  UNL1        0.1061
      6 C         -29.5200   46.9915   -9.2918 C.ar    1  UNL1        0.0610
      7 BR        -30.3894   45.2886   -9.1149 Br      1  UNL1       -0.0471
      8 C         -28.7456   47.5720   -8.2467 C.ar    1  UNL1        0.0950
      9 C         -28.2429   48.8789   -8.4342 C.ar    1  UNL1        0.1406
     10 C         -28.4432   49.5868   -9.5941 C.ar    1  UNL1        0.0327
     11 C         -29.1926   49.0040  -10.6178 C.ar    1  UNL1        0.0794
     12 C         -27.7974   50.9243   -9.4923 C.3     1  UNL1        0.0709
     13 C         -27.2023   50.9075   -8.0450 C.3     1  UNL1        0.1375
     14 C         -27.8617   51.9746   -7.1607 C.3     1  UNL1        0.0439
     15 C         -25.6792   51.0934   -8.0617 C.3     1  UNL1        0.0439
     16 O         -27.5114   49.6129   -7.5238 O.3     1  UNL1       -0.4824
     17 C         -28.4802   46.8670   -6.9800 C.2     1  UNL1        0.2530
     18 O         -28.2499   45.6278   -7.0067 O.2     1  UNL1       -0.2697
     19 N         -28.4949   47.5819   -5.7328 N.am    1  UNL1       -0.2803
     20 H         -28.5954   48.6215   -5.7589 H       1  UNL1        0.1552
     21 C         -28.2929   46.9662   -4.4503 C.ar    1  UNL1        0.0505
     22 C         -29.3378   46.9709   -3.5165 C.ar    1  UNL1        0.0147
     23 C         -29.1695   46.3747   -2.2654 C.ar    1  UNL1        0.0012
     24 C         -27.9651   45.7452   -1.9438 C.ar    1  UNL1        0.0039
     25 C         -26.9235   45.6811   -2.8854 C.ar    1  UNL1        0.0726
     26 C         -27.0902   46.3086   -4.1334 C.ar    1  UNL1        0.0185
     27 C         -25.6112   45.0261   -2.5325 C.3     1  UNL1        0.4186
     28 F         -25.2759   44.1190   -3.5201 F       1  UNL1       -0.1659
     29 F         -25.7092   44.3604   -1.3229 F       1  UNL1       -0.1659
     30 F         -24.6034   45.9692   -2.4258 F       1  UNL1       -0.1659
     31 N         -31.0128   48.5744  -13.6029 N.pl3   1  UNL1       -0.2814
     32 H         -31.5721   49.4347  -13.7981 H       1  UNL1        0.1551
     33 C         -30.8206   47.6297  -14.6706 C.ar    1  UNL1        0.0889
     34 C         -31.1251   46.2633  -14.4952 C.ar    1  UNL1        0.1543
     35 F         -31.5839   45.7977  -13.3063 F       1  UNL1       -0.2028
     36 C         -30.9265   45.3581  -15.5420 C.ar    1  UNL1        0.0310
     37 C         -30.4153   45.7980  -16.7637 C.ar    1  UNL1        0.0033
     38 C         -30.0945   47.1447  -16.9428 C.ar    1  UNL1        0.0128
     39 C         -30.2888   48.0610  -15.9027 C.ar    1  UNL1        0.0733
     40 CL        -29.8971   49.7525  -16.1841 Cl      1  UNL1       -0.0809
@<TRIPOS>BOND
     1     1     2    1
     2     2     3   ar
     3     3    31    1
     4    31    33    1
     5    33    34   ar
     6    34    35    1
     7    34    36   ar
     8    36    37   ar
     9    37    38   ar
    10    38    39   ar
    11    39    40    1
    12     3     4   ar
    13     4     5   ar
    14     5     6   ar
    15     6     7    1
    16     6     8   ar
    17     8    17    1
    18    17    18    2
    19    17    19   am
    20    19    21    1
    21    21    22   ar
    22    22    23   ar
    23    23    24   ar
    24    24    25   ar
    25    25    27    1
    26    27    28    1
    27    27    29    1
    28    27    30    1
    29    25    26   ar
    30     8     9   ar
    31     9    10   ar
    32    10    11   ar
    33    10    12    1
    34    12    13    1
    35    13    14    1
    36    13    15    1
    37    13    16    1
    38    11     2   ar
    39    39    33   ar
    40    11     5   ar
    41    26    21   ar
    42    16     9    1
    43    31    32    1
    44    19    20    1
@<TRIPOS>MOLECULE
*****
 40 44 0 0 0
SMALL
GASTEIGER

@<TRIPOS>ATOM
      1 C         -27.1355   51.3774  -11.4145 C.3     1  UNL1        0.1332
      2 N         -26.9225   51.4996   -9.9724 N.ar    1  UNL1       -0.2977
      3 C         -26.0758   52.3360   -9.3085 C.ar    1  UNL1        0.2018
      4 N         -26.1627   52.2443   -7.9570 N.ar    1  UNL1       -0.2130
      5 C         -27.0878   51.2842   -7.7754 C.ar    1  UNL1        0.1061
      6 C         -27.5364   50.7537   -6.5539 C.ar    1  UNL1        0.0610
      7 BR        -26.7591   51.3803   -4.9137 Br      1  UNL1       -0.0471
      8 C         -28.4953   49.7013   -6.5979 C.ar    1  UNL1        0.0950
      9 C         -28.9202   49.2367   -7.8626 C.ar    1  UNL1        0.1406
     10 C         -28.4714   49.7857   -9.0389 C.ar    1  UNL1        0.0327
     11 C         -27.5413   50.8256   -8.9851 C.ar    1  UNL1        0.0794
     12 C         -29.0949   49.0880  -10.1969 C.3     1  UNL1        0.0709
     13 C         -29.9737   47.9939   -9.5043 C.3     1  UNL1        0.1375
     14 C         -29.4859   46.5827   -9.8594 C.3     1  UNL1        0.0439
     15 C         -31.4567   48.1537   -9.8647 C.3     1  UNL1        0.0439
     16 O         -29.8062   48.2067   -8.1008 O.3     1  UNL1       -0.4824
     17 C         -29.0296   49.0728   -5.3766 C.2     1  UNL1        0.2530
     18 O         -30.1829   49.3915   -4.9795 O.2     1  UNL1       -0.2697
     19 N         -28.2413   48.1188   -4.6450 N.am    1  UNL1       -0.2803
     20 H         -27.3314   47.8097   -5.0550 H       1  UNL1        0.1552
     21 C         -28.6651   47.4942   -3.4223 C.ar    1  UNL1        0.0505
     22 C         -28.4843   46.1140   -3.2603 C.ar    1  UNL1        0.0147
     23 C         -28.8820   45.4835   -2.0800 C.ar    1  UNL1        0.0012
     24 C         -29.4406   46.2288   -1.0394 C.ar    1  UNL1        0.0039
     25 C         -29.5806   47.6222   -1.1593 C.ar    1  UNL1        0.0726
     26 C         -29.2037   48.2464   -2.3625 C.ar    1  UNL1        0.0185
     27 C         -30.2084   48.4273   -0.0488 C.3     1  UNL1        0.4186
     28 F         -29.2504   48.7066    0.9077 F       1  UNL1       -0.1659
     29 F         -31.2420   47.7202    0.5408 F       1  UNL1       -0.1659
     30 F         -30.7217   49.6181   -0.5336 F       1  UNL1       -0.1659
     31 N         -25.1588   53.2357   -9.9461 N.pl3   1  UNL1       -0.2814
     32 H         -25.4559   54.2322  -10.0450 H       1  UNL1        0.1551
     33 C         -23.8062   52.8901  -10.2930 C.ar    1  UNL1        0.0889
     34 C         -23.4135   51.5420  -10.4318 C.ar    1  UNL1        0.1543
     35 F         -24.2948   50.5330  -10.2170 F       1  UNL1       -0.2028
     36 C         -22.0931   51.2244  -10.7636 C.ar    1  UNL1        0.0310
     37 C         -21.1520   52.2379  -10.9489 C.ar    1  UNL1        0.0033
     38 C         -21.5253   53.5744  -10.7975 C.ar    1  UNL1        0.0128
     39 C         -22.8441   53.9057  -10.4656 C.ar    1  UNL1        0.0733
     40 CL        -23.2748   55.6042  -10.3135 Cl      1  UNL1       -0.0809
@<TRIPOS>BOND
     1     1     2    1
     2     2     3   ar
     3     3    31    1
     4    31    33    1
     5    33    34   ar
     6    34    35    1
     7    34    36   ar
     8    36    37   ar
     9    37    38   ar
    10    38    39   ar
    11    39    40    1
    12     3     4   ar
    13     4     5   ar
    14     5     6   ar
    15     6     7    1
    16     6     8   ar
    17     8    17    1
    18    17    18    2
    19    17    19   am
    20    19    21    1
    21    21    22   ar
    22    22    23   ar
    23    23    24   ar
    24    24    25   ar
    25    25    27    1
    26    27    28    1
    27    27    29    1
    28    27    30    1
    29    25    26   ar
    30     8     9   ar
    31     9    10   ar
    32    10    11   ar
    33    10    12    1
    34    12    13    1
    35    13    14    1
    36    13    15    1
    37    13    16    1
    38    11     2   ar
    39    39    33   ar
    40    11     5   ar
    41    26    21   ar
    42    16     9    1
    43    31    32    1
    44    19    20    1
@<TRIPOS>MOLECULE
*****
 40 44 0 0 0
SMALL
GASTEIGER

@<TRIPOS>ATOM
      1 C         -25.2219   52.0432  -13.2696 C.3     1  UNL1        0.1332
      2 N         -25.0976   51.7192  -11.8485 N.ar    1  UNL1       -0.2977
      3 C         -23.9660   51.6381  -11.0935 C.ar    1  UNL1        0.2018
      4 N         -24.1996   51.3753   -9.7824 N.ar    1  UNL1       -0.2130
      5 C         -25.5391   51.2601   -9.7284 C.ar    1  UNL1        0.1061
      6 C         -26.3223   50.9441   -8.6052 C.ar    1  UNL1        0.0610
      7 BR        -25.4593   50.5737   -6.9304 Br      1  UNL1       -0.0471
      8 C         -27.7301   50.8269   -8.7877 C.ar    1  UNL1        0.0950
      9 C         -28.2532   51.0103  -10.0871 C.ar    1  UNL1        0.1406
     10 C         -27.4612   51.3309  -11.1625 C.ar    1  UNL1        0.0327
     11 C         -26.0839   51.4564  -10.9710 C.ar    1  UNL1        0.0794
     12 C         -28.2951   51.4573  -12.3893 C.3     1  UNL1        0.0709
     13 C         -29.7298   51.1183  -11.8641 C.3     1  UNL1        0.1375
     14 C         -30.2725   49.8396  -12.5166 C.3     1  UNL1        0.0439
     15 C         -30.7001   52.2860  -12.0873 C.3     1  UNL1        0.0439
     16 O         -29.5763   50.8974  -10.4602 O.3     1  UNL1       -0.4824
     17 C         -28.6420   50.4970   -7.6779 C.2     1  UNL1        0.2530
     18 O         -29.4542   49.5429   -7.8172 O.2     1  UNL1       -0.2697
     19 N         -28.6113   51.2602   -6.4600 N.am    1  UNL1       -0.2803
     20 H         -27.8631   51.9802   -6.3452 H       1  UNL1        0.1552
     21 C         -29.4942   51.0370   -5.3484 C.ar    1  UNL1        0.0505
     22 C         -30.4793   51.9894   -5.0547 C.ar    1  UNL1        0.0147
     23 C         -31.3534   51.7941   -3.9839 C.ar    1  UNL1        0.0012
     24 C         -31.2694   50.6337   -3.2114 C.ar    1  UNL1        0.0039
     25 C         -30.3247   49.6404   -3.5221 C.ar    1  UNL1        0.0726
     26 C         -29.4289   49.8571   -4.5850 C.ar    1  UNL1        0.0185
     27 C         -30.2124   48.3981   -2.6738 C.3     1  UNL1        0.4186
     28 F         -30.3181   48.7471   -1.3405 F       1  UNL1       -0.1659
     29 F         -28.9939   47.7751   -2.8818 F       1  UNL1       -0.1659
     30 F         -31.2164   47.4971   -2.9848 F       1  UNL1       -0.1659
     31 N         -22.6361   51.8006  -11.6049 N.pl3   1  UNL1       -0.2814
     32 H         -22.4871   51.6112  -12.6213 H       1  UNL1        0.1551
     33 C         -21.5505   52.3691  -10.8514 C.ar    1  UNL1        0.0889
     34 C         -20.3817   51.6246  -10.5865 C.ar    1  UNL1        0.1543
     35 F         -20.2595   50.3425  -11.0135 F       1  UNL1       -0.2028
     36 C         -19.3390   52.1910   -9.8474 C.ar    1  UNL1        0.0310
     37 C         -19.4516   53.4927   -9.3572 C.ar    1  UNL1        0.0033
     38 C         -20.6104   54.2326   -9.5987 C.ar    1  UNL1        0.0128
     39 C         -21.6615   53.6770  -10.3374 C.ar    1  UNL1        0.0733
     40 CL        -23.0902   54.6571  -10.6409 Cl      1  UNL1       -0.0809
@<TRIPOS>BOND
     1     1     2    1
     2     2     3   ar
     3     3    31    1
     4    31    33    1
     5    33    34   ar
     6    34    35    1
     7    34    36   ar
     8    36    37   ar
     9    37    38   ar
    10    38    39   ar
    11    39    40    1
    12     3     4   ar
    13     4     5   ar
    14     5     6   ar
    15     6     7    1
    16     6     8   ar
    17     8    17    1
    18    17    18    2
    19    17    19   am
    20    19    21    1
    21    21    22   ar
    22    22    23   ar
    23    23    24   ar
    24    24    25   ar
    25    25    27    1
    26    27    28    1
    27    27    29    1
    28    27    30    1
    29    25    26   ar
    30     8     9   ar
    31     9    10   ar
    32    10    11   ar
    33    10    12    1
    34    12    13    1
    35    13    14    1
    36    13    15    1
    37    13    16    1
    38    11     2   ar
    39    39    33   ar
    40    11     5   ar
    41    26    21   ar
    42    16     9    1
    43    31    32    1
    44    19    20    1
@<TRIPOS>MOLECULE
*****
 40 44 0 0 0
SMALL
GASTEIGER

@<TRIPOS>ATOM
      1 C         -29.4328   50.8386  -12.4234 C.3     1  UNL1        0.1332
      2 N         -29.8184   49.5898  -11.7663 N.ar    1  UNL1       -0.2977
      3 C         -30.7046   48.6463  -12.1926 C.ar    1  UNL1        0.2018
      4 N         -30.7908   47.5662  -11.3749 N.ar    1  UNL1       -0.2130
      5 C         -29.9375   47.8685  -10.3794 C.ar    1  UNL1        0.1061
      6 C         -29.6678   47.1087   -9.2285 C.ar    1  UNL1        0.0610
      7 BR        -30.6158   45.4633   -8.9437 Br      1  UNL1       -0.0471
      8 C         -28.7568   47.6466   -8.2747 C.ar    1  UNL1        0.0950
      9 C         -28.1980   48.9191   -8.5280 C.ar    1  UNL1        0.1406
     10 C         -28.4728   49.6313   -9.6698 C.ar    1  UNL1        0.0327
     11 C         -29.3569   49.0898  -10.6049 C.ar    1  UNL1        0.0794
     12 C         -27.7404   50.9273   -9.6502 C.3     1  UNL1        0.0709
     13 C         -27.0024   50.8823   -8.2710 C.3     1  UNL1        0.1375
     14 C         -27.5021   51.9929   -7.3370 C.3     1  UNL1        0.0439
     15 C         -25.4805   50.9743   -8.4450 C.3     1  UNL1        0.0439
     16 O         -27.3341   49.6120   -7.7056 O.3     1  UNL1       -0.4824
     17 C         -28.4062   46.9338   -7.0333 C.2     1  UNL1        0.2530
     18 O         -28.2131   45.6888   -7.0769 O.2     1  UNL1       -0.2697
     19 N         -28.2973   47.6482   -5.7905 N.am    1  UNL1       -0.2803
     20 H         -28.3710   48.6902   -5.8099 H       1  UNL1        0.1552
     21 C         -28.0060   47.0265   -4.5281 C.ar    1  UNL1        0.0505
     22 C         -26.7569   46.4213   -4.3352 C.ar    1  UNL1        0.0147
     23 C         -26.4465   45.8153   -3.1165 C.ar    1  UNL1        0.0012
     24 C         -27.3705   45.8300   -2.0694 C.ar    1  UNL1        0.0039
     25 C         -28.6078   46.4788   -2.2230 C.ar    1  UNL1        0.0726
     26 C         -28.9247   47.0626   -3.4632 C.ar    1  UNL1        0.0185
     27 C         -29.6196   46.4735   -1.1042 C.3     1  UNL1        0.4186
     28 F         -29.2266   45.5640   -0.1404 F       1  UNL1       -0.1659
     29 F         -30.8693   46.1153   -1.5796 F       1  UNL1       -0.1659
     30 F         -29.7208   47.7273   -0.5260 F       1  UNL1       -0.1659
     31 N         -31.4956   48.7556  -13.3838 N.pl3   1  UNL1       -0.2814
     32 H         -32.4810   49.0850  -13.2761 H       1  UNL1        0.1551
     33 C         -30.9676   48.6092  -14.7139 C.ar    1  UNL1        0.0889
     34 C         -31.0148   49.6761  -15.6358 C.ar    1  UNL1        0.1543
     35 F         -31.5828   50.8622  -15.3018 F       1  UNL1       -0.2028
     36 C         -30.5022   49.5142  -16.9263 C.ar    1  UNL1        0.0310
     37 C         -29.9502   48.2928  -17.3149 C.ar    1  UNL1        0.0033
     38 C         -29.9135   47.2251  -16.4165 C.ar    1  UNL1        0.0128
     39 C         -30.4234   47.3744  -15.1215 C.ar    1  UNL1        0.0733
     40 CL        -30.3296   46.0103  -14.0151 Cl      1  UNL1       -0.0809
@<TRIPOS>BOND
     1     1     2    1
     2     2     3   ar
     3     3    31    1
     4    31    33    1
     5    33    34   ar
     6    34    35    1
     7    34    36   ar
     8    36    37   ar
     9    37    38   ar
    10    38    39   ar
    11    39    40    1
    12     3     4   ar
    13     4     5   ar
    14     5     6   ar
    15     6     7    1
    16     6     8   ar
    17     8    17    1
    18    17    18    2
    19    17    19   am
    20    19    21    1
    21    21    22   ar
    22    22    23   ar
    23    23    24   ar
    24    24    25   ar
    25    25    27    1
    26    27    28    1
    27    27    29    1
    28    27    30    1
    29    25    26   ar
    30     8     9   ar
    31     9    10   ar
    32    10    11   ar
    33    10    12    1
    34    12    13    1
    35    13    14    1
    36    13    15    1
    37    13    16    1
    38    11     2   ar
    39    39    33   ar
    40    11     5   ar
    41    26    21   ar
    42    16     9    1
    43    31    32    1
    44    19    20    1
@<TRIPOS>MOLECULE
*****
 40 44 0 0 0
SMALL
GASTEIGER

@<TRIPOS>ATOM
      1 C         -30.5371   49.7165   -6.8307 C.3     1  UNL1        0.1332
      2 N         -29.6129   49.8678   -7.9546 N.ar    1  UNL1       -0.2977
      3 C         -29.8707   49.7415   -9.2868 C.ar    1  UNL1        0.2018
      4 N         -28.8015   50.0080  -10.0796 N.ar    1  UNL1       -0.2130
      5 C         -27.8270   50.2853   -9.1943 C.ar    1  UNL1        0.1061
      6 C         -26.4838   50.5898   -9.4735 C.ar    1  UNL1        0.0610
      7 BR        -25.8768   50.5841  -11.2952 Br      1  UNL1       -0.0471
      8 C         -25.6074   50.8045   -8.3713 C.ar    1  UNL1        0.0950
      9 C         -26.1315   50.6753   -7.0657 C.ar    1  UNL1        0.1406
     10 C         -27.4532   50.3887   -6.8266 C.ar    1  UNL1        0.0327
     11 C         -28.3073   50.1928   -7.9135 C.ar    1  UNL1        0.0794
     12 C         -27.7015   50.3167   -5.3604 C.3     1  UNL1        0.0709
     13 C         -26.2799   50.5762   -4.7597 C.3     1  UNL1        0.1375
     14 C         -25.7702   49.3507   -3.9891 C.3     1  UNL1        0.0439
     15 C         -26.2693   51.8176   -3.8577 C.3     1  UNL1        0.0439
     16 O         -25.4298   50.8068   -5.8855 O.3     1  UNL1       -0.4824
     17 C         -24.1807   51.1267   -8.5523 C.2     1  UNL1        0.2530
     18 O         -23.3382   50.6437   -7.7485 O.2     1  UNL1       -0.2697
     19 N         -23.7599   51.9879   -9.6237 N.am    1  UNL1       -0.2803
     20 H         -24.4730   52.2920  -10.3241 H       1  UNL1        0.1552
     21 C         -22.3983   52.3902   -9.8449 C.ar    1  UNL1        0.0505
     22 C         -21.9658   52.6532  -11.1516 C.ar    1  UNL1        0.0147
     23 C         -20.6497   53.0511  -11.3933 C.ar    1  UNL1        0.0012
     24 C         -19.7592   53.2152  -10.3300 C.ar    1  UNL1        0.0039
     25 C         -20.1870   53.0097   -9.0070 C.ar    1  UNL1        0.0726
     26 C         -21.5066   52.5816   -8.7736 C.ar    1  UNL1        0.0185
     27 C         -19.2213   53.1593   -7.8578 C.3     1  UNL1        0.4186
     28 F         -19.8050   52.6652   -6.7064 F       1  UNL1       -0.1659
     29 F         -18.8979   54.4912   -7.6639 F       1  UNL1       -0.1659
     30 F         -18.0508   52.4625   -8.1045 F       1  UNL1       -0.1659
     31 N         -31.1386   49.3558   -9.8348 N.pl3   1  UNL1       -0.2814
     32 H         -31.9867   49.8450   -9.4708 H       1  UNL1        0.1551
     33 C         -31.2910   48.4751  -10.9620 C.ar    1  UNL1        0.0889
     34 C         -31.3302   47.0752  -10.7901 C.ar    1  UNL1        0.1543
     35 F         -31.1997   46.5195   -9.5593 F       1  UNL1       -0.2028
     36 C         -31.4730   46.2341  -11.8976 C.ar    1  UNL1        0.0310
     37 C         -31.5665   46.7726  -13.1816 C.ar    1  UNL1        0.0033
     38 C         -31.5119   48.1554  -13.3650 C.ar    1  UNL1        0.0128
     39 C         -31.3693   49.0083  -12.2645 C.ar    1  UNL1        0.0733
     40 CL        -31.3339   50.7449  -12.5417 Cl      1  UNL1       -0.0809
@<TRIPOS>BOND
     1     1     2    1
     2     2     3   ar
     3     3    31    1
     4    31    33    1
     5    33    34   ar
     6    34    35    1
     7    34    36   ar
     8    36    37   ar
     9    37    38   ar
    10    38    39   ar
    11    39    40    1
    12     3     4   ar
    13     4     5   ar
    14     5     6   ar
    15     6     7    1
    16     6     8   ar
    17     8    17    1
    18    17    18    2
    19    17    19   am
    20    19    21    1
    21    21    22   ar
    22    22    23   ar
    23    23    24   ar
    24    24    25   ar
    25    25    27    1
    26    27    28    1
    27    27    29    1
    28    27    30    1
    29    25    26   ar
    30     8     9   ar
    31     9    10   ar
    32    10    11   ar
    33    10    12    1
    34    12    13    1
    35    13    14    1
    36    13    15    1
    37    13    16    1
    38    11     2   ar
    39    39    33   ar
    40    11     5   ar
    41    26    21   ar
    42    16     9    1
    43    31    32    1
    44    19    20    1
