@<TRIPOS>MOLECULE
*****
 50 55 0 0 0
SMALL
GASTEIGER

@<TRIPOS>ATOM
      1 C           9.3352   77.7695   29.5132 C.3     1  UNL1        0.1535
      2 N           9.0847   77.9492   28.0765 N.am    1  UNL1       -0.2945
      3 C           9.2163   76.8613   27.1505 C.2     1  UNL1        0.2483
      4 O          10.1781   76.0572   27.2922 O.2     1  UNL1       -0.2701
      5 H           8.8074   78.8878   27.7124 H       1  UNL1        0.1501
      6 C           8.2286   76.6341   26.0577 C.ar    1  UNL1        0.0808
      7 C           8.3166   75.4574   25.2902 C.ar    1  UNL1        0.0080
      8 C           7.3577   75.1588   24.3204 C.ar    1  UNL1        0.0148
      9 C           6.2818   76.0293   24.0878 C.ar    1  UNL1        0.0502
     10 C           6.1972   77.2128   24.8374 C.ar    1  UNL1        0.0443
     11 C           7.1525   77.5161   25.8119 C.ar    1  UNL1        0.1457
     12 F           6.9744   78.6470   26.5374 F       1  UNL1       -0.2040
     13 N           5.2634   75.7004   23.1172 N.pl3   1  UNL1       -0.3040
     14 C           4.2874   76.7154   22.6958 C.3     1  UNL1        0.1122
     15 C           2.9636   76.0613   22.2884 C.3     1  UNL1        0.1122
     16 N           3.1728   74.9771   21.3159 N.pl3   1  UNL1       -0.3040
     17 C           4.5111   74.3931   21.1447 C.3     1  UNL1        0.1122
     18 C           5.2727   74.3776   22.4733 C.3     1  UNL1        0.1122
     19 C           2.0789   74.5487   20.4738 C.ar    1  UNL1        0.0488
     20 C           1.5288   75.4212   19.5175 C.ar    1  UNL1        0.0154
     21 C           0.4728   75.0063   18.7023 C.ar    1  UNL1        0.0135
     22 C          -0.0495   73.7155   18.8252 C.ar    1  UNL1        0.0683
     23 CL         -1.3786   73.2310   17.7806 Cl      1  UNL1       -0.0814
     24 C           0.4920   72.8325   19.7730 C.ar    1  UNL1        0.0694
     25 CL         -0.1308   71.1980   19.9552 Cl      1  UNL1       -0.0813
     26 C           1.5497   73.2495   20.5898 C.ar    1  UNL1        0.0268
     27 C           9.7798   79.0715   30.1315 C.2     1  UNL1        0.2443
     28 O          11.0104   79.2907   30.3034 O.2     1  UNL1       -0.2730
     29 N           8.8120   80.0869   30.4434 N.am    1  UNL1       -0.2825
     30 H           7.8696   80.0173   29.9966 H       1  UNL1        0.1549
     31 C           9.0952   81.2507   31.2390 C.ar    1  UNL1        0.0535
     32 C           9.6681   82.3772   30.6329 C.ar    1  UNL1        0.0353
     33 C           9.9242   83.5186   31.3965 C.ar    1  UNL1        0.1002
     34 N           9.6039   83.5415   32.7171 N.ar    1  UNL1       -0.2422
     35 C           9.0296   82.4722   33.3289 C.ar    1  UNL1        0.1002
     36 C           8.7574   81.3104   32.6021 C.ar    1  UNL1        0.0353
     37 C           8.0674   77.2551   30.2298 C.3     1  UNL1        0.0569
     38 N           5.0052   77.3326   29.0156 N.pl3   1  UNL1       -0.3570
     39 C           5.4659   76.0816   28.5006 C.ar    1  UNL1        0.0426
     40 C           4.6837   75.3939   27.5495 C.ar    1  UNL1        0.0142
     41 C           5.0313   74.0942   27.1341 C.ar    1  UNL1        0.0027
     42 C           6.1551   73.4538   27.6754 C.ar    1  UNL1        0.0170
     43 C           6.9282   74.1535   28.5995 C.ar    1  UNL1        0.0575
     44 N           8.0621   73.7229   29.1738 N.ar    1  UNL1       -0.3522
     45 C           8.5269   74.7553   29.9058 C.ar    1  UNL1        0.0682
     46 C           7.6874   75.8610   29.7897 C.ar    1  UNL1       -0.0005
     47 C           6.6295   75.4452   28.9778 C.ar    1  UNL1        0.0260
     48 H           4.2894   77.8833   28.4911 H       1  UNL1        0.1424
     49 H           5.1610   77.5831   30.0156 H       1  UNL1        0.1424
     50 H           8.5246   72.7964   29.0395 H       1  UNL1        0.1660
@<TRIPOS>BOND
     1    38    39    1
     2    39    40   ar
     3    40    41   ar
     4    41    42   ar
     5    42    43   ar
     6    43    44   ar
     7    44    45   ar
     8    45    46   ar
     9    46    37    1
    10    37     1    1
    11     1     2    1
    12     2     3   am
    13     3     4    2
    14     3     6    1
    15     6     7   ar
    16     7     8   ar
    17     8     9   ar
    18     9    13    1
    19    13    14    1
    20    14    15    1
    21    15    16    1
    22    16    19    1
    23    19    20   ar
    24    20    21   ar
    25    21    22   ar
    26    22    23    1
    27    22    24   ar
    28    24    25    1
    29    24    26   ar
    30    16    17    1
    31    17    18    1
    32     9    10   ar
    33    10    11   ar
    34    11    12    1
    35     1    27    1
    36    27    28    2
    37    27    29   am
    38    29    31    1
    39    31    32   ar
    40    32    33   ar
    41    33    34   ar
    42    34    35   ar
    43    35    36   ar
    44    46    47   ar
    45    47    39   ar
    46    47    43   ar
    47    11     6   ar
    48    36    31   ar
    49    18    13    1
    50    26    19   ar
    51    38    48    1
    52    38    49    1
    53    44    50    1
    54     2     5    1
    55    29    30    1
@<TRIPOS>MOLECULE
*****
 50 55 0 0 0
SMALL
GASTEIGER

@<TRIPOS>ATOM
      1 C          14.2358   85.6963   23.8992 C.3     1  UNL1        0.1535
      2 N          14.4909   84.2800   24.1963 N.am    1  UNL1       -0.2945
      3 C          13.8069   83.6018   25.2595 C.2     1  UNL1        0.2483
      4 O          13.6207   84.2124   26.3477 O.2     1  UNL1       -0.2701
      5 H          15.1869   83.7485   23.6275 H       1  UNL1        0.1501
      6 C          13.2770   82.2181   25.0980 C.ar    1  UNL1        0.0808
      7 C          11.9573   82.0400   24.6416 C.ar    1  UNL1        0.0080
      8 C          11.4515   80.7641   24.3861 C.ar    1  UNL1        0.0148
      9 C          12.2503   79.6268   24.5807 C.ar    1  UNL1        0.0502
     10 C          13.5614   79.7958   25.0520 C.ar    1  UNL1        0.0443
     11 C          14.0748   81.0707   25.3069 C.ar    1  UNL1        0.1457
     12 F          15.3676   81.1610   25.7037 F       1  UNL1       -0.2040
     13 N          11.7446   78.3088   24.2732 N.pl3   1  UNL1       -0.3040
     14 C          12.6514   77.1522   24.2625 C.3     1  UNL1        0.1122
     15 C          12.1590   76.0838   23.2814 C.3     1  UNL1        0.1122
     16 N          10.7455   75.7470   23.5132 N.pl3   1  UNL1       -0.3040
     17 C           9.8950   76.6523   24.2997 C.3     1  UNL1        0.1122
     18 C          10.3000   78.1122   24.0756 C.3     1  UNL1        0.1122
     19 C          10.2216   74.4868   23.0372 C.ar    1  UNL1        0.0488
     20 C          10.9547   73.2984   23.2059 C.ar    1  UNL1        0.0154
     21 C          10.4473   72.0801   22.7475 C.ar    1  UNL1        0.0135
     22 C           9.2010   72.0265   22.1165 C.ar    1  UNL1        0.0683
     23 CL          8.5969   70.4738   21.5538 Cl      1  UNL1       -0.0814
     24 C           8.4565   73.2043   21.9443 C.ar    1  UNL1        0.0694
     25 CL          6.8815   73.1800   21.1624 Cl      1  UNL1       -0.0813
     26 C           8.9662   74.4246   22.4035 C.ar    1  UNL1        0.0268
     27 C          15.3675   86.2695   23.0833 C.2     1  UNL1        0.2443
     28 O          15.8232   85.6156   22.1051 O.2     1  UNL1       -0.2730
     29 N          15.8640   87.5874   23.3687 N.am    1  UNL1       -0.2825
     30 H          15.2657   88.2204   23.9466 H       1  UNL1        0.1549
     31 C          17.0765   88.1275   22.8156 C.ar    1  UNL1        0.0535
     32 C          17.0847   88.5882   21.4918 C.ar    1  UNL1        0.0353
     33 C          18.2536   89.1347   20.9567 C.ar    1  UNL1        0.1002
     34 N          19.3725   89.2339   21.7220 N.ar    1  UNL1       -0.2422
     35 C          19.3902   88.8139   23.0146 C.ar    1  UNL1        0.1002
     36 C          18.2429   88.2603   23.5885 C.ar    1  UNL1        0.0353
     37 C          12.9030   85.8643   23.1372 C.3     1  UNL1        0.0569
     38 N          13.8134   85.4282   20.0006 N.pl3   1  UNL1       -0.3570
     39 C          13.1510   86.6916   19.9140 C.ar    1  UNL1        0.0426
     40 C          12.8917   87.2521   18.6459 C.ar    1  UNL1        0.0142
     41 C          12.3782   88.5577   18.5261 C.ar    1  UNL1        0.0027
     42 C          12.1328   89.3308   19.6698 C.ar    1  UNL1        0.0170
     43 C          12.3761   88.7561   20.9155 C.ar    1  UNL1        0.0575
     44 N          12.1462   89.3231   22.1099 N.ar    1  UNL1       -0.3522
     45 C          12.4190   88.3783   23.0321 C.ar    1  UNL1        0.0682
     46 C          12.8169   87.1914   22.4208 C.ar    1  UNL1       -0.0005
     47 C          12.8305   87.4614   21.0503 C.ar    1  UNL1        0.0260
     48 H          13.8245   84.7850   19.1778 H       1  UNL1        0.1424
     49 H          14.5038   85.2434   20.7597 H       1  UNL1        0.1424
     50 H          11.7769   90.2828   22.2917 H       1  UNL1        0.1660
@<TRIPOS>BOND
     1    38    39    1
     2    39    40   ar
     3    40    41   ar
     4    41    42   ar
     5    42    43   ar
     6    43    44   ar
     7    44    45   ar
     8    45    46   ar
     9    46    37    1
    10    37     1    1
    11     1     2    1
    12     2     3   am
    13     3     4    2
    14     3     6    1
    15     6     7   ar
    16     7     8   ar
    17     8     9   ar
    18     9    13    1
    19    13    14    1
    20    14    15    1
    21    15    16    1
    22    16    19    1
    23    19    20   ar
    24    20    21   ar
    25    21    22   ar
    26    22    23    1
    27    22    24   ar
    28    24    25    1
    29    24    26   ar
    30    16    17    1
    31    17    18    1
    32     9    10   ar
    33    10    11   ar
    34    11    12    1
    35     1    27    1
    36    27    28    2
    37    27    29   am
    38    29    31    1
    39    31    32   ar
    40    32    33   ar
    41    33    34   ar
    42    34    35   ar
    43    35    36   ar
    44    46    47   ar
    45    47    39   ar
    46    47    43   ar
    47    11     6   ar
    48    36    31   ar
    49    18    13    1
    50    26    19   ar
    51    38    48    1
    52    38    49    1
    53    44    50    1
    54     2     5    1
    55    29    30    1
@<TRIPOS>MOLECULE
*****
 50 55 0 0 0
SMALL
GASTEIGER

@<TRIPOS>ATOM
      1 C          12.8605   78.2211   24.8649 C.3     1  UNL1        0.1535
      2 N          11.9874   78.2333   23.6830 N.am    1  UNL1       -0.2945
      3 C          11.7210   77.0384   22.9350 C.2     1  UNL1        0.2483
      4 O          12.6669   76.2300   22.7263 O.2     1  UNL1       -0.2701
      5 H          11.5494   79.1287   23.3717 H       1  UNL1        0.1501
      6 C          10.3552   76.7094   22.4375 C.ar    1  UNL1        0.0808
      7 C          10.0613   75.3818   22.0735 C.ar    1  UNL1        0.0080
      8 C           8.7707   75.0102   21.6924 C.ar    1  UNL1        0.0148
      9 C           7.7344   75.9561   21.6625 C.ar    1  UNL1        0.0502
     10 C           8.0240   77.2853   22.0075 C.ar    1  UNL1        0.0443
     11 C           9.3136   77.6631   22.3928 C.ar    1  UNL1        0.1457
     12 F           9.5062   78.9509   22.7689 F       1  UNL1       -0.2040
     13 N           6.3883   75.5648   21.3130 N.pl3   1  UNL1       -0.3040
     14 C           6.1360   74.2589   20.6875 C.3     1  UNL1        0.1122
     15 C           4.8978   74.3166   19.7876 C.3     1  UNL1        0.1122
     16 N           3.7406   74.8862   20.4958 N.pl3   1  UNL1       -0.3040
     17 C           3.9427   75.6531   21.7337 C.3     1  UNL1        0.1122
     18 C           5.2596   76.4332   21.6824 C.3     1  UNL1        0.1122
     19 C           2.4037   74.6178   20.0163 C.ar    1  UNL1        0.0488
     20 C           1.7050   75.5831   19.2690 C.ar    1  UNL1        0.0154
     21 C           0.4137   75.3227   18.8039 C.ar    1  UNL1        0.0135
     22 C          -0.2006   74.0963   19.0737 C.ar    1  UNL1        0.0683
     23 CL         -1.8269   73.8068   18.4707 Cl      1  UNL1       -0.0814
     24 C           0.4862   73.1220   19.8155 C.ar    1  UNL1        0.0694
     25 CL         -0.2470   71.5635   20.1711 Cl      1  UNL1       -0.0813
     26 C           1.7799   73.3841   20.2816 C.ar    1  UNL1        0.0268
     27 C          13.5304   79.5622   25.0316 C.2     1  UNL1        0.2443
     28 O          14.7635   79.6136   25.2945 O.2     1  UNL1       -0.2730
     29 N          12.7857   80.7707   24.8089 N.am    1  UNL1       -0.2825
     30 H          11.8856   80.6999   24.2820 H       1  UNL1        0.1549
     31 C          13.2555   82.0822   25.1648 C.ar    1  UNL1        0.0535
     32 C          13.2613   83.0979   24.1988 C.ar    1  UNL1        0.0353
     33 C          13.6953   84.3797   24.5451 C.ar    1  UNL1        0.1002
     34 N          14.0944   84.6440   25.8172 N.ar    1  UNL1       -0.2422
     35 C          14.0817   83.6854   26.7808 C.ar    1  UNL1        0.1002
     36 C          13.6559   82.3899   26.4765 C.ar    1  UNL1        0.0353
     37 C          12.0552   77.8759   26.1368 C.3     1  UNL1        0.0569
     38 N          10.5521   75.0403   25.3904 N.pl3   1  UNL1       -0.3570
     39 C           9.4354   75.8388   25.7878 C.ar    1  UNL1        0.0426
     40 C           8.1733   75.2311   25.9531 C.ar    1  UNL1        0.0142
     41 C           7.0251   76.0088   26.1968 C.ar    1  UNL1        0.0027
     42 C           7.1160   77.4064   26.2612 C.ar    1  UNL1        0.0170
     43 C           8.3725   77.9903   26.1149 C.ar    1  UNL1        0.0575
     44 N           8.6551   79.2992   26.2045 N.ar    1  UNL1       -0.3522
     45 C           9.9961   79.4005   26.1093 C.ar    1  UNL1        0.0682
     46 C          10.5780   78.1425   25.9686 C.ar    1  UNL1       -0.0005
     47 C           9.5133   77.2393   25.9266 C.ar    1  UNL1        0.0260
     48 H          10.5293   74.0047   25.5236 H       1  UNL1        0.1424
     49 H          11.2696   75.4215   24.7371 H       1  UNL1        0.1424
     50 H           7.9816   80.0797   26.3706 H       1  UNL1        0.1660
@<TRIPOS>BOND
     1    38    39    1
     2    39    40   ar
     3    40    41   ar
     4    41    42   ar
     5    42    43   ar
     6    43    44   ar
     7    44    45   ar
     8    45    46   ar
     9    46    37    1
    10    37     1    1
    11     1     2    1
    12     2     3   am
    13     3     4    2
    14     3     6    1
    15     6     7   ar
    16     7     8   ar
    17     8     9   ar
    18     9    13    1
    19    13    14    1
    20    14    15    1
    21    15    16    1
    22    16    19    1
    23    19    20   ar
    24    20    21   ar
    25    21    22   ar
    26    22    23    1
    27    22    24   ar
    28    24    25    1
    29    24    26   ar
    30    16    17    1
    31    17    18    1
    32     9    10   ar
    33    10    11   ar
    34    11    12    1
    35     1    27    1
    36    27    28    2
    37    27    29   am
    38    29    31    1
    39    31    32   ar
    40    32    33   ar
    41    33    34   ar
    42    34    35   ar
    43    35    36   ar
    44    46    47   ar
    45    47    39   ar
    46    47    43   ar
    47    11     6   ar
    48    36    31   ar
    49    18    13    1
    50    26    19   ar
    51    38    48    1
    52    38    49    1
    53    44    50    1
    54     2     5    1
    55    29    30    1
@<TRIPOS>MOLECULE
*****
 50 55 0 0 0
SMALL
GASTEIGER

@<TRIPOS>ATOM
      1 C          11.0382   76.7439   26.3851 C.3     1  UNL1        0.1535
      2 N          10.0833   77.2552   25.3921 N.am    1  UNL1       -0.2945
      3 C           9.9088   76.6148   24.1203 C.2     1  UNL1        0.2483
      4 O          10.9276   76.1854   23.5126 O.2     1  UNL1       -0.2701
      5 H           9.5171   78.1057   25.6080 H       1  UNL1        0.1501
      6 C           8.5595   76.4075   23.5220 C.ar    1  UNL1        0.0808
      7 C           8.1673   77.2014   22.4277 C.ar    1  UNL1        0.0080
      8 C           6.9524   76.9783   21.7771 C.ar    1  UNL1        0.0148
      9 C           6.0917   75.9547   22.2023 C.ar    1  UNL1        0.0502
     10 C           6.4684   75.1705   23.3036 C.ar    1  UNL1        0.0443
     11 C           7.6848   75.3868   23.9575 C.ar    1  UNL1        0.1457
     12 F           8.0091   74.5531   24.9758 F       1  UNL1       -0.2040
     13 N           4.8555   75.6921   21.5023 N.pl3   1  UNL1       -0.3040
     14 C           3.7813   76.6952   21.4956 C.3     1  UNL1        0.1122
     15 C           2.4103   76.0235   21.3707 C.3     1  UNL1        0.1122
     16 N           2.3705   75.0813   20.2413 N.pl3   1  UNL1       -0.3040
     17 C           3.6241   74.5987   19.6438 C.3     1  UNL1        0.1122
     18 C           4.7172   74.4616   20.7077 C.3     1  UNL1        0.1122
     19 C           1.0984   74.6999   19.6705 C.ar    1  UNL1        0.0488
     20 C           0.1276   75.6733   19.3734 C.ar    1  UNL1        0.0154
     21 C          -1.1011   75.3047   18.8199 C.ar    1  UNL1        0.0135
     22 C          -1.3805   73.9615   18.5516 C.ar    1  UNL1        0.0683
     23 CL         -2.9384   73.5380   17.8546 Cl      1  UNL1       -0.0814
     24 C          -0.4195   72.9794   18.8398 C.ar    1  UNL1        0.0694
     25 CL         -0.7277   71.2794   18.5112 Cl      1  UNL1       -0.0813
     26 C           0.8111   73.3498   19.3949 C.ar    1  UNL1        0.0268
     27 C          12.4085   77.3233   26.1367 C.2     1  UNL1        0.2443
     28 O          13.1947   77.5005   27.1076 O.2     1  UNL1       -0.2730
     29 N          12.8432   77.5915   24.7936 N.am    1  UNL1       -0.2825
     30 H          12.3198   77.1377   24.0109 H       1  UNL1        0.1549
     31 C          14.0191   78.3512   24.4653 C.ar    1  UNL1        0.0535
     32 C          14.9578   77.8166   23.5722 C.ar    1  UNL1        0.0353
     33 C          16.0906   78.5599   23.2322 C.ar    1  UNL1        0.1002
     34 N          16.2726   79.8022   23.7526 N.ar    1  UNL1       -0.2422
     35 C          15.3707   80.3556   24.6058 C.ar    1  UNL1        0.1002
     36 C          14.2245   79.6457   24.9727 C.ar    1  UNL1        0.0353
     37 C          10.5754   77.0884   27.8177 C.3     1  UNL1        0.0569
     38 N           7.5382   78.1134   27.0546 N.pl3   1  UNL1       -0.3570
     39 C           7.2855   76.7444   27.3778 C.ar    1  UNL1        0.0426
     40 C           6.0151   76.1929   27.1108 C.ar    1  UNL1        0.0142
     41 C           5.6847   74.8968   27.5511 C.ar    1  UNL1        0.0027
     42 C           6.6111   74.1383   28.2807 C.ar    1  UNL1        0.0170
     43 C           7.8682   74.6896   28.5198 C.ar    1  UNL1        0.0575
     44 N           8.8922   74.0895   29.1463 N.ar    1  UNL1       -0.3522
     45 C           9.9362   74.9376   29.0551 C.ar    1  UNL1        0.0682
     46 C           9.5793   76.0871   28.3534 C.ar    1  UNL1       -0.0005
     47 C           8.2238   75.9366   28.0514 C.ar    1  UNL1        0.0260
     48 H           6.9340   78.6080   26.3611 H       1  UNL1        0.1424
     49 H           8.1315   78.7034   27.6767 H       1  UNL1        0.1424
     50 H           8.8997   73.1355   29.5708 H       1  UNL1        0.1660
@<TRIPOS>BOND
     1    38    39    1
     2    39    40   ar
     3    40    41   ar
     4    41    42   ar
     5    42    43   ar
     6    43    44   ar
     7    44    45   ar
     8    45    46   ar
     9    46    37    1
    10    37     1    1
    11     1     2    1
    12     2     3   am
    13     3     4    2
    14     3     6    1
    15     6     7   ar
    16     7     8   ar
    17     8     9   ar
    18     9    13    1
    19    13    14    1
    20    14    15    1
    21    15    16    1
    22    16    19    1
    23    19    20   ar
    24    20    21   ar
    25    21    22   ar
    26    22    23    1
    27    22    24   ar
    28    24    25    1
    29    24    26   ar
    30    16    17    1
    31    17    18    1
    32     9    10   ar
    33    10    11   ar
    34    11    12    1
    35     1    27    1
    36    27    28    2
    37    27    29   am
    38    29    31    1
    39    31    32   ar
    40    32    33   ar
    41    33    34   ar
    42    34    35   ar
    43    35    36   ar
    44    46    47   ar
    45    47    39   ar
    46    47    43   ar
    47    11     6   ar
    48    36    31   ar
    49    18    13    1
    50    26    19   ar
    51    38    48    1
    52    38    49    1
    53    44    50    1
    54     2     5    1
    55    29    30    1
@<TRIPOS>MOLECULE
*****
 50 55 0 0 0
SMALL
GASTEIGER

@<TRIPOS>ATOM
      1 C           7.6898   73.8892   23.4629 C.3     1  UNL1        0.1535
      2 N           8.4416   74.7074   24.4245 N.am    1  UNL1       -0.2945
      3 C           9.8422   74.9672   24.2544 C.2     1  UNL1        0.2483
      4 O          10.5884   74.0318   23.8543 O.2     1  UNL1       -0.2701
      5 H           7.9534   75.1100   25.2552 H       1  UNL1        0.1501
      6 C          10.4275   76.3164   24.4964 C.ar    1  UNL1        0.0808
      7 C          11.7680   76.5545   24.1388 C.ar    1  UNL1        0.0080
      8 C          12.3286   77.8273   24.2600 C.ar    1  UNL1        0.0148
      9 C          11.5655   78.9009   24.7440 C.ar    1  UNL1        0.0502
     10 C          10.2333   78.6671   25.1188 C.ar    1  UNL1        0.0443
     11 C           9.6652   77.3956   24.9971 C.ar    1  UNL1        0.1457
     12 F           8.3568   77.2571   25.3225 F       1  UNL1       -0.2040
     13 N          12.1294   80.2285   24.8271 N.pl3   1  UNL1       -0.3040
     14 C          11.2541   81.3937   25.0179 C.3     1  UNL1        0.1122
     15 C          11.8710   82.6466   24.3883 C.3     1  UNL1        0.1122
     16 N          13.2588   82.8483   24.8336 N.pl3   1  UNL1       -0.3040
     17 C          14.0012   81.7377   25.4475 C.3     1  UNL1        0.1122
     18 C          13.5908   80.3991   24.8268 C.3     1  UNL1        0.1122
     19 C          13.8575   84.1607   24.7415 C.ar    1  UNL1        0.0488
     20 C          14.3205   84.6502   23.5069 C.ar    1  UNL1        0.0154
     21 C          14.8973   85.9195   23.4178 C.ar    1  UNL1        0.0135
     22 C          15.0194   86.7215   24.5562 C.ar    1  UNL1        0.0683
     23 CL         15.7509   88.3133   24.4029 Cl      1  UNL1       -0.0814
     24 C          14.5584   86.2473   25.7947 C.ar    1  UNL1        0.0694
     25 CL         14.6862   87.2267   27.2498 Cl      1  UNL1       -0.0813
     26 C          13.9811   84.9750   25.8830 C.ar    1  UNL1        0.0268
     27 C           6.2374   74.2961   23.4559 C.2     1  UNL1        0.2443
     28 O           5.3935   73.5811   22.8486 O.2     1  UNL1       -0.2730
     29 N           5.8085   75.4437   24.2068 N.am    1  UNL1       -0.2825
     30 H           6.4486   75.8099   24.9477 H       1  UNL1        0.1549
     31 C           4.5098   76.0479   24.0810 C.ar    1  UNL1        0.0535
     32 C           3.9064   76.1282   22.8184 C.ar    1  UNL1        0.0353
     33 C           2.6351   76.6935   22.6938 C.ar    1  UNL1        0.1002
     34 N           1.9802   77.1484   23.7945 N.ar    1  UNL1       -0.2422
     35 C           2.5307   77.0667   25.0346 C.ar    1  UNL1        0.1002
     36 C           3.8007   76.5093   25.2035 C.ar    1  UNL1        0.0353
     37 C           8.2807   74.0318   22.0431 C.3     1  UNL1        0.0569
     38 N           6.0656   73.1560   19.7664 N.pl3   1  UNL1       -0.3570
     39 C           5.7958   74.5550   19.8783 C.ar    1  UNL1        0.0426
     40 C           4.6587   75.0942   19.2413 C.ar    1  UNL1        0.0142
     41 C           4.4443   76.4854   19.2051 C.ar    1  UNL1        0.0027
     42 C           5.3711   77.3609   19.7884 C.ar    1  UNL1        0.0170
     43 C           6.4793   76.8120   20.4303 C.ar    1  UNL1        0.0575
     44 N           7.4323   77.4901   21.0883 N.ar    1  UNL1       -0.3522
     45 C           8.2391   76.5619   21.6407 C.ar    1  UNL1        0.0682
     46 C           7.7912   75.2770   21.3420 C.ar    1  UNL1       -0.0005
     47 C           6.6765   75.4503   20.5182 C.ar    1  UNL1        0.0260
     48 H           5.3014   72.4946   19.5031 H       1  UNL1        0.1424
     49 H           7.0457   72.8112   19.6798 H       1  UNL1        0.1424
     50 H           7.5062   78.5257   21.1999 H       1  UNL1        0.1660
@<TRIPOS>BOND
     1    38    39    1
     2    39    40   ar
     3    40    41   ar
     4    41    42   ar
     5    42    43   ar
     6    43    44   ar
     7    44    45   ar
     8    45    46   ar
     9    46    37    1
    10    37     1    1
    11     1     2    1
    12     2     3   am
    13     3     4    2
    14     3     6    1
    15     6     7   ar
    16     7     8   ar
    17     8     9   ar
    18     9    13    1
    19    13    14    1
    20    14    15    1
    21    15    16    1
    22    16    19    1
    23    19    20   ar
    24    20    21   ar
    25    21    22   ar
    26    22    23    1
    27    22    24   ar
    28    24    25    1
    29    24    26   ar
    30    16    17    1
    31    17    18    1
    32     9    10   ar
    33    10    11   ar
    34    11    12    1
    35     1    27    1
    36    27    28    2
    37    27    29   am
    38    29    31    1
    39    31    32   ar
    40    32    33   ar
    41    33    34   ar
    42    34    35   ar
    43    35    36   ar
    44    46    47   ar
    45    47    39   ar
    46    47    43   ar
    47    11     6   ar
    48    36    31   ar
    49    18    13    1
    50    26    19   ar
    51    38    48    1
    52    38    49    1
    53    44    50    1
    54     2     5    1
    55    29    30    1
@<TRIPOS>MOLECULE
*****
 50 55 0 0 0
SMALL
GASTEIGER

@<TRIPOS>ATOM
      1 C           7.8150   73.8467   22.7552 C.3     1  UNL1        0.1535
      2 N           8.9348   74.4531   23.4884 N.am    1  UNL1       -0.2945
      3 C          10.0809   74.9801   22.8051 C.2     1  UNL1        0.2483
      4 O          10.5449   74.3439   21.8193 O.2     1  UNL1       -0.2701
      5 H           8.9051   74.5026   24.5311 H       1  UNL1        0.1501
      6 C          10.7079   76.2728   23.2014 C.ar    1  UNL1        0.0808
      7 C           9.9118   77.4327   23.2494 C.ar    1  UNL1        0.0080
      8 C          10.4344   78.6444   23.7052 C.ar    1  UNL1        0.0148
      9 C          11.7702   78.7332   24.1258 C.ar    1  UNL1        0.0502
     10 C          12.5747   77.5847   24.0644 C.ar    1  UNL1        0.0443
     11 C          12.0567   76.3678   23.6117 C.ar    1  UNL1        0.1457
     12 F          12.8750   75.2877   23.6354 F       1  UNL1       -0.2040
     13 N          12.3005   79.9744   24.6411 N.pl3   1  UNL1       -0.3040
     14 C          13.7532   80.1716   24.7463 C.3     1  UNL1        0.1122
     15 C          14.0907   81.1294   25.8930 C.3     1  UNL1        0.1122
     16 N          13.3121   82.3748   25.8044 N.pl3   1  UNL1       -0.3040
     17 C          12.1082   82.4291   24.9624 C.3     1  UNL1        0.1122
     18 C          11.3836   81.0799   24.9602 C.3     1  UNL1        0.1122
     19 C          13.7818   83.5633   26.4798 C.ar    1  UNL1        0.0488
     20 C          14.0559   83.5405   27.8592 C.ar    1  UNL1        0.0154
     21 C          14.5118   84.6888   28.5114 C.ar    1  UNL1        0.0135
     22 C          14.7041   85.8763   27.7995 C.ar    1  UNL1        0.0683
     23 CL         15.2792   87.3001   28.6565 Cl      1  UNL1       -0.0814
     24 C          14.4379   85.9129   26.4215 C.ar    1  UNL1        0.0694
     25 CL         14.6732   87.3841   25.4871 Cl      1  UNL1       -0.0813
     26 C          13.9805   84.7619   25.7690 C.ar    1  UNL1        0.0268
     27 C           6.5037   74.2391   23.3890 C.2     1  UNL1        0.2443
     28 O           5.7196   73.3416   23.8037 O.2     1  UNL1       -0.2730
     29 N           6.1908   75.6264   23.5939 N.am    1  UNL1       -0.2825
     30 H           6.9753   76.3159   23.5504 H       1  UNL1        0.1549
     31 C           4.8893   76.1109   23.9668 C.ar    1  UNL1        0.0535
     32 C           3.8941   76.2366   22.9878 C.ar    1  UNL1        0.0353
     33 C           2.6213   76.6851   23.3486 C.ar    1  UNL1        0.1002
     34 N           2.3454   76.9822   24.6459 N.ar    1  UNL1       -0.2422
     35 C           3.2834   76.8518   25.6209 C.ar    1  UNL1        0.1002
     36 C           4.5693   76.4074   25.3029 C.ar    1  UNL1        0.0353
     37 C           7.8315   74.2815   21.2733 C.3     1  UNL1        0.0569
     38 N           7.0320   77.4703   21.0517 N.pl3   1  UNL1       -0.3570
     39 C           6.0564   76.8887   20.1843 C.ar    1  UNL1        0.0426
     40 C           5.2507   77.7279   19.3867 C.ar    1  UNL1        0.0142
     41 C           4.1827   77.2006   18.6357 C.ar    1  UNL1        0.0027
     42 C           3.8909   75.8301   18.6837 C.ar    1  UNL1        0.0170
     43 C           4.7076   75.0115   19.4612 C.ar    1  UNL1        0.0575
     44 N           4.6132   73.6780   19.5792 N.ar    1  UNL1       -0.3522
     45 C           5.6618   73.2935   20.3343 C.ar    1  UNL1        0.0682
     46 C           6.4410   74.3911   20.6937 C.ar    1  UNL1       -0.0005
     47 C           5.7877   75.5052   20.1615 C.ar    1  UNL1        0.0260
     48 H           7.3701   78.4437   20.8818 H       1  UNL1        0.1424
     49 H           7.2181   77.0579   21.9911 H       1  UNL1        0.1424
     50 H           3.9053   73.0541   19.1322 H       1  UNL1        0.1660
@<TRIPOS>BOND
     1    38    39    1
     2    39    40   ar
     3    40    41   ar
     4    41    42   ar
     5    42    43   ar
     6    43    44   ar
     7    44    45   ar
     8    45    46   ar
     9    46    37    1
    10    37     1    1
    11     1     2    1
    12     2     3   am
    13     3     4    2
    14     3     6    1
    15     6     7   ar
    16     7     8   ar
    17     8     9   ar
    18     9    13    1
    19    13    14    1
    20    14    15    1
    21    15    16    1
    22    16    19    1
    23    19    20   ar
    24    20    21   ar
    25    21    22   ar
    26    22    23    1
    27    22    24   ar
    28    24    25    1
    29    24    26   ar
    30    16    17    1
    31    17    18    1
    32     9    10   ar
    33    10    11   ar
    34    11    12    1
    35     1    27    1
    36    27    28    2
    37    27    29   am
    38    29    31    1
    39    31    32   ar
    40    32    33   ar
    41    33    34   ar
    42    34    35   ar
    43    35    36   ar
    44    46    47   ar
    45    47    39   ar
    46    47    43   ar
    47    11     6   ar
    48    36    31   ar
    49    18    13    1
    50    26    19   ar
    51    38    48    1
    52    38    49    1
    53    44    50    1
    54     2     5    1
    55    29    30    1
@<TRIPOS>MOLECULE
*****
 50 55 0 0 0
SMALL
GASTEIGER

@<TRIPOS>ATOM
      1 C          11.0251   77.1406   25.8451 C.3     1  UNL1        0.1535
      2 N          10.0488   77.6504   24.8723 N.am    1  UNL1       -0.2945
      3 C          10.0517   77.2112   23.5065 C.2     1  UNL1        0.2483
      4 O          11.1587   77.0582   22.9209 O.2     1  UNL1       -0.2701
      5 H           9.3353   78.3511   25.1730 H       1  UNL1        0.1501
      6 C           8.7901   76.8930   22.7795 C.ar    1  UNL1        0.0808
      7 C           8.1780   75.6425   22.9871 C.ar    1  UNL1        0.0080
      8 C           6.9479   75.3386   22.4009 C.ar    1  UNL1        0.0148
      9 C           6.2930   76.2762   21.5878 C.ar    1  UNL1        0.0502
     10 C           6.9057   77.5186   21.3624 C.ar    1  UNL1        0.0443
     11 C           8.1358   77.8301   21.9487 C.ar    1  UNL1        0.1457
     12 F           8.6392   79.0702   21.7345 F       1  UNL1       -0.2040
     13 N           4.9987   75.9816   21.0174 N.pl3   1  UNL1       -0.3040
     14 C           3.8057   76.7084   21.4745 C.3     1  UNL1        0.1122
     15 C           2.5521   75.8395   21.3340 C.3     1  UNL1        0.1122
     16 N           2.4373   75.2702   19.9821 N.pl3   1  UNL1       -0.3040
     17 C           3.6107   75.2394   19.0969 C.3     1  UNL1        0.1122
     18 C           4.8956   75.0269   19.9027 C.3     1  UNL1        0.1122
     19 C           1.1508   74.8202   19.5007 C.ar    1  UNL1        0.0488
     20 C           0.1330   75.7461   19.2089 C.ar    1  UNL1        0.0154
     21 C          -1.1097   75.3112   18.7418 C.ar    1  UNL1        0.0135
     22 C          -1.3569   73.9480   18.5557 C.ar    1  UNL1        0.0683
     23 CL         -2.9339   73.4405   17.9660 Cl      1  UNL1       -0.0814
     24 C          -0.3491   73.0125   18.8395 C.ar    1  UNL1        0.0694
     25 CL         -0.6160   71.2891   18.6126 Cl      1  UNL1       -0.0813
     26 C           0.8956   73.4494   19.3082 C.ar    1  UNL1        0.0268
     27 C          10.8764   77.8638   27.1604 C.2     1  UNL1        0.2443
     28 O          11.8992   78.0972   27.8615 O.2     1  UNL1       -0.2730
     29 N           9.5898   78.3562   27.5688 N.am    1  UNL1       -0.2825
     30 H           8.8458   78.4429   26.8396 H       1  UNL1        0.1549
     31 C           9.2970   78.8430   28.8897 C.ar    1  UNL1        0.0535
     32 C           8.5164   78.0634   29.7543 C.ar    1  UNL1        0.0353
     33 C           8.2481   78.5212   31.0465 C.ar    1  UNL1        0.1002
     34 N           8.7555   79.7094   31.4681 N.ar    1  UNL1       -0.2422
     35 C           9.5318   80.4787   30.6599 C.ar    1  UNL1        0.1002
     36 C           9.8237   80.0584   29.3598 C.ar    1  UNL1        0.0353
     37 C          10.8431   75.6218   26.0587 C.3     1  UNL1        0.0569
     38 N           7.5923   76.1405   26.2017 N.pl3   1  UNL1       -0.3570
     39 C           7.7869   75.3373   27.3676 C.ar    1  UNL1        0.0426
     40 C           6.6639   74.8481   28.0669 C.ar    1  UNL1        0.0142
     41 C           6.8152   74.1824   29.2984 C.ar    1  UNL1        0.0027
     42 C           8.0885   74.0109   29.8599 C.ar    1  UNL1        0.0170
     43 C           9.1892   74.4828   29.1479 C.ar    1  UNL1        0.0575
     44 N          10.4775   74.3561   29.5019 N.ar    1  UNL1       -0.3522
     45 C          11.1985   74.8541   28.4773 C.ar    1  UNL1        0.0682
     46 C          10.3630   75.2936   27.4528 C.ar    1  UNL1       -0.0005
     47 C           9.0613   75.0912   27.9173 C.ar    1  UNL1        0.0260
     48 H           6.6818   76.1106   25.6910 H       1  UNL1        0.1424
     49 H           8.2260   76.9436   26.0003 H       1  UNL1        0.1424
     50 H          10.8522   73.9115   30.3692 H       1  UNL1        0.1660
@<TRIPOS>BOND
     1    38    39    1
     2    39    40   ar
     3    40    41   ar
     4    41    42   ar
     5    42    43   ar
     6    43    44   ar
     7    44    45   ar
     8    45    46   ar
     9    46    37    1
    10    37     1    1
    11     1     2    1
    12     2     3   am
    13     3     4    2
    14     3     6    1
    15     6     7   ar
    16     7     8   ar
    17     8     9   ar
    18     9    13    1
    19    13    14    1
    20    14    15    1
    21    15    16    1
    22    16    19    1
    23    19    20   ar
    24    20    21   ar
    25    21    22   ar
    26    22    23    1
    27    22    24   ar
    28    24    25    1
    29    24    26   ar
    30    16    17    1
    31    17    18    1
    32     9    10   ar
    33    10    11   ar
    34    11    12    1
    35     1    27    1
    36    27    28    2
    37    27    29   am
    38    29    31    1
    39    31    32   ar
    40    32    33   ar
    41    33    34   ar
    42    34    35   ar
    43    35    36   ar
    44    46    47   ar
    45    47    39   ar
    46    47    43   ar
    47    11     6   ar
    48    36    31   ar
    49    18    13    1
    50    26    19   ar
    51    38    48    1
    52    38    49    1
    53    44    50    1
    54     2     5    1
    55    29    30    1
@<TRIPOS>MOLECULE
*****
 50 55 0 0 0
SMALL
GASTEIGER

@<TRIPOS>ATOM
      1 C          10.7343   77.5637   26.3614 C.3     1  UNL1        0.1535
      2 N           9.5781   77.9792   25.5552 N.am    1  UNL1       -0.2945
      3 C           9.5989   77.9091   24.1224 C.2     1  UNL1        0.2483
      4 O          10.6526   78.2430   23.5141 O.2     1  UNL1       -0.2701
      5 H           8.7189   78.3380   26.0280 H       1  UNL1        0.1501
      6 C           8.4294   77.4154   23.3415 C.ar    1  UNL1        0.0808
      7 C           7.5171   76.5378   23.9573 C.ar    1  UNL1        0.0080
      8 C           6.3589   76.1254   23.2960 C.ar    1  UNL1        0.0148
      9 C           6.0784   76.5773   21.9974 C.ar    1  UNL1        0.0502
     10 C           6.9921   77.4387   21.3707 C.ar    1  UNL1        0.0443
     11 C           8.1522   77.8577   22.0285 C.ar    1  UNL1        0.1457
     12 F           8.9587   78.7361   21.3844 F       1  UNL1       -0.2040
     13 N           4.8581   76.1887   21.3286 N.pl3   1  UNL1       -0.3040
     14 C           3.7632   77.1556   21.1657 C.3     1  UNL1        0.1122
     15 C           2.4086   76.4416   21.1233 C.3     1  UNL1        0.1122
     16 N           2.4050   75.3466   20.1405 N.pl3   1  UNL1       -0.3040
     17 C           3.6769   74.8122   19.6327 C.3     1  UNL1        0.1122
     18 C           4.7573   74.8542   20.7174 C.3     1  UNL1        0.1122
     19 C           1.1496   74.8582   19.6163 C.ar    1  UNL1        0.0488
     20 C           0.1310   75.7557   19.2483 C.ar    1  UNL1        0.0154
     21 C          -1.0815   75.2835   18.7397 C.ar    1  UNL1        0.0135
     22 C          -1.2971   73.9108   18.5875 C.ar    1  UNL1        0.0683
     23 CL         -2.8367   73.3562   17.9438 Cl      1  UNL1       -0.0814
     24 C          -0.2880   73.0033   18.9474 C.ar    1  UNL1        0.0694
     25 CL         -0.5154   71.2690   18.7653 Cl      1  UNL1       -0.0813
     26 C           0.9264   73.4775   19.4575 C.ar    1  UNL1        0.0268
     27 C          11.9725   78.3002   25.9151 C.2     1  UNL1        0.2443
     28 O          12.0521   79.5473   26.0901 O.2     1  UNL1       -0.2730
     29 N          13.0858   77.5719   25.3719 N.am    1  UNL1       -0.2825
     30 H          13.1258   76.5415   25.5430 H       1  UNL1        0.1549
     31 C          14.2029   78.1875   24.7080 C.ar    1  UNL1        0.0535
     32 C          14.8107   77.5308   23.6291 C.ar    1  UNL1        0.0353
     33 C          15.8816   78.1347   22.9660 C.ar    1  UNL1        0.1002
     34 N          16.3209   79.3606   23.3553 N.ar    1  UNL1       -0.2422
     35 C          15.7397   80.0309   24.3851 C.ar    1  UNL1        0.1002
     36 C          14.6665   79.4624   25.0759 C.ar    1  UNL1        0.0353
     37 C          10.4791   77.8286   27.8615 C.3     1  UNL1        0.0569
     38 N          10.9165   74.6016   28.3634 N.pl3   1  UNL1       -0.3570
     39 C           9.6993   74.8214   29.0793 C.ar    1  UNL1        0.0426
     40 C           9.1805   73.7943   29.8951 C.ar    1  UNL1        0.0142
     41 C           7.9124   73.9205   30.4941 C.ar    1  UNL1        0.0027
     42 C           7.1348   75.0660   30.2731 C.ar    1  UNL1        0.0170
     43 C           7.6691   76.0797   29.4805 C.ar    1  UNL1        0.0575
     44 N           7.0951   77.2623   29.2103 N.ar    1  UNL1       -0.3522
     45 C           8.0031   77.9675   28.5062 C.ar    1  UNL1        0.0682
     46 C           9.1740   77.2325   28.3338 C.ar    1  UNL1       -0.0005
     47 C           8.9298   75.9927   28.9290 C.ar    1  UNL1        0.0260
     48 H          11.5732   73.8478   28.6656 H       1  UNL1        0.1424
     49 H          11.0428   74.9875   27.4031 H       1  UNL1        0.1424
     50 H           6.1574   77.5950   29.5271 H       1  UNL1        0.1660
@<TRIPOS>BOND
     1    38    39    1
     2    39    40   ar
     3    40    41   ar
     4    41    42   ar
     5    42    43   ar
     6    43    44   ar
     7    44    45   ar
     8    45    46   ar
     9    46    37    1
    10    37     1    1
    11     1     2    1
    12     2     3   am
    13     3     4    2
    14     3     6    1
    15     6     7   ar
    16     7     8   ar
    17     8     9   ar
    18     9    13    1
    19    13    14    1
    20    14    15    1
    21    15    16    1
    22    16    19    1
    23    19    20   ar
    24    20    21   ar
    25    21    22   ar
    26    22    23    1
    27    22    24   ar
    28    24    25    1
    29    24    26   ar
    30    16    17    1
    31    17    18    1
    32     9    10   ar
    33    10    11   ar
    34    11    12    1
    35     1    27    1
    36    27    28    2
    37    27    29   am
    38    29    31    1
    39    31    32   ar
    40    32    33   ar
    41    33    34   ar
    42    34    35   ar
    43    35    36   ar
    44    46    47   ar
    45    47    39   ar
    46    47    43   ar
    47    11     6   ar
    48    36    31   ar
    49    18    13    1
    50    26    19   ar
    51    38    48    1
    52    38    49    1
    53    44    50    1
    54     2     5    1
    55    29    30    1
@<TRIPOS>MOLECULE
*****
 50 55 0 0 0
SMALL
GASTEIGER

@<TRIPOS>ATOM
      1 C          14.1965   85.2553   22.6200 C.3     1  UNL1        0.1535
      2 N          14.2617   83.8916   23.1635 N.am    1  UNL1       -0.2945
      3 C          13.9122   83.6099   24.5261 C.2     1  UNL1        0.2483
      4 O          14.2756   84.4173   25.4248 O.2     1  UNL1       -0.2701
      5 H          14.5716   83.1043   22.5515 H       1  UNL1        0.1501
      6 C          13.1002   82.4173   24.8999 C.ar    1  UNL1        0.0808
      7 C          11.7200   82.5738   25.1280 C.ar    1  UNL1        0.0080
      8 C          10.9050   81.4705   25.3875 C.ar    1  UNL1        0.0148
      9 C          11.4462   80.1763   25.4280 C.ar    1  UNL1        0.0502
     10 C          12.8246   80.0146   25.2187 C.ar    1  UNL1        0.0443
     11 C          13.6455   81.1150   24.9555 C.ar    1  UNL1        0.1457
     12 F          14.9561   80.8769   24.7051 F       1  UNL1       -0.2040
     13 N          10.5976   79.0285   25.6507 N.pl3   1  UNL1       -0.3040
     14 C           9.3216   78.9010   24.9326 C.3     1  UNL1        0.1122
     15 C           8.3086   78.1041   25.7603 C.3     1  UNL1        0.1122
     16 N           8.8750   76.8284   26.2261 N.pl3   1  UNL1       -0.3040
     17 C          10.3311   76.6258   26.2184 C.3     1  UNL1        0.1122
     18 C          11.0651   77.9361   26.5184 C.3     1  UNL1        0.1122
     19 C           7.9924   75.7501   26.6103 C.ar    1  UNL1        0.0488
     20 C           7.4022   74.9272   25.6343 C.ar    1  UNL1        0.0154
     21 C           6.5509   73.8837   26.0059 C.ar    1  UNL1        0.0135
     22 C           6.2763   73.6424   27.3552 C.ar    1  UNL1        0.0683
     23 CL          5.1996   72.3194   27.7824 Cl      1  UNL1       -0.0814
     24 C           6.8611   74.4537   28.3406 C.ar    1  UNL1        0.0694
     25 CL          6.5480   74.1800   30.0494 Cl      1  UNL1       -0.0813
     26 C           7.7136   75.4994   27.9671 C.ar    1  UNL1        0.0268
     27 C          15.5601   85.8987   22.6619 C.2     1  UNL1        0.2443
     28 O          16.5878   85.1923   22.4697 O.2     1  UNL1       -0.2730
     29 N          15.6795   87.3200   22.8357 N.am    1  UNL1       -0.2825
     30 H          14.8319   87.9065   22.6616 H       1  UNL1        0.1549
     31 C          16.9169   87.9942   23.1221 C.ar    1  UNL1        0.0535
     32 C          17.4115   87.9994   24.4336 C.ar    1  UNL1        0.0353
     33 C          18.6244   88.6333   24.7131 C.ar    1  UNL1        0.1002
     34 N          19.3292   89.2278   23.7145 N.ar    1  UNL1       -0.2422
     35 C          18.8855   89.2227   22.4297 C.ar    1  UNL1        0.1002
     36 C          17.6767   88.6007   22.1070 C.ar    1  UNL1        0.0353
     37 C          13.6680   85.2415   21.1688 C.3     1  UNL1        0.0569
     38 N          15.0983   86.0785   18.3209 N.pl3   1  UNL1       -0.3570
     39 C          13.9897   86.9802   18.3390 C.ar    1  UNL1        0.0426
     40 C          13.6976   87.7419   17.1883 C.ar    1  UNL1        0.0142
     41 C          12.7100   88.7450   17.2192 C.ar    1  UNL1        0.0027
     42 C          12.0112   89.0157   18.4042 C.ar    1  UNL1        0.0170
     43 C          12.2977   88.2419   19.5269 C.ar    1  UNL1        0.0575
     44 N          11.6915   88.3213   20.7216 N.ar    1  UNL1       -0.3522
     45 C          12.2028   87.3221   21.4684 C.ar    1  UNL1        0.0682
     46 C          13.1376   86.5894   20.7404 C.ar    1  UNL1       -0.0005
     47 C          13.2256   87.2226   19.4984 C.ar    1  UNL1        0.0260
     48 H          15.4884   85.7461   17.4109 H       1  UNL1        0.1424
     49 H          15.6917   85.9521   19.1688 H       1  UNL1        0.1424
     50 H          10.9358   88.9850   21.0023 H       1  UNL1        0.1660
@<TRIPOS>BOND
     1    38    39    1
     2    39    40   ar
     3    40    41   ar
     4    41    42   ar
     5    42    43   ar
     6    43    44   ar
     7    44    45   ar
     8    45    46   ar
     9    46    37    1
    10    37     1    1
    11     1     2    1
    12     2     3   am
    13     3     4    2
    14     3     6    1
    15     6     7   ar
    16     7     8   ar
    17     8     9   ar
    18     9    13    1
    19    13    14    1
    20    14    15    1
    21    15    16    1
    22    16    19    1
    23    19    20   ar
    24    20    21   ar
    25    21    22   ar
    26    22    23    1
    27    22    24   ar
    28    24    25    1
    29    24    26   ar
    30    16    17    1
    31    17    18    1
    32     9    10   ar
    33    10    11   ar
    34    11    12    1
    35     1    27    1
    36    27    28    2
    37    27    29   am
    38    29    31    1
    39    31    32   ar
    40    32    33   ar
    41    33    34   ar
    42    34    35   ar
    43    35    36   ar
    44    46    47   ar
    45    47    39   ar
    46    47    43   ar
    47    11     6   ar
    48    36    31   ar
    49    18    13    1
    50    26    19   ar
    51    38    48    1
    52    38    49    1
    53    44    50    1
    54     2     5    1
    55    29    30    1
