@<TRIPOS>MOLECULE
*****
 51 56 0 0 0
SMALL
GASTEIGER

@<TRIPOS>ATOM
      1 N          59.7760   86.0568   11.5955 N.am    1  UNL1       -0.2945
      2 C          59.3550   87.4128   11.3839 C.2     1  UNL1        0.2483
      3 O          58.8528   88.0693   12.3370 O.2     1  UNL1       -0.2701
      4 H          59.9046   85.4450   10.7607 H       1  UNL1        0.1501
      5 C          59.4704   88.0423   10.0491 C.ar    1  UNL1        0.0808
      6 C          60.1459   89.2668    9.9148 C.ar    1  UNL1        0.0080
      7 C          60.2598   89.8822    8.6657 C.ar    1  UNL1        0.0148
      8 C          59.7114   89.2785    7.5237 C.ar    1  UNL1        0.0502
      9 C          59.0497   88.0484    7.6517 C.ar    1  UNL1        0.0443
     10 C          58.9318   87.4299    8.9001 C.ar    1  UNL1        0.1457
     11 F          58.3314   86.2156    8.9698 F       1  UNL1       -0.2040
     12 N          59.8234   89.9088    6.2338 N.pl3   1  UNL1       -0.3040
     13 C          61.0410   89.7490    5.4301 C.3     1  UNL1        0.1122
     14 C          61.3709   91.0602    4.7160 C.3     1  UNL1        0.1122
     15 N          60.1740   91.5883    4.0500 N.pl3   1  UNL1       -0.3041
     16 C          58.9556   91.7465    4.8533 C.3     1  UNL1        0.1122
     17 C          58.6262   90.4350    5.5671 C.3     1  UNL1        0.1122
     18 C          60.2895   92.2257    2.7637 C.ar    1  UNL1        0.0479
     19 C          61.4824   92.1246    2.0321 C.ar    1  UNL1        0.0145
     20 C          61.6006   92.7366    0.7811 C.ar    1  UNL1        0.0051
     21 C          60.5326   93.4771    0.2463 C.ar    1  UNL1        0.0715
     22 C          59.3285   93.5533    0.9670 C.ar    1  UNL1        0.0051
     23 C          59.2108   92.9402    2.2177 C.ar    1  UNL1        0.0145
     24 C          60.6427   94.0955   -1.1246 C.3     1  UNL1        0.4186
     25 F          60.7240   93.0917   -2.0714 F       1  UNL1       -0.1659
     26 F          59.5371   94.8830   -1.3958 F       1  UNL1       -0.1659
     27 F          61.7720   94.8912   -1.2127 F       1  UNL1       -0.1659
     28 C          59.8263   85.4551   12.9318 C.3     1  UNL1        0.1535
     29 C          59.2110   84.0828   12.8984 C.2     1  UNL1        0.2443
     30 O          58.1225   83.8827   13.5025 O.2     1  UNL1       -0.2730
     31 N          59.8943   82.9966   12.2506 N.am    1  UNL1       -0.2825
     32 H          60.9127   83.1109   12.0458 H       1  UNL1        0.1549
     33 C          59.2880   81.7280   11.9520 C.ar    1  UNL1        0.0535
     34 C          59.3021   80.6698   12.8766 C.ar    1  UNL1        0.0353
     35 C          58.6759   79.4635   12.5523 C.ar    1  UNL1        0.1002
     36 N          58.0458   79.3213   11.3563 N.ar    1  UNL1       -0.2422
     37 C          58.0005   80.3339   10.4509 C.ar    1  UNL1        0.1002
     38 C          58.6125   81.5568   10.7359 C.ar    1  UNL1        0.0353
     39 C          61.2715   85.3812   13.4635 C.3     1  UNL1        0.0569
     40 C          63.0649   82.5857   12.7898 C.ar    1  UNL1       -0.0211
     41 C          63.8599   81.5904   12.1740 C.ar    1  UNL1       -0.0042
     42 C          64.4744   81.8138   10.9295 C.ar    1  UNL1        0.0012
     43 C          64.3255   83.0415   10.2767 C.ar    1  UNL1        0.0169
     44 C          63.5527   84.0229   10.8896 C.ar    1  UNL1        0.0560
     45 N          63.3098   85.2482   10.3998 N.ar    1  UNL1       -0.3523
     46 C          62.5110   85.8581   11.2942 C.ar    1  UNL1        0.0681
     47 C          62.2430   85.0185   12.3701 C.ar    1  UNL1       -0.0020
     48 C          62.9244   83.8213   12.1056 C.ar    1  UNL1        0.0091
     49 H          63.6545   85.6471    9.4983 H       1  UNL1        0.1660
     50 C          63.6088   81.8781   15.1266 C.3     1  UNL1        0.0050
     51 C          62.5040   82.2995   14.1608 C.3     1  UNL1        0.0264
@<TRIPOS>BOND
     1    50    51    1
     2    51    40    1
     3    40    41   ar
     4    41    42   ar
     5    42    43   ar
     6    43    44   ar
     7    44    45   ar
     8    45    46   ar
     9    46    47   ar
    10    47    39    1
    11    39    28    1
    12    28     1    1
    13     1     2   am
    14     2     3    2
    15     2     5    1
    16     5     6   ar
    17     6     7   ar
    18     7     8   ar
    19     8    12    1
    20    12    13    1
    21    13    14    1
    22    14    15    1
    23    15    18    1
    24    18    19   ar
    25    19    20   ar
    26    20    21   ar
    27    21    24    1
    28    24    25    1
    29    24    26    1
    30    24    27    1
    31    21    22   ar
    32    22    23   ar
    33    15    16    1
    34    16    17    1
    35     8     9   ar
    36     9    10   ar
    37    10    11    1
    38    28    29    1
    39    29    30    2
    40    29    31   am
    41    31    33    1
    42    33    34   ar
    43    34    35   ar
    44    35    36   ar
    45    36    37   ar
    46    37    38   ar
    47    47    48   ar
    48    48    40   ar
    49    48    44   ar
    50    10     5   ar
    51    38    33   ar
    52    17    12    1
    53    23    18   ar
    54    45    49    1
    55     1     4    1
    56    31    32    1
@<TRIPOS>MOLECULE
*****
 51 56 0 0 0
SMALL
GASTEIGER

@<TRIPOS>ATOM
      1 N          61.7710   87.1261   11.9747 N.am    1  UNL1       -0.2945
      2 C          60.5742   87.8243   11.5992 C.2     1  UNL1        0.2483
      3 O          59.6066   87.8887   12.4062 O.2     1  UNL1       -0.2701
      4 H          62.4250   86.8281   11.2189 H       1  UNL1        0.1501
      5 C          60.4462   88.4422   10.2601 C.ar    1  UNL1        0.0808
      6 C          59.7982   87.7397    9.2303 C.ar    1  UNL1        0.0080
      7 C          59.6730   88.3009    7.9569 C.ar    1  UNL1        0.0148
      8 C          60.1822   89.5814    7.6917 C.ar    1  UNL1        0.0502
      9 C          60.8161   90.2918    8.7218 C.ar    1  UNL1        0.0443
     10 C          60.9451   89.7333    9.9970 C.ar    1  UNL1        0.1457
     11 F          61.5169   90.4764   10.9772 F       1  UNL1       -0.2040
     12 N          60.0584   90.1644    6.3808 N.pl3   1  UNL1       -0.3040
     13 C          61.2151   90.2225    5.4794 C.3     1  UNL1        0.1122
     14 C          61.2079   91.5410    4.7052 C.3     1  UNL1        0.1122
     15 N          59.8785   91.7833    4.1315 N.pl3   1  UNL1       -0.3041
     16 C          58.7213   91.7234    5.0327 C.3     1  UNL1        0.1122
     17 C          58.7291   90.4047    5.8065 C.3     1  UNL1        0.1122
     18 C          59.7569   92.3740    2.8237 C.ar    1  UNL1        0.0479
     19 C          60.9037   92.7805    2.1250 C.ar    1  UNL1        0.0145
     20 C          60.7941   93.3505    0.8535 C.ar    1  UNL1        0.0051
     21 C          59.5325   93.5413    0.2645 C.ar    1  UNL1        0.0715
     22 C          58.3869   93.1072    0.9530 C.ar    1  UNL1        0.0051
     23 C          58.4974   92.5364    2.2242 C.ar    1  UNL1        0.0145
     24 C          59.4175   94.1105   -1.1272 C.3     1  UNL1        0.4186
     25 F          60.5266   94.8915   -1.3924 F       1  UNL1       -0.1659
     26 F          59.3454   93.0957   -2.0659 F       1  UNL1       -0.1659
     27 F          58.2790   94.8891   -1.2443 F       1  UNL1       -0.1659
     28 C          61.9962   86.6427   13.3407 C.3     1  UNL1        0.1535
     29 C          62.4270   87.7828   14.2223 C.2     1  UNL1        0.2443
     30 O          62.2633   87.6911   15.4692 O.2     1  UNL1       -0.2730
     31 N          62.9477   88.9912   13.6435 N.am    1  UNL1       -0.2825
     32 H          62.7759   89.1611   12.6268 H       1  UNL1        0.1549
     33 C          63.6078   90.0239   14.3943 C.ar    1  UNL1        0.0535
     34 C          63.2331   90.3280   15.7142 C.ar    1  UNL1        0.0353
     35 C          63.9220   91.3220   16.4141 C.ar    1  UNL1        0.1002
     36 N          64.9561   91.9793   15.8257 N.ar    1  UNL1       -0.2422
     37 C          65.3519   91.6931   14.5574 C.ar    1  UNL1        0.1002
     38 C          64.6912   90.7054   13.8231 C.ar    1  UNL1        0.0353
     39 C          60.7348   85.9680   13.9156 C.3     1  UNL1        0.0569
     40 C          59.0067   83.5901   12.2292 C.ar    1  UNL1       -0.0211
     41 C          58.5777   82.3812   11.6321 C.ar    1  UNL1       -0.0042
     42 C          59.2428   81.1680   11.8811 C.ar    1  UNL1        0.0012
     43 C          60.3414   81.1274   12.7454 C.ar    1  UNL1        0.0169
     44 C          60.7545   82.3154   13.3404 C.ar    1  UNL1        0.0560
     45 N          61.7852   82.4495   14.1888 N.ar    1  UNL1       -0.3523
     46 C          61.8435   83.7560   14.5045 C.ar    1  UNL1        0.0681
     47 C          60.8381   84.4658   13.8570 C.ar    1  UNL1       -0.0020
     48 C          60.1270   83.5244   13.0984 C.ar    1  UNL1        0.0091
     49 H          62.4270   81.6977   14.5259 H       1  UNL1        0.1660
     50 C          57.3381   84.6837   10.7202 C.3     1  UNL1        0.0050
     51 C          58.1942   84.8356   11.9752 C.3     1  UNL1        0.0264
@<TRIPOS>BOND
     1    50    51    1
     2    51    40    1
     3    40    41   ar
     4    41    42   ar
     5    42    43   ar
     6    43    44   ar
     7    44    45   ar
     8    45    46   ar
     9    46    47   ar
    10    47    39    1
    11    39    28    1
    12    28     1    1
    13     1     2   am
    14     2     3    2
    15     2     5    1
    16     5     6   ar
    17     6     7   ar
    18     7     8   ar
    19     8    12    1
    20    12    13    1
    21    13    14    1
    22    14    15    1
    23    15    18    1
    24    18    19   ar
    25    19    20   ar
    26    20    21   ar
    27    21    24    1
    28    24    25    1
    29    24    26    1
    30    24    27    1
    31    21    22   ar
    32    22    23   ar
    33    15    16    1
    34    16    17    1
    35     8     9   ar
    36     9    10   ar
    37    10    11    1
    38    28    29    1
    39    29    30    2
    40    29    31   am
    41    31    33    1
    42    33    34   ar
    43    34    35   ar
    44    35    36   ar
    45    36    37   ar
    46    37    38   ar
    47    47    48   ar
    48    48    40   ar
    49    48    44   ar
    50    10     5   ar
    51    38    33   ar
    52    17    12    1
    53    23    18   ar
    54    45    49    1
    55     1     4    1
    56    31    32    1
@<TRIPOS>MOLECULE
*****
 51 56 0 0 0
SMALL
GASTEIGER

@<TRIPOS>ATOM
      1 N          60.9441   87.5380   12.3715 N.am    1  UNL1       -0.2945
      2 C          59.7371   87.7161   11.6151 C.2     1  UNL1        0.2483
      3 O          58.6386   87.3078   12.0823 O.2     1  UNL1       -0.2701
      4 H          61.8551   87.6012   11.8675 H       1  UNL1        0.1501
      5 C          59.7687   88.3432   10.2746 C.ar    1  UNL1        0.0808
      6 C          59.4159   87.5857    9.1452 C.ar    1  UNL1        0.0080
      7 C          59.4462   88.1554    7.8698 C.ar    1  UNL1        0.0148
      8 C          59.8177   89.4980    7.7001 C.ar    1  UNL1        0.0502
      9 C          60.1557   90.2614    8.8272 C.ar    1  UNL1        0.0443
     10 C          60.1285   89.6948   10.1051 C.ar    1  UNL1        0.1457
     11 F          60.4105   90.4836   11.1720 F       1  UNL1       -0.2040
     12 N          59.8531   90.0904    6.3880 N.pl3   1  UNL1       -0.3040
     13 C          61.0643   90.0027    5.5638 C.3     1  UNL1        0.1122
     14 C          61.2718   91.3109    4.8001 C.3     1  UNL1        0.1122
     15 N          60.0231   91.7165    4.1432 N.pl3   1  UNL1       -0.3041
     16 C          58.8113   91.8024    4.9671 C.3     1  UNL1        0.1122
     17 C          58.6044   90.4939    5.7305 C.3     1  UNL1        0.1122
     18 C          60.0615   92.3163    2.8344 C.ar    1  UNL1        0.0479
     19 C          61.2932   92.6064    2.2284 C.ar    1  UNL1        0.0145
     20 C          61.3387   93.1844    0.9566 C.ar    1  UNL1        0.0051
     21 C          60.1512   93.4999    0.2744 C.ar    1  UNL1        0.0715
     22 C          58.9187   93.1822    0.8701 C.ar    1  UNL1        0.0051
     23 C          58.8741   92.6033    2.1417 C.ar    1  UNL1        0.0145
     24 C          60.2004   94.0776   -1.1176 C.3     1  UNL1        0.4186
     25 F          60.2439   93.0462   -2.0370 F       1  UNL1       -0.1659
     26 F          59.0819   94.8548   -1.3641 F       1  UNL1       -0.1659
     27 F          61.3226   94.8721   -1.2778 F       1  UNL1       -0.1659
     28 C          60.9321   87.0703   13.7613 C.3     1  UNL1        0.1535
     29 C          61.3700   85.6324   13.8210 C.2     1  UNL1        0.2443
     30 O          60.5392   84.7512   14.1721 O.2     1  UNL1       -0.2730
     31 N          62.7376   85.2785   13.5551 N.am    1  UNL1       -0.2825
     32 H          63.4547   86.0382   13.5834 H       1  UNL1        0.1549
     33 C          63.1944   83.9319   13.3455 C.ar    1  UNL1        0.0535
     34 C          63.4419   83.0628   14.4218 C.ar    1  UNL1        0.0353
     35 C          63.8589   81.7536   14.1681 C.ar    1  UNL1        0.1002
     36 N          64.0100   81.3211   12.8884 N.ar    1  UNL1       -0.2422
     37 C          63.7600   82.1340   11.8282 C.ar    1  UNL1        0.1002
     38 C          63.3398   83.4496   12.0375 C.ar    1  UNL1        0.0353
     39 C          61.8334   87.9423   14.6580 C.3     1  UNL1        0.0569
     40 C          63.8739   90.5268   15.4593 C.ar    1  UNL1       -0.0211
     41 C          64.8457   91.5549   15.4380 C.ar    1  UNL1       -0.0042
     42 C          65.4920   91.9235   14.2452 C.ar    1  UNL1        0.0012
     43 C          65.1726   91.2878   13.0413 C.ar    1  UNL1        0.0169
     44 C          64.2082   90.2850   13.0627 C.ar    1  UNL1        0.0560
     45 N          63.7885   89.5791   12.0016 N.ar    1  UNL1       -0.3523
     46 C          62.8724   88.7109   12.4674 C.ar    1  UNL1        0.0681
     47 C          62.6989   88.8644   13.8386 C.ar    1  UNL1       -0.0020
     48 C          63.5704   89.8930   14.2261 C.ar    1  UNL1        0.0091
     49 H          64.1161   89.6693   11.0141 H       1  UNL1        0.1660
     50 C          63.2029   88.7519   17.0893 C.3     1  UNL1        0.0050
     51 C          63.1684   90.2428   16.7623 C.3     1  UNL1        0.0264
@<TRIPOS>BOND
     1    50    51    1
     2    51    40    1
     3    40    41   ar
     4    41    42   ar
     5    42    43   ar
     6    43    44   ar
     7    44    45   ar
     8    45    46   ar
     9    46    47   ar
    10    47    39    1
    11    39    28    1
    12    28     1    1
    13     1     2   am
    14     2     3    2
    15     2     5    1
    16     5     6   ar
    17     6     7   ar
    18     7     8   ar
    19     8    12    1
    20    12    13    1
    21    13    14    1
    22    14    15    1
    23    15    18    1
    24    18    19   ar
    25    19    20   ar
    26    20    21   ar
    27    21    24    1
    28    24    25    1
    29    24    26    1
    30    24    27    1
    31    21    22   ar
    32    22    23   ar
    33    15    16    1
    34    16    17    1
    35     8     9   ar
    36     9    10   ar
    37    10    11    1
    38    28    29    1
    39    29    30    2
    40    29    31   am
    41    31    33    1
    42    33    34   ar
    43    34    35   ar
    44    35    36   ar
    45    36    37   ar
    46    37    38   ar
    47    47    48   ar
    48    48    40   ar
    49    48    44   ar
    50    10     5   ar
    51    38    33   ar
    52    17    12    1
    53    23    18   ar
    54    45    49    1
    55     1     4    1
    56    31    32    1
@<TRIPOS>MOLECULE
*****
 51 56 0 0 0
SMALL
GASTEIGER

@<TRIPOS>ATOM
      1 N          61.2195   84.8947   13.0804 N.am    1  UNL1       -0.2945
      2 C          60.0840   85.7423   12.8505 C.2     1  UNL1        0.2483
      3 O          59.0990   85.6981   13.6375 O.2     1  UNL1       -0.2701
      4 H          61.8746   84.7229   12.2872 H       1  UNL1        0.1501
      5 C          60.0379   86.6457   11.6786 C.ar    1  UNL1        0.0808
      6 C          60.1305   86.1085   10.3837 C.ar    1  UNL1        0.0080
      7 C          60.0970   86.9436    9.2640 C.ar    1  UNL1        0.0148
      8 C          59.9571   88.3315    9.4169 C.ar    1  UNL1        0.0502
      9 C          59.8489   88.8696   10.7077 C.ar    1  UNL1        0.0443
     10 C          59.8838   88.0378   11.8310 C.ar    1  UNL1        0.1457
     11 F          59.7218   88.5946   13.0573 F       1  UNL1       -0.2040
     12 N          59.9241   89.1978    8.2670 N.pl3   1  UNL1       -0.3040
     13 C          58.8670   89.0571    7.2587 C.3     1  UNL1        0.1122
     14 C          59.4449   89.2842    5.8615 C.3     1  UNL1        0.1122
     15 N          60.2529   90.5097    5.8415 N.pl3   1  UNL1       -0.3041
     16 C          61.3090   90.6513    6.8511 C.3     1  UNL1        0.1122
     17 C          60.7306   90.4241    8.2480 C.3     1  UNL1        0.1122
     18 C          60.2248   91.3703    4.6871 C.ar    1  UNL1        0.0479
     19 C          61.3931   91.5860    3.9407 C.ar    1  UNL1        0.0145
     20 C          61.3728   92.4164    2.8166 C.ar    1  UNL1        0.0051
     21 C          60.1861   93.0614    2.4285 C.ar    1  UNL1        0.0715
     22 C          59.0102   92.8215    3.1597 C.ar    1  UNL1        0.0051
     23 C          59.0311   91.9902    4.2833 C.ar    1  UNL1        0.0145
     24 C          60.1526   93.9174    1.1875 C.3     1  UNL1        0.4186
     25 F          61.2716   94.7286    1.1640 F       1  UNL1       -0.1659
     26 F          60.1431   93.1289    0.0499 F       1  UNL1       -0.1659
     27 F          59.0191   94.7119    1.1721 F       1  UNL1       -0.1659
     28 C          61.3705   84.1093   14.3095 C.3     1  UNL1        0.1535
     29 C          61.0387   82.6672   14.0391 C.2     1  UNL1        0.2443
     30 O          61.6653   81.7659   14.6595 O.2     1  UNL1       -0.2730
     31 N          60.0740   82.3212   13.0312 N.am    1  UNL1       -0.2825
     32 H          59.8156   83.0508   12.3291 H       1  UNL1        0.1549
     33 C          59.5130   81.0075   12.8713 C.ar    1  UNL1        0.0535
     34 C          59.0908   80.5353   11.6168 C.ar    1  UNL1        0.0353
     35 C          58.5767   79.2408   11.5055 C.ar    1  UNL1        0.1002
     36 N          58.4994   78.4404   12.6013 N.ar    1  UNL1       -0.2422
     37 C          58.9175   78.8641   13.8232 C.ar    1  UNL1        0.1002
     38 C          59.4392   80.1506   13.9780 C.ar    1  UNL1        0.0353
     39 C          62.7950   84.2321   14.8862 C.3     1  UNL1        0.0569
     40 C          63.3205   87.5714   14.6451 C.ar    1  UNL1       -0.0211
     41 C          63.4192   88.9590   14.9037 C.ar    1  UNL1       -0.0042
     42 C          63.2462   89.4738   16.2004 C.ar    1  UNL1        0.0012
     43 C          62.9877   88.6159   17.2741 C.ar    1  UNL1        0.0169
     44 C          62.9025   87.2506   17.0193 C.ar    1  UNL1        0.0560
     45 N          62.6611   86.2972   17.9319 N.ar    1  UNL1       -0.3523
     46 C          62.6448   85.1312   17.2607 C.ar    1  UNL1        0.0681
     47 C          62.8831   85.3378   15.9062 C.ar    1  UNL1       -0.0020
     48 C          63.0524   86.7214   15.7499 C.ar    1  UNL1        0.0091
     49 H          62.5000   86.4293   18.9552 H       1  UNL1        0.1660
     50 C          63.1940   88.1412   12.2128 C.3     1  UNL1        0.0050
     51 C          63.5964   87.0886   13.2427 C.3     1  UNL1        0.0264
@<TRIPOS>BOND
     1    50    51    1
     2    51    40    1
     3    40    41   ar
     4    41    42   ar
     5    42    43   ar
     6    43    44   ar
     7    44    45   ar
     8    45    46   ar
     9    46    47   ar
    10    47    39    1
    11    39    28    1
    12    28     1    1
    13     1     2   am
    14     2     3    2
    15     2     5    1
    16     5     6   ar
    17     6     7   ar
    18     7     8   ar
    19     8    12    1
    20    12    13    1
    21    13    14    1
    22    14    15    1
    23    15    18    1
    24    18    19   ar
    25    19    20   ar
    26    20    21   ar
    27    21    24    1
    28    24    25    1
    29    24    26    1
    30    24    27    1
    31    21    22   ar
    32    22    23   ar
    33    15    16    1
    34    16    17    1
    35     8     9   ar
    36     9    10   ar
    37    10    11    1
    38    28    29    1
    39    29    30    2
    40    29    31   am
    41    31    33    1
    42    33    34   ar
    43    34    35   ar
    44    35    36   ar
    45    36    37   ar
    46    37    38   ar
    47    47    48   ar
    48    48    40   ar
    49    48    44   ar
    50    10     5   ar
    51    38    33   ar
    52    17    12    1
    53    23    18   ar
    54    45    49    1
    55     1     4    1
    56    31    32    1
@<TRIPOS>MOLECULE
*****
 51 56 0 0 0
SMALL
GASTEIGER

@<TRIPOS>ATOM
      1 N          62.2818   87.9719   12.1292 N.am    1  UNL1       -0.2945
      2 C          60.9592   88.1476   11.5997 C.2     1  UNL1        0.2483
      3 O          59.9596   87.7749   12.2732 O.2     1  UNL1       -0.2701
      4 H          63.0861   88.0021   11.4658 H       1  UNL1        0.1501
      5 C          60.7529   88.7302   10.2545 C.ar    1  UNL1        0.0808
      6 C          60.0093   88.0203    9.2969 C.ar    1  UNL1        0.0080
      7 C          59.8089   88.5481    8.0189 C.ar    1  UNL1        0.0148
      8 C          60.3377   89.8023    7.6773 C.ar    1  UNL1        0.0502
      9 C          61.0676   90.5205    8.6359 C.ar    1  UNL1        0.0443
     10 C          61.2720   89.9953    9.9155 C.ar    1  UNL1        0.1457
     11 F          61.9374   90.7469   10.8278 F       1  UNL1       -0.2040
     12 N          60.1366   90.3507    6.3611 N.pl3   1  UNL1       -0.3040
     13 C          61.2507   90.4292    5.4089 C.3     1  UNL1        0.1122
     14 C          61.1624   91.7287    4.6081 C.3     1  UNL1        0.1122
     15 N          59.8017   91.9108    4.0881 N.pl3   1  UNL1       -0.3041
     16 C          58.6873   91.8306    5.0401 C.3     1  UNL1        0.1122
     17 C          58.7761   90.5309    5.8405 C.3     1  UNL1        0.1122
     18 C          59.6027   92.4671    2.7747 C.ar    1  UNL1        0.0479
     19 C          60.6248   93.2069    2.1609 C.ar    1  UNL1        0.0145
     20 C          60.4408   93.7462    0.8846 C.ar    1  UNL1        0.0051
     21 C          59.2230   93.5705    0.2055 C.ar    1  UNL1        0.0715
     22 C          58.2110   92.8048    0.8092 C.ar    1  UNL1        0.0051
     23 C          58.3961   92.2651    2.0853 C.ar    1  UNL1        0.0145
     24 C          59.0425   94.1099   -1.1911 C.3     1  UNL1        0.4186
     25 F          58.9313   93.0537   -2.0759 F       1  UNL1       -0.1659
     26 F          57.9002   94.8875   -1.2709 F       1  UNL1       -0.1659
     27 F          60.1243   94.8924   -1.5566 F       1  UNL1       -0.1659
     28 C          62.5182   87.5499   13.5136 C.3     1  UNL1        0.1535
     29 C          62.4186   86.0524   13.6159 C.2     1  UNL1        0.2443
     30 O          61.2823   85.5077   13.5707 O.2     1  UNL1       -0.2730
     31 N          63.5971   85.2602   13.8390 N.am    1  UNL1       -0.2825
     32 H          64.4554   85.7454   14.1856 H       1  UNL1        0.1549
     33 C          63.6426   83.8297   13.7055 C.ar    1  UNL1        0.0535
     34 C          64.0553   83.2149   12.5110 C.ar    1  UNL1        0.0353
     35 C          64.1093   81.8206   12.4371 C.ar    1  UNL1        0.1002
     36 N          63.7782   81.0662   13.5182 N.ar    1  UNL1       -0.2422
     37 C          63.3935   81.6342   14.6915 C.ar    1  UNL1        0.1002
     38 C          63.3274   83.0246   14.8086 C.ar    1  UNL1        0.0353
     39 C          63.8910   88.0315   14.0238 C.3     1  UNL1        0.0569
     40 C          64.9460   91.1587   14.7937 C.ar    1  UNL1       -0.0211
     41 C          65.1408   92.4219   15.4006 C.ar    1  UNL1       -0.0042
     42 C          64.5726   92.7267   16.6498 C.ar    1  UNL1        0.0012
     43 C          63.8108   91.7734   17.3326 C.ar    1  UNL1        0.0169
     44 C          63.6301   90.5279   16.7392 C.ar    1  UNL1        0.0560
     45 N          62.9301   89.5073   17.2575 N.ar    1  UNL1       -0.3523
     46 C          62.9970   88.5106   16.3563 C.ar    1  UNL1        0.0681
     47 C          63.7509   88.8932   15.2520 C.ar    1  UNL1       -0.0020
     48 C          64.1648   90.2097   15.5035 C.ar    1  UNL1        0.0091
     49 H          62.4196   89.4905   18.1684 H       1  UNL1        0.1660
     50 C          66.1578   92.1731   12.8547 C.3     1  UNL1        0.0050
     51 C          65.6525   90.8802   13.4901 C.3     1  UNL1        0.0264
@<TRIPOS>BOND
     1    50    51    1
     2    51    40    1
     3    40    41   ar
     4    41    42   ar
     5    42    43   ar
     6    43    44   ar
     7    44    45   ar
     8    45    46   ar
     9    46    47   ar
    10    47    39    1
    11    39    28    1
    12    28     1    1
    13     1     2   am
    14     2     3    2
    15     2     5    1
    16     5     6   ar
    17     6     7   ar
    18     7     8   ar
    19     8    12    1
    20    12    13    1
    21    13    14    1
    22    14    15    1
    23    15    18    1
    24    18    19   ar
    25    19    20   ar
    26    20    21   ar
    27    21    24    1
    28    24    25    1
    29    24    26    1
    30    24    27    1
    31    21    22   ar
    32    22    23   ar
    33    15    16    1
    34    16    17    1
    35     8     9   ar
    36     9    10   ar
    37    10    11    1
    38    28    29    1
    39    29    30    2
    40    29    31   am
    41    31    33    1
    42    33    34   ar
    43    34    35   ar
    44    35    36   ar
    45    36    37   ar
    46    37    38   ar
    47    47    48   ar
    48    48    40   ar
    49    48    44   ar
    50    10     5   ar
    51    38    33   ar
    52    17    12    1
    53    23    18   ar
    54    45    49    1
    55     1     4    1
    56    31    32    1
@<TRIPOS>MOLECULE
*****
 51 56 0 0 0
SMALL
GASTEIGER

@<TRIPOS>ATOM
      1 N          61.7891   87.4852   12.1245 N.am    1  UNL1       -0.2945
      2 C          60.5417   88.0584   11.7048 C.2     1  UNL1        0.2483
      3 O          59.5507   88.0434   12.4854 O.2     1  UNL1       -0.2701
      4 H          62.4891   87.2383   11.3918 H       1  UNL1        0.1501
      5 C          60.3918   88.6377   10.3508 C.ar    1  UNL1        0.0808
      6 C          59.8832   87.8445    9.3086 C.ar    1  UNL1        0.0080
      7 C          59.7405   88.3688    8.0214 C.ar    1  UNL1        0.0148
      8 C          60.0918   89.7009    7.7539 C.ar    1  UNL1        0.0502
      9 C          60.5855   90.5000    8.7956 C.ar    1  UNL1        0.0443
     10 C          60.7315   89.9789   10.0848 C.ar    1  UNL1        0.1457
     11 F          61.1614   90.8019   11.0737 F       1  UNL1       -0.2040
     12 N          59.9494   90.2465    6.4289 N.pl3   1  UNL1       -0.3040
     13 C          61.0845   90.2491    5.4986 C.3     1  UNL1        0.1122
     14 C          61.0890   91.5432    4.6843 C.3     1  UNL1        0.1122
     15 N          59.7519   91.7999    4.1354 N.pl3   1  UNL1       -0.3041
     16 C          58.6163   91.7955    5.0655 C.3     1  UNL1        0.1122
     17 C          58.6123   90.5012    5.8794 C.3     1  UNL1        0.1122
     18 C          59.6119   92.3533    2.8131 C.ar    1  UNL1        0.0479
     19 C          60.6812   93.0422    2.2211 C.ar    1  UNL1        0.0145
     20 C          60.5545   93.5782    0.9364 C.ar    1  UNL1        0.0051
     21 C          59.3482   93.4505    0.2268 C.ar    1  UNL1        0.0715
     22 C          58.2880   92.7353    0.8093 C.ar    1  UNL1        0.0051
     23 C          58.4158   92.1987    2.0937 C.ar    1  UNL1        0.0145
     24 C          59.2281   93.9854   -1.1779 C.3     1  UNL1        0.4186
     25 F          58.1765   94.8808   -1.2355 F       1  UNL1       -0.1659
     26 F          60.3922   94.6318   -1.5561 F       1  UNL1       -0.1659
     27 F          58.9942   92.9569   -2.0744 F       1  UNL1       -0.1659
     28 C          62.0221   87.0495   13.5052 C.3     1  UNL1        0.1535
     29 C          62.4956   88.2113   14.3352 C.2     1  UNL1        0.2443
     30 O          62.2335   88.2326   15.5684 O.2     1  UNL1       -0.2730
     31 N          63.1710   89.3186   13.7155 N.am    1  UNL1       -0.2825
     32 H          63.0908   89.4234   12.6788 H       1  UNL1        0.1549
     33 C          63.8712   90.3427   14.4414 C.ar    1  UNL1        0.0535
     34 C          64.9765   91.0117   13.8885 C.ar    1  UNL1        0.0353
     35 C          65.6088   92.0195   14.6214 C.ar    1  UNL1        0.1002
     36 N          65.1478   92.3587   15.8543 N.ar    1  UNL1       -0.2422
     37 C          64.0698   91.7414   16.4057 C.ar    1  UNL1        0.1002
     38 C          63.4078   90.7296   15.7063 C.ar    1  UNL1        0.0353
     39 C          60.7525   86.4315   14.1238 C.3     1  UNL1        0.0569
     40 C          62.6125   83.5992   14.0594 C.ar    1  UNL1       -0.0211
     41 C          63.0554   82.2605   13.9435 C.ar    1  UNL1       -0.0042
     42 C          62.2124   81.2538   13.4412 C.ar    1  UNL1        0.0012
     43 C          60.9129   81.5606   13.0258 C.ar    1  UNL1        0.0169
     44 C          60.4834   82.8800   13.1299 C.ar    1  UNL1        0.0560
     45 N          59.2729   83.3397   12.7784 N.ar    1  UNL1       -0.3523
     46 C          59.2751   84.6553   13.0599 C.ar    1  UNL1        0.0681
     47 C          60.4996   85.0443   13.5922 C.ar    1  UNL1       -0.0020
     48 C          61.2881   83.8850   13.6362 C.ar    1  UNL1        0.0091
     49 H          58.4793   82.7887   12.3820 H       1  UNL1        0.1660
     50 C          64.9766   84.0158   14.7627 C.3     1  UNL1        0.0050
     51 C          63.6006   84.6361   14.5332 C.3     1  UNL1        0.0264
@<TRIPOS>BOND
     1    50    51    1
     2    51    40    1
     3    40    41   ar
     4    41    42   ar
     5    42    43   ar
     6    43    44   ar
     7    44    45   ar
     8    45    46   ar
     9    46    47   ar
    10    47    39    1
    11    39    28    1
    12    28     1    1
    13     1     2   am
    14     2     3    2
    15     2     5    1
    16     5     6   ar
    17     6     7   ar
    18     7     8   ar
    19     8    12    1
    20    12    13    1
    21    13    14    1
    22    14    15    1
    23    15    18    1
    24    18    19   ar
    25    19    20   ar
    26    20    21   ar
    27    21    24    1
    28    24    25    1
    29    24    26    1
    30    24    27    1
    31    21    22   ar
    32    22    23   ar
    33    15    16    1
    34    16    17    1
    35     8     9   ar
    36     9    10   ar
    37    10    11    1
    38    28    29    1
    39    29    30    2
    40    29    31   am
    41    31    33    1
    42    33    34   ar
    43    34    35   ar
    44    35    36   ar
    45    36    37   ar
    46    37    38   ar
    47    47    48   ar
    48    48    40   ar
    49    48    44   ar
    50    10     5   ar
    51    38    33   ar
    52    17    12    1
    53    23    18   ar
    54    45    49    1
    55     1     4    1
    56    31    32    1
