@<TRIPOS>MOLECULE
*****
 36 41 0 0 0
SMALL
GASTEIGER

@<TRIPOS>ATOM
      1 C          46.0064   13.5799  -29.4745 C.ar    1  UNL1        0.1379
      2 N          45.8493   13.8335  -30.8086 N.ar    1  UNL1       -0.2089
      3 C          46.0411   12.8605  -31.7543 C.ar    1  UNL1        0.2014
      4 N          46.4226   11.6021  -31.3860 N.ar    1  UNL1       -0.2050
      5 C          46.5770   11.3429  -30.0653 C.ar    1  UNL1        0.1654
      6 C          46.3498   12.2774  -29.1023 C.ar    1  UNL1        0.0865
      7 C          46.5513   11.5986  -27.9059 C.ar    1  UNL1        0.1095
      8 N          46.9074   10.3190  -28.1855 N.ar    1  UNL1       -0.1677
      9 N          46.9345   10.1771  -29.5053 N.ar    1  UNL1       -0.2319
     10 C          47.2006    8.9196  -30.1907 C.3     1  UNL1        0.1554
     11 C          46.3046   12.0785  -26.5379 C.ar    1  UNL1        0.0577
     12 C          45.0771   12.2792  -25.9360 C.ar    1  UNL1        0.1231
     13 N          45.2636   12.6304  -24.6488 N.ar    1  UNL1       -0.1676
     14 N          46.5674   12.6539  -24.4171 N.ar    1  UNL1       -0.2488
     15 C          47.1368   13.0119  -23.1221 C.3     1  UNL1        0.1537
     16 C          47.2353   12.2990  -25.5380 C.ar    1  UNL1        0.0809
     17 C          48.7057   12.2183  -25.6783 C.ar    1  UNL1        0.0174
     18 C          49.3292   10.9727  -25.8536 C.ar    1  UNL1        0.0012
     19 C          50.7192   10.8888  -25.9724 C.ar    1  UNL1       -0.0042
     20 C          51.5063   12.0476  -25.9018 C.ar    1  UNL1       -0.0218
     21 C          52.9945   11.9617  -26.0678 C.3     1  UNL1        0.0310
     22 C          50.8837   13.2942  -25.7396 C.ar    1  UNL1       -0.0042
     23 C          49.4933   13.3781  -25.6200 C.ar    1  UNL1        0.0012
     24 C          46.5736   15.9634  -26.6445 C.3     1  UNL1        0.0791
     25 C          45.0590   16.0978  -26.8841 C.3     1  UNL1        0.0391
     26 C          44.6937   14.9482  -27.8047 C.3     1  UNL1        0.0937
     27 N          45.9155   14.6501  -28.5278 N.pl3   1  UNL1       -0.2917
     28 C          47.0848   15.2489  -27.9069 C.3     1  UNL1        0.1081
     29 C          49.4091   18.4850  -26.4106 C.3     1  UNL1        0.1313
     30 C          48.5208   19.6183  -25.8501 C.3     1  UNL1        0.0324
     31 C          47.6154   19.1097  -24.7281 C.3     1  UNL1        0.0199
     32 C          46.7111   17.9576  -25.2192 C.3     1  UNL1        0.0723
     33 N          47.2403   17.2757  -26.4319 N.3     1  UNL1       -0.2703
     34 C          48.7069   17.1141  -26.3099 C.3     1  UNL1        0.1020
     35 C          50.8325   17.1226  -25.1700 C.3     1  UNL1        0.1741
     36 O          50.6254   18.4208  -25.6827 O.3     1  UNL1       -0.3522
@<TRIPOS>BOND
     1    35    36    1
     2    36    29    1
     3    29    30    1
     4    30    31    1
     5    31    32    1
     6    32    33    1
     7    33    24    1
     8    24    25    1
     9    25    26    1
    10    26    27    1
    11    27     1    1
    12     1     2   ar
    13     2     3   ar
    14     3     4   ar
    15     4     5   ar
    16     5     6   ar
    17     6     7   ar
    18     7    11    1
    19    11    12   ar
    20    12    13   ar
    21    13    14   ar
    22    14    15    1
    23    14    16   ar
    24    16    17    1
    25    17    18   ar
    26    18    19   ar
    27    19    20   ar
    28    20    21    1
    29    20    22   ar
    30    22    23   ar
    31     7     8   ar
    32     8     9   ar
    33     9    10    1
    34    27    28    1
    35    33    34    1
    36    34    29    1
    37    28    24    1
    38     6     1   ar
    39    16    11   ar
    40    23    17   ar
    41     9     5   ar
@<TRIPOS>MOLECULE
*****
 36 41 0 0 0
SMALL
GASTEIGER

@<TRIPOS>ATOM
      1 C          46.8718   12.7146  -24.0646 C.ar    1  UNL1        0.1379
      2 N          45.5145   12.8607  -23.9935 N.ar    1  UNL1       -0.2089
      3 C          44.6949   12.4891  -25.0269 C.ar    1  UNL1        0.2014
      4 N          45.2209   11.9791  -26.1793 N.ar    1  UNL1       -0.2050
      5 C          46.5650   11.8287  -26.2554 C.ar    1  UNL1        0.1654
      6 C          47.3987   12.1473  -25.2280 C.ar    1  UNL1        0.0865
      7 C          48.6621   11.7850  -25.6813 C.ar    1  UNL1        0.1095
      8 N          48.5489   11.2965  -26.9426 N.ar    1  UNL1       -0.1677
      9 N          47.2680   11.3410  -27.2891 N.ar    1  UNL1       -0.2319
     10 C          46.7393   10.8300  -28.5465 C.3     1  UNL1        0.1554
     11 C          49.9265   11.7735  -24.9305 C.ar    1  UNL1        0.0577
     12 C          50.5677   10.6709  -24.3991 C.ar    1  UNL1        0.1231
     13 N          51.7458   11.0528  -23.8686 N.ar    1  UNL1       -0.1676
     14 N          51.8714   12.3585  -24.0513 N.ar    1  UNL1       -0.2488
     15 C          53.0274   13.1174  -23.5853 C.3     1  UNL1        0.1537
     16 C          50.7935   12.8306  -24.7175 C.ar    1  UNL1        0.0809
     17 C          50.5628   14.2415  -25.0976 C.ar    1  UNL1        0.0174
     18 C          50.1471   14.5610  -26.4000 C.ar    1  UNL1        0.0012
     19 C          49.9413   15.8931  -26.7692 C.ar    1  UNL1       -0.0042
     20 C          50.1635   16.9253  -25.8459 C.ar    1  UNL1       -0.0218
     21 C          49.9057   18.3519  -26.2306 C.3     1  UNL1        0.0310
     22 C          50.5665   16.6067  -24.5405 C.ar    1  UNL1       -0.0042
     23 C          50.7731   15.2743  -24.1713 C.ar    1  UNL1        0.0012
     24 C          48.6356   13.3224  -20.8193 C.3     1  UNL1        0.0791
     25 C          48.6800   14.7125  -21.4788 C.3     1  UNL1        0.0391
     26 C          47.7259   14.6302  -22.6558 C.3     1  UNL1        0.0937
     27 N          47.7017   13.2250  -23.0155 N.pl3   1  UNL1       -0.2917
     28 C          48.2574   12.3786  -21.9733 C.3     1  UNL1        0.1081
     29 C          51.0285   12.1738  -18.0975 C.3     1  UNL1        0.1313
     30 C          52.3018   12.4447  -18.9300 C.3     1  UNL1        0.0324
     31 C          52.2367   13.8102  -19.6145 C.3     1  UNL1        0.0199
     32 C          51.0012   13.9144  -20.5360 C.3     1  UNL1        0.0723
     33 N          49.9269   12.9459  -20.1849 N.3     1  UNL1       -0.2703
     34 C          49.7932   12.8655  -18.7126 C.3     1  UNL1        0.1020
     35 C          50.1171   12.2848  -15.9578 C.3     1  UNL1        0.1741
     36 O          51.2036   12.6602  -16.7761 O.3     1  UNL1       -0.3522
@<TRIPOS>BOND
     1    35    36    1
     2    36    29    1
     3    29    30    1
     4    30    31    1
     5    31    32    1
     6    32    33    1
     7    33    24    1
     8    24    25    1
     9    25    26    1
    10    26    27    1
    11    27     1    1
    12     1     2   ar
    13     2     3   ar
    14     3     4   ar
    15     4     5   ar
    16     5     6   ar
    17     6     7   ar
    18     7    11    1
    19    11    12   ar
    20    12    13   ar
    21    13    14   ar
    22    14    15    1
    23    14    16   ar
    24    16    17    1
    25    17    18   ar
    26    18    19   ar
    27    19    20   ar
    28    20    21    1
    29    20    22   ar
    30    22    23   ar
    31     7     8   ar
    32     8     9   ar
    33     9    10    1
    34    27    28    1
    35    33    34    1
    36    34    29    1
    37    28    24    1
    38     6     1   ar
    39    16    11   ar
    40    23    17   ar
    41     9     5   ar
@<TRIPOS>MOLECULE
*****
 36 41 0 0 0
SMALL
GASTEIGER

@<TRIPOS>ATOM
      1 C          50.4565   16.1778  -25.3387 C.ar    1  UNL1        0.1379
      2 N          51.5239   16.8425  -25.8748 N.ar    1  UNL1       -0.2089
      3 C          51.4240   18.1411  -26.3007 C.ar    1  UNL1        0.2014
      4 N          50.2340   18.8063  -26.2222 N.ar    1  UNL1       -0.2050
      5 C          49.1726   18.1546  -25.6890 C.ar    1  UNL1        0.1654
      6 C          49.2547   16.8807  -25.2173 C.ar    1  UNL1        0.0865
      7 C          47.9894   16.6185  -24.7045 C.ar    1  UNL1        0.1095
      8 N          47.2044   17.7079  -24.9031 N.ar    1  UNL1       -0.1677
      9 N          47.9311   18.6338  -25.5175 N.ar    1  UNL1       -0.2319
     10 C          47.4567   19.9745  -25.8325 C.3     1  UNL1        0.1554
     11 C          47.5456   15.4425  -23.9412 C.ar    1  UNL1        0.0577
     12 C          47.5620   15.2879  -22.5682 C.ar    1  UNL1        0.1231
     13 N          46.9865   14.1135  -22.2447 N.ar    1  UNL1       -0.1676
     14 N          46.6037   13.5239  -23.3672 N.ar    1  UNL1       -0.2488
     15 C          45.9532   12.2179  -23.3956 C.3     1  UNL1        0.1537
     16 C          46.9048   14.3144  -24.4221 C.ar    1  UNL1        0.0809
     17 C          46.6431   13.9957  -25.8428 C.ar    1  UNL1        0.0174
     18 C          47.0241   12.7502  -26.3669 C.ar    1  UNL1        0.0012
     19 C          46.7923   12.4488  -27.7117 C.ar    1  UNL1       -0.0042
     20 C          46.1907   13.3944  -28.5550 C.ar    1  UNL1       -0.0218
     21 C          45.9071   13.0568  -29.9886 C.3     1  UNL1        0.0310
     22 C          45.7978   14.6344  -28.0297 C.ar    1  UNL1       -0.0042
     23 C          46.0303   14.9363  -26.6845 C.ar    1  UNL1        0.0012
     24 C          51.3936   12.8727  -23.8520 C.3     1  UNL1        0.0791
     25 C          50.8990   12.4705  -25.2531 C.3     1  UNL1        0.0391
     26 C          50.7870   13.7699  -26.0287 C.3     1  UNL1        0.0937
     27 N          50.5681   14.7870  -25.0178 N.pl3   1  UNL1       -0.2917
     28 C          50.8844   14.3139  -23.6808 C.3     1  UNL1        0.1081
     29 C          49.4799    9.9878  -22.2809 C.3     1  UNL1        0.1313
     30 C          49.7876   10.4125  -20.8273 C.3     1  UNL1        0.0324
     31 C          49.5648   11.9118  -20.6287 C.3     1  UNL1        0.0199
     32 C          50.4446   12.7394  -21.5918 C.3     1  UNL1        0.0723
     33 N          50.8915   11.9680  -22.7837 N.3     1  UNL1       -0.2703
     34 C          49.7767   11.1283  -23.2778 C.3     1  UNL1        0.1020
     35 C          47.6304    9.0863  -21.1912 C.3     1  UNL1        0.1741
     36 O          48.1114    9.6323  -22.4000 O.3     1  UNL1       -0.3522
@<TRIPOS>BOND
     1    35    36    1
     2    36    29    1
     3    29    30    1
     4    30    31    1
     5    31    32    1
     6    32    33    1
     7    33    24    1
     8    24    25    1
     9    25    26    1
    10    26    27    1
    11    27     1    1
    12     1     2   ar
    13     2     3   ar
    14     3     4   ar
    15     4     5   ar
    16     5     6   ar
    17     6     7   ar
    18     7    11    1
    19    11    12   ar
    20    12    13   ar
    21    13    14   ar
    22    14    15    1
    23    14    16   ar
    24    16    17    1
    25    17    18   ar
    26    18    19   ar
    27    19    20   ar
    28    20    21    1
    29    20    22   ar
    30    22    23   ar
    31     7     8   ar
    32     8     9   ar
    33     9    10    1
    34    27    28    1
    35    33    34    1
    36    34    29    1
    37    28    24    1
    38     6     1   ar
    39    16    11   ar
    40    23    17   ar
    41     9     5   ar
@<TRIPOS>MOLECULE
*****
 36 41 0 0 0
SMALL
GASTEIGER

@<TRIPOS>ATOM
      1 C          48.5710   14.7306  -24.1852 C.ar    1  UNL1        0.1379
      2 N          48.3612   16.0742  -24.3235 N.ar    1  UNL1       -0.2089
      3 C          47.7037   16.5929  -25.4082 C.ar    1  UNL1        0.2014
      4 N          47.2562   15.7728  -26.4042 N.ar    1  UNL1       -0.2050
      5 C          47.4579   14.4397  -26.2721 C.ar    1  UNL1        0.1654
      6 C          48.0678   13.8936  -25.1849 C.ar    1  UNL1        0.0865
      7 C          48.0134   12.5226  -25.4088 C.ar    1  UNL1        0.1095
      8 N          47.4098   12.2999  -26.6040 N.ar    1  UNL1       -0.1677
      9 N          47.0881   13.4760  -27.1294 N.ar    1  UNL1       -0.2319
     10 C          46.3542   13.6451  -28.3763 C.3     1  UNL1        0.1554
     11 C          48.3960   11.4379  -24.4926 C.ar    1  UNL1        0.0577
     12 C          47.7698   11.0874  -23.3117 C.ar    1  UNL1        0.1231
     13 N          48.3550    9.9838  -22.8070 N.ar    1  UNL1       -0.1676
     14 N          49.3266    9.6237  -23.6319 N.ar    1  UNL1       -0.2488
     15 C          50.1871    8.4705  -23.3889 C.3     1  UNL1        0.1537
     16 C          49.3672   10.4713  -24.6848 C.ar    1  UNL1        0.0809
     17 C          50.3230   10.4034  -25.8118 C.ar    1  UNL1        0.0174
     18 C          50.0980    9.5126  -26.8733 C.ar    1  UNL1        0.0012
     19 C          51.0048    9.4338  -27.9339 C.ar    1  UNL1       -0.0042
     20 C          52.1572   10.2334  -27.9400 C.ar    1  UNL1       -0.0218
     21 C          53.1105   10.1766  -29.0966 C.3     1  UNL1        0.0310
     22 C          52.3767   11.1332  -26.8864 C.ar    1  UNL1       -0.0042
     23 C          51.4700   11.2115  -25.8251 C.ar    1  UNL1        0.0012
     24 C          50.3056   14.2382  -20.9048 C.3     1  UNL1        0.0791
     25 C          51.2162   13.4626  -21.8737 C.3     1  UNL1        0.0391
     26 C          50.7574   13.8620  -23.2639 C.3     1  UNL1        0.0937
     27 N          49.3660   14.2389  -23.1008 N.pl3   1  UNL1       -0.2917
     28 C          49.0121   14.4553  -21.7082 C.3     1  UNL1        0.1081
     29 C          50.4132   11.3763  -18.4046 C.3     1  UNL1        0.1313
     30 C          49.4593   12.0566  -17.3970 C.3     1  UNL1        0.0324
     31 C          48.2385   12.6482  -18.1019 C.3     1  UNL1        0.0199
     32 C          48.6576   13.6794  -19.1731 C.3     1  UNL1        0.0723
     33 N          50.0622   13.5052  -19.6339 N.3     1  UNL1       -0.2703
     34 C          50.3591   12.0628  -19.7861 C.3     1  UNL1        0.1020
     35 C          49.6974    9.7466  -19.9054 C.3     1  UNL1        0.1741
     36 O          50.0522   10.0137  -18.5661 O.3     1  UNL1       -0.3522
@<TRIPOS>BOND
     1    35    36    1
     2    36    29    1
     3    29    30    1
     4    30    31    1
     5    31    32    1
     6    32    33    1
     7    33    24    1
     8    24    25    1
     9    25    26    1
    10    26    27    1
    11    27     1    1
    12     1     2   ar
    13     2     3   ar
    14     3     4   ar
    15     4     5   ar
    16     5     6   ar
    17     6     7   ar
    18     7    11    1
    19    11    12   ar
    20    12    13   ar
    21    13    14   ar
    22    14    15    1
    23    14    16   ar
    24    16    17    1
    25    17    18   ar
    26    18    19   ar
    27    19    20   ar
    28    20    21    1
    29    20    22   ar
    30    22    23   ar
    31     7     8   ar
    32     8     9   ar
    33     9    10    1
    34    27    28    1
    35    33    34    1
    36    34    29    1
    37    28    24    1
    38     6     1   ar
    39    16    11   ar
    40    23    17   ar
    41     9     5   ar
@<TRIPOS>MOLECULE
*****
 36 41 0 0 0
SMALL
GASTEIGER

@<TRIPOS>ATOM
      1 C          47.9868   14.8560  -25.1933 C.ar    1  UNL1        0.1379
      2 N          47.6608   16.1326  -25.5573 N.ar    1  UNL1       -0.2089
      3 C          47.0125   16.4029  -26.7340 C.ar    1  UNL1        0.2014
      4 N          46.6925   15.3936  -27.5963 N.ar    1  UNL1       -0.2050
      5 C          47.0099   14.1256  -27.2404 C.ar    1  UNL1        0.1654
      6 C          47.6131   13.8240  -26.0583 C.ar    1  UNL1        0.0865
      7 C          47.6969   12.4363  -26.0558 C.ar    1  UNL1        0.1095
      8 N          47.1764   11.9662  -27.2178 N.ar    1  UNL1       -0.1677
      9 N          46.7736   13.0051  -27.9398 N.ar    1  UNL1       -0.2319
     10 C          46.0898   12.8986  -29.2216 C.3     1  UNL1        0.1554
     11 C          48.1324   11.5557  -24.9615 C.ar    1  UNL1        0.0577
     12 C          47.4766   11.3277  -23.7668 C.ar    1  UNL1        0.1231
     13 N          48.1393   10.3865  -23.0667 N.ar    1  UNL1       -0.1676
     14 N          49.1888   10.0099  -23.7815 N.ar    1  UNL1       -0.2488
     15 C          50.1453    9.0091  -23.3199 C.3     1  UNL1        0.1537
     16 C          49.2055   10.6823  -24.9546 C.ar    1  UNL1        0.0809
     17 C          50.2277   10.5439  -26.0149 C.ar    1  UNL1        0.0174
     18 C          50.0919    9.5516  -26.9988 C.ar    1  UNL1        0.0012
     19 C          51.0615    9.4067  -27.9948 C.ar    1  UNL1       -0.0042
     20 C          52.1883   10.2417  -28.0116 C.ar    1  UNL1       -0.0218
     21 C          53.2094   10.1115  -29.1026 C.3     1  UNL1        0.0310
     22 C          52.3189   11.2420  -27.0368 C.ar    1  UNL1       -0.0042
     23 C          51.3494   11.3866  -26.0400 C.ar    1  UNL1        0.0012
     24 C          49.3878   14.8655  -21.7220 C.3     1  UNL1        0.0791
     25 C          50.6160   14.4830  -22.5673 C.3     1  UNL1        0.0391
     26 C          50.2144   14.7523  -24.0056 C.3     1  UNL1        0.0937
     27 N          48.7693   14.6258  -24.0166 N.pl3   1  UNL1       -0.2917
     28 C          48.2020   14.6575  -22.6793 C.3     1  UNL1        0.1081
     29 C          50.4923   12.9837  -18.6089 C.3     1  UNL1        0.1313
     30 C          49.0981   12.3790  -18.3288 C.3     1  UNL1        0.0324
     31 C          48.4742   11.8104  -19.6034 C.3     1  UNL1        0.0199
     32 C          48.3417   12.8973  -20.6932 C.3     1  UNL1        0.0723
     33 N          49.2634   14.0476  -20.4862 N.3     1  UNL1       -0.2703
     34 C          50.5852   13.5505  -20.0416 C.3     1  UNL1        0.1020
     35 C          52.7481   12.4708  -18.8725 C.3     1  UNL1        0.1741
     36 O          51.4902   11.9867  -18.4551 O.3     1  UNL1       -0.3522
@<TRIPOS>BOND
     1    35    36    1
     2    36    29    1
     3    29    30    1
     4    30    31    1
     5    31    32    1
     6    32    33    1
     7    33    24    1
     8    24    25    1
     9    25    26    1
    10    26    27    1
    11    27     1    1
    12     1     2   ar
    13     2     3   ar
    14     3     4   ar
    15     4     5   ar
    16     5     6   ar
    17     6     7   ar
    18     7    11    1
    19    11    12   ar
    20    12    13   ar
    21    13    14   ar
    22    14    15    1
    23    14    16   ar
    24    16    17    1
    25    17    18   ar
    26    18    19   ar
    27    19    20   ar
    28    20    21    1
    29    20    22   ar
    30    22    23   ar
    31     7     8   ar
    32     8     9   ar
    33     9    10    1
    34    27    28    1
    35    33    34    1
    36    34    29    1
    37    28    24    1
    38     6     1   ar
    39    16    11   ar
    40    23    17   ar
    41     9     5   ar
@<TRIPOS>MOLECULE
*****
 36 41 0 0 0
SMALL
GASTEIGER

@<TRIPOS>ATOM
      1 C          51.2161   12.5891  -26.1072 C.ar    1  UNL1        0.1379
      2 N          52.4620   12.6358  -26.6675 N.ar    1  UNL1       -0.2089
      3 C          52.9761   11.5775  -27.3701 C.ar    1  UNL1        0.2014
      4 N          52.2578   10.4246  -27.5103 N.ar    1  UNL1       -0.2050
      5 C          51.0209   10.3726  -26.9602 C.ar    1  UNL1        0.1654
      6 C          50.4680   11.4239  -26.2960 C.ar    1  UNL1        0.0865
      7 C          49.1917   10.9882  -25.9581 C.ar    1  UNL1        0.1095
      8 N          49.0354    9.7139  -26.3987 N.ar    1  UNL1       -0.1677
      9 N          50.1618    9.3425  -26.9955 N.ar    1  UNL1       -0.2319
     10 C          50.3529    8.0631  -27.6651 C.3     1  UNL1        0.1554
     11 C          48.0987   11.7642  -25.3533 C.ar    1  UNL1        0.0577
     12 C          47.9677   12.1194  -24.0244 C.ar    1  UNL1        0.1231
     13 N          46.8859   12.9090  -23.8784 N.ar    1  UNL1       -0.1676
     14 N          46.3324   13.0675  -25.0712 N.ar    1  UNL1       -0.2488
     15 C          45.1239   13.8565  -25.2866 C.3     1  UNL1        0.1537
     16 C          47.0571   12.4048  -26.0008 C.ar    1  UNL1        0.0809
     17 C          46.7508   12.3353  -27.4464 C.ar    1  UNL1        0.0174
     18 C          46.3922   13.4978  -28.1470 C.ar    1  UNL1        0.0012
     19 C          46.0878   13.4360  -29.5096 C.ar    1  UNL1       -0.0042
     20 C          46.1224   12.2083  -30.1871 C.ar    1  UNL1       -0.0218
     21 C          45.8332   12.1480  -31.6576 C.3     1  UNL1        0.0310
     22 C          46.4930   11.0480  -29.4912 C.ar    1  UNL1       -0.0042
     23 C          46.7969   11.1096  -28.1280 C.ar    1  UNL1        0.0012
     24 C          50.4749   15.9444  -24.6222 C.3     1  UNL1        0.0791
     25 C          50.4099   15.0224  -23.3912 C.3     1  UNL1        0.0391
     26 C          50.9949   13.6990  -23.8483 C.3     1  UNL1        0.0937
     27 N          50.7633   13.6664  -25.2800 N.pl3   1  UNL1       -0.2917
     28 C          50.4189   14.9733  -25.8136 C.3     1  UNL1        0.1081
     29 C          46.9591   17.2982  -25.1307 C.3     1  UNL1        0.1313
     30 C          47.3639   18.7749  -24.9222 C.3     1  UNL1        0.0324
     31 C          48.6301   19.1187  -25.7069 C.3     1  UNL1        0.0199
     32 C          49.8085   18.2103  -25.2914 C.3     1  UNL1        0.0723
     33 N          49.3695   16.9387  -24.6544 N.3     1  UNL1       -0.2703
     34 C          48.1926   16.4031  -25.3753 C.3     1  UNL1        0.1020
     35 C          46.7846   16.6577  -27.3624 C.3     1  UNL1        0.1741
     36 O          46.0956   17.1885  -26.2513 O.3     1  UNL1       -0.3522
@<TRIPOS>BOND
     1    35    36    1
     2    36    29    1
     3    29    30    1
     4    30    31    1
     5    31    32    1
     6    32    33    1
     7    33    24    1
     8    24    25    1
     9    25    26    1
    10    26    27    1
    11    27     1    1
    12     1     2   ar
    13     2     3   ar
    14     3     4   ar
    15     4     5   ar
    16     5     6   ar
    17     6     7   ar
    18     7    11    1
    19    11    12   ar
    20    12    13   ar
    21    13    14   ar
    22    14    15    1
    23    14    16   ar
    24    16    17    1
    25    17    18   ar
    26    18    19   ar
    27    19    20   ar
    28    20    21    1
    29    20    22   ar
    30    22    23   ar
    31     7     8   ar
    32     8     9   ar
    33     9    10    1
    34    27    28    1
    35    33    34    1
    36    34    29    1
    37    28    24    1
    38     6     1   ar
    39    16    11   ar
    40    23    17   ar
    41     9     5   ar
@<TRIPOS>MOLECULE
*****
 36 41 0 0 0
SMALL
GASTEIGER

@<TRIPOS>ATOM
      1 C          48.5790   13.7106  -21.9897 C.ar    1  UNL1        0.1379
      2 N          49.4128   14.1387  -20.9947 N.ar    1  UNL1       -0.2089
      3 C          49.8930   13.2822  -20.0388 C.ar    1  UNL1        0.2014
      4 N          49.5273   11.9665  -20.0409 N.ar    1  UNL1       -0.2050
      5 C          48.7037   11.5347  -21.0260 C.ar    1  UNL1        0.1654
      6 C          48.2478   12.3531  -22.0132 C.ar    1  UNL1        0.0865
      7 C          47.5045   11.5185  -22.8401 C.ar    1  UNL1        0.1095
      8 N          47.5193   10.2646  -22.3204 N.ar    1  UNL1       -0.1677
      9 N          48.2410   10.2881  -21.2062 N.ar    1  UNL1       -0.2319
     10 C          48.5509    9.1126  -20.4037 C.3     1  UNL1        0.1554
     11 C          46.8967   11.8371  -24.1407 C.ar    1  UNL1        0.0577
     12 C          45.5552   12.0374  -24.4046 C.ar    1  UNL1        0.1231
     13 N          45.4038   12.4033  -25.6924 N.ar    1  UNL1       -0.1676
     14 N          46.6051   12.4449  -26.2486 N.ar    1  UNL1       -0.2488
     15 C          46.8191   12.7917  -27.6498 C.3     1  UNL1        0.1537
     16 C          47.5441   12.1299  -25.3279 C.ar    1  UNL1        0.0809
     17 C          49.0016   12.0578  -25.5705 C.ar    1  UNL1        0.0174
     18 C          49.5957   10.8385  -25.9331 C.ar    1  UNL1        0.0012
     19 C          50.9742   10.7611  -26.1497 C.ar    1  UNL1       -0.0042
     20 C          51.7800   11.8981  -25.9913 C.ar    1  UNL1       -0.0218
     21 C          53.2535   11.8238  -26.2611 C.3     1  UNL1        0.0310
     22 C          51.1860   13.1200  -25.6417 C.ar    1  UNL1       -0.0042
     23 C          49.8071   13.1974  -25.4243 C.ar    1  UNL1        0.0012
     24 C          47.6440   16.8056  -23.8763 C.3     1  UNL1        0.0791
     25 C          46.4069   15.9130  -24.0823 C.3     1  UNL1        0.0391
     26 C          46.5713   14.7652  -23.1034 C.3     1  UNL1        0.0937
     27 N          48.0031   14.6570  -22.8965 N.pl3   1  UNL1       -0.2917
     28 C          48.7186   15.8332  -23.3611 C.3     1  UNL1        0.1081
     29 C          49.9232   17.8680  -26.7275 C.3     1  UNL1        0.1313
     30 C          48.9378   18.9178  -27.2888 C.3     1  UNL1        0.0324
     31 C          48.3565   19.7852  -26.1722 C.3     1  UNL1        0.0199
     32 C          47.6270   18.9233  -25.1179 C.3     1  UNL1        0.0723
     33 N          48.0648   17.5007  -25.1218 N.3     1  UNL1       -0.2703
     34 C          49.5333   17.4341  -25.2984 C.3     1  UNL1        0.1020
     35 C          51.8134   18.2271  -25.4164 C.3     1  UNL1        0.1741
     36 O          51.2345   18.4088  -26.6903 O.3     1  UNL1       -0.3522
@<TRIPOS>BOND
     1    35    36    1
     2    36    29    1
     3    29    30    1
     4    30    31    1
     5    31    32    1
     6    32    33    1
     7    33    24    1
     8    24    25    1
     9    25    26    1
    10    26    27    1
    11    27     1    1
    12     1     2   ar
    13     2     3   ar
    14     3     4   ar
    15     4     5   ar
    16     5     6   ar
    17     6     7   ar
    18     7    11    1
    19    11    12   ar
    20    12    13   ar
    21    13    14   ar
    22    14    15    1
    23    14    16   ar
    24    16    17    1
    25    17    18   ar
    26    18    19   ar
    27    19    20   ar
    28    20    21    1
    29    20    22   ar
    30    22    23   ar
    31     7     8   ar
    32     8     9   ar
    33     9    10    1
    34    27    28    1
    35    33    34    1
    36    34    29    1
    37    28    24    1
    38     6     1   ar
    39    16    11   ar
    40    23    17   ar
    41     9     5   ar
@<TRIPOS>MOLECULE
*****
 36 41 0 0 0
SMALL
GASTEIGER

@<TRIPOS>ATOM
      1 C          50.2700   15.9696  -25.4898 C.ar    1  UNL1        0.1379
      2 N          51.3891   16.5837  -25.9788 N.ar    1  UNL1       -0.2089
      3 C          51.3864   17.9062  -26.3379 C.ar    1  UNL1        0.2014
      4 N          50.2447   18.6488  -26.2382 N.ar    1  UNL1       -0.2050
      5 C          49.1327   18.0473  -25.7514 C.ar    1  UNL1        0.1654
      6 C          49.1186   16.7483  -25.3455 C.ar    1  UNL1        0.0865
      7 C          47.8307   16.5504  -24.8610 C.ar    1  UNL1        0.1095
      8 N          47.1267   17.7011  -25.0117 N.ar    1  UNL1       -0.1677
      9 N          47.9253   18.6035  -25.5691 N.ar    1  UNL1       -0.2319
     10 C          47.5505   19.9886  -25.8194 C.3     1  UNL1        0.1554
     11 C          47.2946   15.3712  -24.1647 C.ar    1  UNL1        0.0577
     12 C          47.2454   15.1629  -22.7996 C.ar    1  UNL1        0.1231
     13 N          46.5964   14.0095  -22.5475 N.ar    1  UNL1       -0.1676
     14 N          46.2307   13.4852  -23.7075 N.ar    1  UNL1       -0.2488
     15 C          45.5149   12.2182  -23.8151 C.3     1  UNL1        0.1537
     16 C          46.6166   14.2986  -24.7165 C.ar    1  UNL1        0.0809
     17 C          46.3983   14.0497  -26.1582 C.ar    1  UNL1        0.0174
     18 C          46.7673   12.8190  -26.7241 C.ar    1  UNL1        0.0012
     19 C          46.5767   12.5831  -28.0884 C.ar    1  UNL1       -0.0042
     20 C          46.0291   13.5804  -28.9088 C.ar    1  UNL1       -0.0218
     21 C          45.7890   13.3136  -30.3651 C.3     1  UNL1        0.0310
     22 C          45.6481   14.8059  -28.3423 C.ar    1  UNL1       -0.0042
     23 C          45.8394   15.0421  -26.9777 C.ar    1  UNL1        0.0012
     24 C          50.7123   12.5622  -24.0043 C.3     1  UNL1        0.0791
     25 C          50.6674   12.2562  -25.5122 C.3     1  UNL1        0.0391
     26 C          50.7959   13.6027  -26.2001 C.3     1  UNL1        0.0937
     27 N          50.2794   14.5598  -25.2401 N.pl3   1  UNL1       -0.2917
     28 C          50.1744   13.9997  -23.9035 C.3     1  UNL1        0.1081
     29 C          49.0544   11.0537  -20.9336 C.3     1  UNL1        0.1313
     30 C          48.6160    9.7586  -21.6536 C.3     1  UNL1        0.0324
     31 C          49.7547    9.1779  -22.4923 C.3     1  UNL1        0.0199
     32 C          50.2488   10.1958  -23.5441 C.3     1  UNL1        0.0723
     33 N          49.9095   11.6035  -23.1993 N.3     1  UNL1       -0.2703
     34 C          50.1154   11.8226  -21.7496 C.3     1  UNL1        0.1020
     35 C          50.3953   11.8036  -19.1841 C.3     1  UNL1        0.1741
     36 O          49.6063   10.7373  -19.6653 O.3     1  UNL1       -0.3522
@<TRIPOS>BOND
     1    35    36    1
     2    36    29    1
     3    29    30    1
     4    30    31    1
     5    31    32    1
     6    32    33    1
     7    33    24    1
     8    24    25    1
     9    25    26    1
    10    26    27    1
    11    27     1    1
    12     1     2   ar
    13     2     3   ar
    14     3     4   ar
    15     4     5   ar
    16     5     6   ar
    17     6     7   ar
    18     7    11    1
    19    11    12   ar
    20    12    13   ar
    21    13    14   ar
    22    14    15    1
    23    14    16   ar
    24    16    17    1
    25    17    18   ar
    26    18    19   ar
    27    19    20   ar
    28    20    21    1
    29    20    22   ar
    30    22    23   ar
    31     7     8   ar
    32     8     9   ar
    33     9    10    1
    34    27    28    1
    35    33    34    1
    36    34    29    1
    37    28    24    1
    38     6     1   ar
    39    16    11   ar
    40    23    17   ar
    41     9     5   ar
@<TRIPOS>MOLECULE
*****
 36 41 0 0 0
SMALL
GASTEIGER

@<TRIPOS>ATOM
      1 C          50.2821   16.2281  -24.4349 C.ar    1  UNL1        0.1379
      2 N          51.4725   16.9001  -24.4379 N.ar    1  UNL1       -0.2089
      3 C          51.6775   17.9988  -25.2309 C.ar    1  UNL1        0.2014
      4 N          50.6938   18.4425  -26.0676 N.ar    1  UNL1       -0.2050
      5 C          49.5104   17.7831  -26.0675 C.ar    1  UNL1        0.1654
      6 C          49.2641   16.7170  -25.2581 C.ar    1  UNL1        0.0865
      7 C          47.9386   16.3856  -25.5148 C.ar    1  UNL1        0.1095
      8 N          47.4547   17.2275  -26.4631 N.ar    1  UNL1       -0.1677
      9 N          48.4255   18.0666  -26.8043 N.ar    1  UNL1       -0.2319
     10 C          48.2654   19.1696  -27.7422 C.3     1  UNL1        0.1554
     11 C          47.0991   15.3988  -24.8190 C.ar    1  UNL1        0.0577
     12 C          46.8559   15.3245  -23.4608 C.ar    1  UNL1        0.1231
     13 N          45.9615   14.3458  -23.2208 N.ar    1  UNL1       -0.1676
     14 N          45.6291   13.8032  -24.3823 N.ar    1  UNL1       -0.2488
     15 C          44.6868   12.6951  -24.4996 C.3     1  UNL1        0.1537
     16 C          46.2830   14.4345  -25.3835 C.ar    1  UNL1        0.0809
     17 C          46.1815   14.1075  -26.8226 C.ar    1  UNL1        0.0174
     18 C          45.6476   15.0443  -27.7217 C.ar    1  UNL1        0.0012
     19 C          45.5360   14.7357  -29.0802 C.ar    1  UNL1       -0.0042
     20 C          45.9421   13.4803  -29.5560 C.ar    1  UNL1       -0.0218
     21 C          45.8580   13.1633  -31.0196 C.3     1  UNL1        0.0310
     22 C          46.4877   12.5481  -28.6609 C.ar    1  UNL1       -0.0042
     23 C          46.5987   12.8564  -27.3018 C.ar    1  UNL1        0.0012
     24 C          50.5270   13.5208  -21.8615 C.3     1  UNL1        0.0791
     25 C          50.1645   12.7303  -23.1316 C.3     1  UNL1        0.0391
     26 C          50.3444   13.7072  -24.2787 C.3     1  UNL1        0.0937
     27 N          50.1473   15.0160  -23.6850 N.pl3   1  UNL1       -0.2917
     28 C          50.2156   14.9802  -22.2339 C.3     1  UNL1        0.1081
     29 C          49.7154   11.4902  -18.7517 C.3     1  UNL1        0.1313
     30 C          48.2963   12.0788  -18.5866 C.3     1  UNL1        0.0324
     31 C          47.5477   12.1034  -19.9194 C.3     1  UNL1        0.0199
     32 C          48.3153   12.9290  -20.9757 C.3     1  UNL1        0.0723
     33 N          49.7645   13.0701  -20.6669 N.3     1  UNL1       -0.2703
     34 C          50.2899   11.7845  -20.1538 C.3     1  UNL1        0.1020
     35 C          49.7587    9.4159  -19.8085 C.3     1  UNL1        0.1741
     36 O          49.6785   10.0837  -18.5680 O.3     1  UNL1       -0.3522
@<TRIPOS>BOND
     1    35    36    1
     2    36    29    1
     3    29    30    1
     4    30    31    1
     5    31    32    1
     6    32    33    1
     7    33    24    1
     8    24    25    1
     9    25    26    1
    10    26    27    1
    11    27     1    1
    12     1     2   ar
    13     2     3   ar
    14     3     4   ar
    15     4     5   ar
    16     5     6   ar
    17     6     7   ar
    18     7    11    1
    19    11    12   ar
    20    12    13   ar
    21    13    14   ar
    22    14    15    1
    23    14    16   ar
    24    16    17    1
    25    17    18   ar
    26    18    19   ar
    27    19    20   ar
    28    20    21    1
    29    20    22   ar
    30    22    23   ar
    31     7     8   ar
    32     8     9   ar
    33     9    10    1
    34    27    28    1
    35    33    34    1
    36    34    29    1
    37    28    24    1
    38     6     1   ar
    39    16    11   ar
    40    23    17   ar
    41     9     5   ar
