@<TRIPOS>MOLECULE
*****
 37 40 0 0 0
SMALL
GASTEIGER

@<TRIPOS>ATOM
      1 N         -10.1595   -7.9964   30.6687 N.am    1  UNL1       -0.2685
      2 C          -9.6072   -8.7777   29.5937 C.2     1  UNL1        0.2672
      3 O         -10.3436   -9.1025   28.6226 O.2     1  UNL1       -0.2682
      4 C          -8.2030   -9.2339   29.6411 C.ar    1  UNL1        0.1347
      5 C          -7.7341  -10.0282   30.6999 C.ar    1  UNL1        0.0238
      6 C          -6.3911  -10.4269   30.7222 C.ar    1  UNL1        0.0031
      7 C          -5.8935  -11.2235   31.7655 C.ar    1  UNL1        0.0001
      8 C          -4.5500  -11.6115   31.7715 C.ar    1  UNL1        0.0000
      9 C          -3.6964  -11.2085   30.7403 C.ar    1  UNL1        0.0000
     10 C          -4.1805  -10.4147   29.6961 C.ar    1  UNL1        0.0015
     11 C          -5.5268  -10.0204   29.6808 C.ar    1  UNL1        0.0192
     12 C          -6.0360   -9.2247   28.6479 C.ar    1  UNL1        0.0989
     13 N          -7.3432   -8.8550   28.6557 N.ar    1  UNL1       -0.2393
     14 C          -9.7491   -5.6988   29.7916 C.3     1  UNL1        0.0265
     15 C          -9.5745   -6.6748   30.9665 C.3     1  UNL1        0.1007
     16 C          -8.1381   -6.8278   31.4466 C.ar    1  UNL1        0.0234
     17 C          -7.8208   -7.4403   32.6777 C.ar    1  UNL1        0.0019
     18 C          -6.4939   -7.5237   33.1089 C.ar    1  UNL1        0.0295
     19 C          -5.4676   -6.9869   32.3303 C.ar    1  UNL1        0.1424
     20 F          -4.1820   -7.0674   32.7532 F       1  UNL1       -0.2041
     21 C          -5.7670   -6.3587   31.1205 C.ar    1  UNL1        0.0590
     22 C          -7.0918   -6.2708   30.6813 C.ar    1  UNL1        0.1399
     23 F          -7.3522   -5.6350   29.5103 F       1  UNL1       -0.2044
     24 C         -11.4352   -8.4276   31.2610 C.3     1  UNL1        0.1207
     25 C         -11.2807   -9.7867   31.8931 C.ar    1  UNL1       -0.0023
     26 C         -12.2532  -10.7745   31.6863 C.ar    1  UNL1       -0.0045
     27 C         -12.1560  -12.0145   32.3321 C.ar    1  UNL1        0.0069
     28 C         -11.0596  -12.2768   33.1677 C.ar    1  UNL1        0.0046
     29 C         -10.0736  -11.2982   33.3840 C.ar    1  UNL1        0.0750
     30 C         -10.2027  -10.0490   32.7524 C.ar    1  UNL1        0.0038
     31 C          -8.9238  -11.5557   34.2850 C.2     1  UNL1        0.3380
     32 O          -8.9499  -12.5451   35.0646 O.2     1  UNL1       -0.2451
     33 O          -7.8078  -10.7200   34.3086 O.3     1  UNL1       -0.4771
     34 H          -7.7647   -9.8532   33.7887 H       1  UNL1        0.2954
     35 C         -13.1919  -13.0742   32.0882 C.3     1  UNL1        0.1636
     36 O         -12.5778  -14.3319   32.0972 O.3     1  UNL1       -0.3772
     37 H         -13.3002  -14.9920   31.9317 H       1  UNL1        0.2109
@<TRIPOS>BOND
     1    14    15    1
     2    15    16    1
     3    16    17   ar
     4    17    18   ar
     5    18    19   ar
     6    19    20    1
     7    19    21   ar
     8    21    22   ar
     9    22    23    1
    10    15     1    1
    11     1    24    1
    12    24    25    1
    13    25    26   ar
    14    26    27   ar
    15    27    35    1
    16    35    36    1
    17    27    28   ar
    18    28    29   ar
    19    29    31    1
    20    31    32    2
    21    31    33    1
    22    29    30   ar
    23     1     2   am
    24     2     3    2
    25     2     4    1
    26     4     5   ar
    27     5     6   ar
    28     6     7   ar
    29     7     8   ar
    30     8     9   ar
    31     9    10   ar
    32    10    11   ar
    33    11    12   ar
    34    12    13   ar
    35    22    16   ar
    36    30    25   ar
    37    13     4   ar
    38    11     6   ar
    39    36    37    1
    40    33    34    1
@<TRIPOS>MOLECULE
*****
 37 40 0 0 0
SMALL
GASTEIGER

@<TRIPOS>ATOM
      1 N          -9.2215  -11.1204   31.4047 N.am    1  UNL1       -0.2685
      2 C          -9.9643  -10.5906   30.2918 C.2     1  UNL1        0.2672
      3 O         -10.1913  -11.3261   29.2926 O.2     1  UNL1       -0.2682
      4 C         -10.4233   -9.1865   30.2952 C.ar    1  UNL1        0.1347
      5 C          -9.5723   -8.1446   29.8926 C.ar    1  UNL1        0.0238
      6 C         -10.0349   -6.8225   29.9266 C.ar    1  UNL1        0.0031
      7 C          -9.2090   -5.7599   29.5276 C.ar    1  UNL1        0.0001
      8 C          -9.6875   -4.4466   29.5688 C.ar    1  UNL1        0.0000
      9 C         -10.9890   -4.1852   30.0072 C.ar    1  UNL1        0.0000
     10 C         -11.8207   -5.2352   30.4075 C.ar    1  UNL1        0.0015
     11 C         -11.3501   -6.5563   30.3697 C.ar    1  UNL1        0.0192
     12 C         -12.1620   -7.6253   30.7663 C.ar    1  UNL1        0.0989
     13 N         -11.6832   -8.8959   30.7216 N.ar    1  UNL1       -0.2393
     14 C          -8.8438  -11.4892   33.8415 C.3     1  UNL1        0.0265
     15 C          -9.8603  -11.1667   32.7342 C.3     1  UNL1        0.1007
     16 C         -11.0719  -12.0877   32.7075 C.ar    1  UNL1        0.0234
     17 C         -10.9644  -13.4582   32.3885 C.ar    1  UNL1        0.0019
     18 C         -12.1037  -14.2656   32.3290 C.ar    1  UNL1        0.0295
     19 C         -13.3649  -13.7191   32.5708 C.ar    1  UNL1        0.1424
     20 F         -14.4680  -14.5050   32.5095 F       1  UNL1       -0.2041
     21 C         -13.4903  -12.3609   32.8664 C.ar    1  UNL1        0.0590
     22 C         -12.3557  -11.5457   32.9281 C.ar    1  UNL1        0.1399
     23 F         -12.5132  -10.2243   33.1972 F       1  UNL1       -0.2044
     24 C          -7.9584  -11.8225   31.1299 C.3     1  UNL1        0.1207
     25 C          -6.9098  -10.8431   30.6697 C.ar    1  UNL1       -0.0023
     26 C          -6.3474  -10.9619   29.3915 C.ar    1  UNL1       -0.0045
     27 C          -5.3176  -10.1026   28.9848 C.ar    1  UNL1        0.0069
     28 C          -4.8693   -9.0974   29.8553 C.ar    1  UNL1        0.0046
     29 C          -5.4243   -8.9624   31.1400 C.ar    1  UNL1        0.0750
     30 C          -6.4353   -9.8523   31.5429 C.ar    1  UNL1        0.0038
     31 C          -4.9406   -7.9197   32.0774 C.2     1  UNL1        0.3380
     32 O          -4.5860   -6.7954   31.6329 O.2     1  UNL1       -0.2451
     33 O          -4.8502   -8.1507   33.4497 O.3     1  UNL1       -0.4771
     34 H          -5.0170   -9.0595   33.8617 H       1  UNL1        0.2954
     35 C          -4.7355  -10.2241   27.6057 C.3     1  UNL1        0.1636
     36 O          -5.6557   -9.7362   26.6708 O.3     1  UNL1       -0.3772
     37 H          -5.2259   -9.8393   25.7821 H       1  UNL1        0.2109
@<TRIPOS>BOND
     1    14    15    1
     2    15    16    1
     3    16    17   ar
     4    17    18   ar
     5    18    19   ar
     6    19    20    1
     7    19    21   ar
     8    21    22   ar
     9    22    23    1
    10    15     1    1
    11     1    24    1
    12    24    25    1
    13    25    26   ar
    14    26    27   ar
    15    27    35    1
    16    35    36    1
    17    27    28   ar
    18    28    29   ar
    19    29    31    1
    20    31    32    2
    21    31    33    1
    22    29    30   ar
    23     1     2   am
    24     2     3    2
    25     2     4    1
    26     4     5   ar
    27     5     6   ar
    28     6     7   ar
    29     7     8   ar
    30     8     9   ar
    31     9    10   ar
    32    10    11   ar
    33    11    12   ar
    34    12    13   ar
    35    22    16   ar
    36    30    25   ar
    37    13     4   ar
    38    11     6   ar
    39    36    37    1
    40    33    34    1
@<TRIPOS>MOLECULE
*****
 37 40 0 0 0
SMALL
GASTEIGER

@<TRIPOS>ATOM
      1 N          -9.7432  -11.1883   31.5752 N.am    1  UNL1       -0.2685
      2 C         -10.3476  -10.6113   30.4035 C.2     1  UNL1        0.2672
      3 O         -10.5586  -11.3377   29.3942 O.2     1  UNL1       -0.2682
      4 C         -10.6816   -9.1729   30.3614 C.ar    1  UNL1        0.1347
      5 C          -9.7342   -8.2203   29.9528 C.ar    1  UNL1        0.0238
      6 C         -10.0797   -6.8625   29.9434 C.ar    1  UNL1        0.0031
      7 C          -9.1557   -5.8869   29.5373 C.ar    1  UNL1        0.0001
      8 C          -9.5180   -4.5363   29.5348 C.ar    1  UNL1        0.0000
      9 C         -10.8003   -4.1508   29.9364 C.ar    1  UNL1        0.0000
     10 C         -11.7291   -5.1133   30.3433 C.ar    1  UNL1        0.0015
     11 C         -11.3755   -6.4710   30.3491 C.ar    1  UNL1        0.0192
     12 C         -12.2861   -7.4541   30.7533 C.ar    1  UNL1        0.0989
     13 N         -11.9198   -8.7624   30.7512 N.ar    1  UNL1       -0.2393
     14 C          -9.5783  -10.7706   34.0278 C.3     1  UNL1        0.0265
     15 C         -10.4858  -11.1616   32.8501 C.3     1  UNL1        0.1007
     16 C         -11.2435  -12.4669   33.0487 C.ar    1  UNL1        0.0234
     17 C         -10.8179  -13.4475   33.9700 C.ar    1  UNL1        0.0019
     18 C         -11.5117  -14.6544   34.0946 C.ar    1  UNL1        0.0295
     19 C         -12.6274  -14.9084   33.2957 C.ar    1  UNL1        0.1424
     20 F         -13.2963  -16.0814   33.4176 F       1  UNL1       -0.2041
     21 C         -13.0483  -13.9578   32.3645 C.ar    1  UNL1        0.0590
     22 C         -12.3601  -12.7475   32.2332 C.ar    1  UNL1        0.1399
     23 F         -12.7819  -11.8525   31.3036 F       1  UNL1       -0.2044
     24 C          -8.5282  -12.0002   31.4060 C.3     1  UNL1        0.1207
     25 C          -7.3564  -11.1159   31.0662 C.ar    1  UNL1       -0.0023
     26 C          -6.8659  -10.2028   32.0096 C.ar    1  UNL1       -0.0045
     27 C          -5.8267   -9.3238   31.6753 C.ar    1  UNL1        0.0069
     28 C          -5.2549   -9.3816   30.3952 C.ar    1  UNL1        0.0046
     29 C          -5.7329  -10.2933   29.4376 C.ar    1  UNL1        0.0750
     30 C          -6.7962  -11.1467   29.7799 C.ar    1  UNL1        0.0038
     31 C          -5.1527  -10.3456   28.0735 C.2     1  UNL1        0.3380
     32 O          -4.7576   -9.2843   27.5211 O.2     1  UNL1       -0.2451
     33 O          -5.0426  -11.5432   27.3677 O.3     1  UNL1       -0.4771
     34 H          -5.4337  -12.4129   27.7054 H       1  UNL1        0.2954
     35 C          -5.2938   -8.3633   32.6994 C.3     1  UNL1        0.1636
     36 O          -6.1911   -8.2845   33.7707 O.3     1  UNL1       -0.3772
     37 H          -5.7955   -7.6409   34.4143 H       1  UNL1        0.2109
@<TRIPOS>BOND
     1    14    15    1
     2    15    16    1
     3    16    17   ar
     4    17    18   ar
     5    18    19   ar
     6    19    20    1
     7    19    21   ar
     8    21    22   ar
     9    22    23    1
    10    15     1    1
    11     1    24    1
    12    24    25    1
    13    25    26   ar
    14    26    27   ar
    15    27    35    1
    16    35    36    1
    17    27    28   ar
    18    28    29   ar
    19    29    31    1
    20    31    32    2
    21    31    33    1
    22    29    30   ar
    23     1     2   am
    24     2     3    2
    25     2     4    1
    26     4     5   ar
    27     5     6   ar
    28     6     7   ar
    29     7     8   ar
    30     8     9   ar
    31     9    10   ar
    32    10    11   ar
    33    11    12   ar
    34    12    13   ar
    35    22    16   ar
    36    30    25   ar
    37    13     4   ar
    38    11     6   ar
    39    36    37    1
    40    33    34    1
@<TRIPOS>MOLECULE
*****
 37 40 0 0 0
SMALL
GASTEIGER

@<TRIPOS>ATOM
      1 N         -10.1888   -8.0263   30.6731 N.am    1  UNL1       -0.2685
      2 C          -9.6313   -8.8100   29.6025 C.2     1  UNL1        0.2672
      3 O         -10.3675   -9.1516   28.6370 O.2     1  UNL1       -0.2682
      4 C          -8.2216   -9.2490   29.6482 C.ar    1  UNL1        0.1347
      5 C          -7.7430  -10.0419   30.7037 C.ar    1  UNL1        0.0238
      6 C          -6.3952  -10.4240   30.7245 C.ar    1  UNL1        0.0031
      7 C          -5.8878  -11.2188   31.7645 C.ar    1  UNL1        0.0001
      8 C          -4.5397  -11.5901   31.7691 C.ar    1  UNL1        0.0000
      9 C          -3.6911  -11.1724   30.7397 C.ar    1  UNL1        0.0000
     10 C          -4.1848  -10.3804   29.6987 C.ar    1  UNL1        0.0015
     11 C          -5.5359  -10.0026   29.6849 C.ar    1  UNL1        0.0192
     12 C          -6.0548   -9.2091   28.6552 C.ar    1  UNL1        0.0989
     13 N          -7.3665   -8.8554   28.6644 N.ar    1  UNL1       -0.2393
     14 C          -9.8225   -5.7270   29.7810 C.3     1  UNL1        0.0265
     15 C          -9.6184   -6.6954   30.9575 C.3     1  UNL1        0.1007
     16 C          -8.1737   -6.8262   31.4188 C.ar    1  UNL1        0.0234
     17 C          -7.8316   -7.4235   32.6506 C.ar    1  UNL1        0.0019
     18 C          -6.4980   -7.4866   33.0640 C.ar    1  UNL1        0.0295
     19 C          -5.4894   -6.9442   32.2664 C.ar    1  UNL1        0.1424
     20 F          -4.1971   -7.0049   32.6719 F       1  UNL1       -0.2041
     21 C          -5.8134   -6.3307   31.0553 C.ar    1  UNL1        0.0590
     22 C          -7.1451   -6.2632   30.6340 C.ar    1  UNL1        0.1399
     23 F          -7.4297   -5.6413   29.4611 F       1  UNL1       -0.2044
     24 C         -11.4569   -8.4676   31.2740 C.3     1  UNL1        0.1207
     25 C         -11.2654   -9.7842   31.9813 C.ar    1  UNL1       -0.0023
     26 C         -10.1304   -9.9991   32.7750 C.ar    1  UNL1       -0.0045
     27 C          -9.9069  -11.2465   33.3736 C.ar    1  UNL1        0.0069
     28 C         -10.8436  -12.2767   33.1997 C.ar    1  UNL1        0.0046
     29 C         -11.9890  -12.0773   32.4090 C.ar    1  UNL1        0.0750
     30 C         -12.1822  -10.8296   31.7911 C.ar    1  UNL1        0.0038
     31 C         -12.9729  -13.1671   32.1979 C.2     1  UNL1        0.3380
     32 O         -14.2057  -12.9209   32.2805 O.2     1  UNL1       -0.2451
     33 O         -12.5730  -14.4742   31.9222 O.3     1  UNL1       -0.4771
     34 H         -11.6040  -14.7643   31.9453 H       1  UNL1        0.2954
     35 C          -8.6985  -11.4609   34.2393 C.3     1  UNL1        0.1636
     36 O          -7.9788  -10.2642   34.3333 O.3     1  UNL1       -0.3772
     37 H          -7.1956  -10.4588   34.9110 H       1  UNL1        0.2109
@<TRIPOS>BOND
     1    14    15    1
     2    15    16    1
     3    16    17   ar
     4    17    18   ar
     5    18    19   ar
     6    19    20    1
     7    19    21   ar
     8    21    22   ar
     9    22    23    1
    10    15     1    1
    11     1    24    1
    12    24    25    1
    13    25    26   ar
    14    26    27   ar
    15    27    35    1
    16    35    36    1
    17    27    28   ar
    18    28    29   ar
    19    29    31    1
    20    31    32    2
    21    31    33    1
    22    29    30   ar
    23     1     2   am
    24     2     3    2
    25     2     4    1
    26     4     5   ar
    27     5     6   ar
    28     6     7   ar
    29     7     8   ar
    30     8     9   ar
    31     9    10   ar
    32    10    11   ar
    33    11    12   ar
    34    12    13   ar
    35    22    16   ar
    36    30    25   ar
    37    13     4   ar
    38    11     6   ar
    39    36    37    1
    40    33    34    1
@<TRIPOS>MOLECULE
*****
 37 40 0 0 0
SMALL
GASTEIGER

@<TRIPOS>ATOM
      1 N          -9.1240  -10.9378   30.3382 N.am    1  UNL1       -0.2685
      2 C          -9.7148  -12.2495   30.3014 C.2     1  UNL1        0.2672
      3 O          -9.6719  -12.9180   29.2327 O.2     1  UNL1       -0.2682
      4 C         -10.4034  -12.7969   31.4881 C.ar    1  UNL1        0.1347
      5 C         -11.4351  -13.7404   31.3568 C.ar    1  UNL1        0.0238
      6 C         -12.0791  -14.2239   32.5034 C.ar    1  UNL1        0.0031
      7 C         -13.1117  -15.1697   32.4047 C.ar    1  UNL1        0.0001
      8 C         -13.7436  -15.6405   33.5599 C.ar    1  UNL1        0.0000
      9 C         -13.3511  -15.1724   34.8174 C.ar    1  UNL1        0.0000
     10 C         -12.3242  -14.2302   34.9282 C.ar    1  UNL1        0.0015
     11 C         -11.6838  -13.7518   33.7753 C.ar    1  UNL1        0.0192
     12 C         -10.6540  -12.8074   33.8587 C.ar    1  UNL1        0.0989
     13 N         -10.0498  -12.3585   32.7277 N.ar    1  UNL1       -0.2393
     14 C          -8.4788   -9.7373   32.4261 C.3     1  UNL1        0.0265
     15 C          -8.0294  -10.6726   31.2918 C.3     1  UNL1        0.1007
     16 C          -6.7836  -10.2070   30.5514 C.ar    1  UNL1        0.0234
     17 C          -6.2398   -8.9180   30.7366 C.ar    1  UNL1        0.0019
     18 C          -5.1210   -8.5070   30.0067 C.ar    1  UNL1        0.0295
     19 C          -4.5376   -9.3650   29.0735 C.ar    1  UNL1        0.1424
     20 F          -3.4540   -8.9617   28.3654 F       1  UNL1       -0.2041
     21 C          -5.0765  -10.6351   28.8629 C.ar    1  UNL1        0.0590
     22 C          -6.1957  -11.0547   29.5888 C.ar    1  UNL1        0.1399
     23 F          -6.7088  -12.2879   29.3457 F       1  UNL1       -0.2044
     24 C          -9.4564   -9.9921   29.2616 C.3     1  UNL1        0.1207
     25 C         -10.0161   -8.7197   29.8431 C.ar    1  UNL1       -0.0023
     26 C         -11.2333   -8.7382   30.5377 C.ar    1  UNL1       -0.0045
     27 C         -11.7982   -7.5475   31.0147 C.ar    1  UNL1        0.0069
     28 C         -11.1227   -6.3331   30.8199 C.ar    1  UNL1        0.0046
     29 C          -9.8995   -6.2968   30.1277 C.ar    1  UNL1        0.0750
     30 C          -9.3622   -7.4965   29.6294 C.ar    1  UNL1        0.0038
     31 C          -9.1895   -5.0156   29.8941 C.2     1  UNL1        0.3380
     32 O          -9.8142   -4.0336   29.4115 O.2     1  UNL1       -0.2451
     33 O          -7.8331   -4.8648   30.1807 O.3     1  UNL1       -0.4771
     34 H          -7.2478   -5.6378   30.4696 H       1  UNL1        0.2954
     35 C         -13.0923   -7.5798   31.7760 C.3     1  UNL1        0.1636
     36 O         -14.0856   -6.9387   31.0268 O.3     1  UNL1       -0.3772
     37 H         -14.9144   -6.9864   31.5708 H       1  UNL1        0.2109
@<TRIPOS>BOND
     1    14    15    1
     2    15    16    1
     3    16    17   ar
     4    17    18   ar
     5    18    19   ar
     6    19    20    1
     7    19    21   ar
     8    21    22   ar
     9    22    23    1
    10    15     1    1
    11     1    24    1
    12    24    25    1
    13    25    26   ar
    14    26    27   ar
    15    27    35    1
    16    35    36    1
    17    27    28   ar
    18    28    29   ar
    19    29    31    1
    20    31    32    2
    21    31    33    1
    22    29    30   ar
    23     1     2   am
    24     2     3    2
    25     2     4    1
    26     4     5   ar
    27     5     6   ar
    28     6     7   ar
    29     7     8   ar
    30     8     9   ar
    31     9    10   ar
    32    10    11   ar
    33    11    12   ar
    34    12    13   ar
    35    22    16   ar
    36    30    25   ar
    37    13     4   ar
    38    11     6   ar
    39    36    37    1
    40    33    34    1
@<TRIPOS>MOLECULE
*****
 37 40 0 0 0
SMALL
GASTEIGER

@<TRIPOS>ATOM
      1 N          -8.8310  -10.9749   30.8165 N.am    1  UNL1       -0.2685
      2 C          -9.5264  -12.1359   30.3270 C.2     1  UNL1        0.2672
      3 O          -9.0860  -12.7384   29.3102 O.2     1  UNL1       -0.2682
      4 C         -10.7684  -12.5982   30.9796 C.ar    1  UNL1        0.1347
      5 C         -10.8716  -13.8964   31.5048 C.ar    1  UNL1        0.0238
      6 C         -12.0715  -14.3075   32.1000 C.ar    1  UNL1        0.0031
      7 C         -12.2044  -15.5978   32.6366 C.ar    1  UNL1        0.0001
      8 C         -13.4098  -15.9909   33.2264 C.ar    1  UNL1        0.0000
      9 C         -14.4876  -15.1024   33.2845 C.ar    1  UNL1        0.0000
     10 C         -14.3673  -13.8148   32.7531 C.ar    1  UNL1        0.0015
     11 C         -13.1621  -13.4108   32.1595 C.ar    1  UNL1        0.0192
     12 C         -13.0162  -12.1279   31.6189 C.ar    1  UNL1        0.0989
     13 N         -11.8394  -11.7603   31.0483 N.ar    1  UNL1       -0.2393
     14 C          -9.4103  -10.9108   33.2407 C.3     1  UNL1        0.0265
     15 C          -8.2911  -10.9904   32.1898 C.3     1  UNL1        0.1007
     16 C          -7.2087   -9.9315   32.3450 C.ar    1  UNL1        0.0234
     17 C          -7.4456   -8.7098   33.0104 C.ar    1  UNL1        0.0019
     18 C          -6.4422   -7.7405   33.0954 C.ar    1  UNL1        0.0295
     19 C          -5.1966   -7.9661   32.5080 C.ar    1  UNL1        0.1424
     20 F          -4.2267   -7.0223   32.5903 F       1  UNL1       -0.2041
     21 C          -4.9534   -9.1602   31.8277 C.ar    1  UNL1        0.0590
     22 C          -5.9516  -10.1356   31.7378 C.ar    1  UNL1        0.1399
     23 F          -5.6908  -11.2774   31.0511 F       1  UNL1       -0.2044
     24 C          -8.4664   -9.9228   29.8551 C.3     1  UNL1        0.1207
     25 C          -9.2680   -8.6752   30.1225 C.ar    1  UNL1       -0.0023
     26 C          -8.6897   -7.4124   29.9347 C.ar    1  UNL1       -0.0045
     27 C          -9.4027   -6.2489   30.2544 C.ar    1  UNL1        0.0069
     28 C         -10.7161   -6.3516   30.7374 C.ar    1  UNL1        0.0046
     29 C         -11.3125   -7.6103   30.9292 C.ar    1  UNL1        0.0750
     30 C         -10.5722   -8.7678   30.6323 C.ar    1  UNL1        0.0038
     31 C         -12.6911   -7.7311   31.4630 C.2     1  UNL1        0.3380
     32 O         -12.9203   -8.5006   32.4340 O.2     1  UNL1       -0.2451
     33 O         -13.7577   -7.0237   30.9093 O.3     1  UNL1       -0.4771
     34 H         -13.6667   -6.4716   30.0664 H       1  UNL1        0.2954
     35 C          -8.7823   -4.8997   30.0301 C.3     1  UNL1        0.1636
     36 O          -7.4065   -4.9769   30.2754 O.3     1  UNL1       -0.3772
     37 H          -7.0470   -4.0658   30.1152 H       1  UNL1        0.2109
@<TRIPOS>BOND
     1    14    15    1
     2    15    16    1
     3    16    17   ar
     4    17    18   ar
     5    18    19   ar
     6    19    20    1
     7    19    21   ar
     8    21    22   ar
     9    22    23    1
    10    15     1    1
    11     1    24    1
    12    24    25    1
    13    25    26   ar
    14    26    27   ar
    15    27    35    1
    16    35    36    1
    17    27    28   ar
    18    28    29   ar
    19    29    31    1
    20    31    32    2
    21    31    33    1
    22    29    30   ar
    23     1     2   am
    24     2     3    2
    25     2     4    1
    26     4     5   ar
    27     5     6   ar
    28     6     7   ar
    29     7     8   ar
    30     8     9   ar
    31     9    10   ar
    32    10    11   ar
    33    11    12   ar
    34    12    13   ar
    35    22    16   ar
    36    30    25   ar
    37    13     4   ar
    38    11     6   ar
    39    36    37    1
    40    33    34    1
@<TRIPOS>MOLECULE
*****
 37 40 0 0 0
SMALL
GASTEIGER

@<TRIPOS>ATOM
      1 N          -9.0547  -10.3982   31.2663 N.am    1  UNL1       -0.2685
      2 C          -9.1690  -10.5498   32.6929 C.2     1  UNL1        0.2672
      3 O          -8.6049   -9.7147   33.4513 O.2     1  UNL1       -0.2682
      4 C          -9.9034  -11.6941   33.2703 C.ar    1  UNL1        0.1347
      5 C         -11.0328  -12.2286   32.6295 C.ar    1  UNL1        0.0238
      6 C         -11.7162  -13.3021   33.2156 C.ar    1  UNL1        0.0031
      7 C         -12.8466  -13.8599   32.5978 C.ar    1  UNL1        0.0001
      8 C         -13.5164  -14.9308   33.1978 C.ar    1  UNL1        0.0000
      9 C         -13.0649  -15.4507   34.4144 C.ar    1  UNL1        0.0000
     10 C         -11.9404  -14.9033   35.0394 C.ar    1  UNL1        0.0015
     11 C         -11.2613  -13.8289   34.4454 C.ar    1  UNL1        0.0192
     12 C         -10.1340  -13.2618   35.0512 C.ar    1  UNL1        0.0989
     13 N          -9.4938  -12.2212   34.4569 N.ar    1  UNL1       -0.2393
     14 C         -10.1869  -10.9431   29.1126 C.3     1  UNL1        0.0265
     15 C         -10.2811  -10.2187   30.4654 C.3     1  UNL1        0.1007
     16 C         -10.6347   -8.7418   30.3626 C.ar    1  UNL1        0.0234
     17 C         -10.1945   -7.9389   29.2888 C.ar    1  UNL1        0.0019
     18 C         -10.4996   -6.5756   29.2489 C.ar    1  UNL1        0.0295
     19 C         -11.2327   -5.9897   30.2818 C.ar    1  UNL1        0.1424
     20 F         -11.5245   -4.6664   30.2410 F       1  UNL1       -0.2041
     21 C         -11.6570   -6.7656   31.3617 C.ar    1  UNL1        0.0590
     22 C         -11.3563   -8.1305   31.4097 C.ar    1  UNL1        0.1399
     23 F         -11.7651   -8.8532   32.4838 F       1  UNL1       -0.2044
     24 C          -7.7184  -10.1763   30.6928 C.3     1  UNL1        0.1207
     25 C          -7.1999   -8.8199   31.0951 C.ar    1  UNL1       -0.0023
     26 C          -7.7152   -7.6624   30.4960 C.ar    1  UNL1       -0.0045
     27 C          -7.1850   -6.4033   30.8086 C.ar    1  UNL1        0.0069
     28 C          -6.1508   -6.3013   31.7514 C.ar    1  UNL1        0.0046
     29 C          -5.6239   -7.4520   32.3640 C.ar    1  UNL1        0.0750
     30 C          -6.1468   -8.7097   32.0161 C.ar    1  UNL1        0.0038
     31 C          -4.5137   -7.3581   33.3431 C.2     1  UNL1        0.3380
     32 O          -3.5325   -6.6044   33.1052 O.2     1  UNL1       -0.2451
     33 O          -4.5130   -8.0969   34.5257 O.3     1  UNL1       -0.4771
     34 H          -5.2134   -8.7975   34.7312 H       1  UNL1        0.2954
     35 C          -7.7578   -5.1669   30.1771 C.3     1  UNL1        0.1636
     36 O          -6.9315   -4.0748   30.4663 O.3     1  UNL1       -0.3772
     37 H          -7.3519   -3.2886   30.0302 H       1  UNL1        0.2109
@<TRIPOS>BOND
     1    14    15    1
     2    15    16    1
     3    16    17   ar
     4    17    18   ar
     5    18    19   ar
     6    19    20    1
     7    19    21   ar
     8    21    22   ar
     9    22    23    1
    10    15     1    1
    11     1    24    1
    12    24    25    1
    13    25    26   ar
    14    26    27   ar
    15    27    35    1
    16    35    36    1
    17    27    28   ar
    18    28    29   ar
    19    29    31    1
    20    31    32    2
    21    31    33    1
    22    29    30   ar
    23     1     2   am
    24     2     3    2
    25     2     4    1
    26     4     5   ar
    27     5     6   ar
    28     6     7   ar
    29     7     8   ar
    30     8     9   ar
    31     9    10   ar
    32    10    11   ar
    33    11    12   ar
    34    12    13   ar
    35    22    16   ar
    36    30    25   ar
    37    13     4   ar
    38    11     6   ar
    39    36    37    1
    40    33    34    1
@<TRIPOS>MOLECULE
*****
 37 40 0 0 0
SMALL
GASTEIGER

@<TRIPOS>ATOM
      1 N          -9.6356  -10.1617   31.3496 N.am    1  UNL1       -0.2685
      2 C          -9.0803  -11.2992   32.0342 C.2     1  UNL1        0.2672
      3 O          -7.8320  -11.4790   32.0244 O.2     1  UNL1       -0.2682
      4 C          -9.9620  -12.2740   32.7085 C.ar    1  UNL1        0.1347
      5 C         -10.9615  -12.9595   31.9991 C.ar    1  UNL1        0.0238
      6 C         -11.7921  -13.8630   32.6750 C.ar    1  UNL1        0.0031
      7 C         -12.7980  -14.5654   31.9928 C.ar    1  UNL1        0.0001
      8 C         -13.6179  -15.4629   32.6839 C.ar    1  UNL1        0.0000
      9 C         -13.4409  -15.6649   34.0558 C.ar    1  UNL1        0.0000
     10 C         -12.4426  -14.9709   34.7461 C.ar    1  UNL1        0.0015
     11 C         -11.6146  -14.0684   34.0617 C.ar    1  UNL1        0.0192
     12 C         -10.6089  -13.3600   34.7296 C.ar    1  UNL1        0.0989
     13 N          -9.8203  -12.4908   34.0452 N.ar    1  UNL1       -0.2393
     14 C         -11.8130   -9.6858   32.4673 C.3     1  UNL1        0.0265
     15 C         -10.4071   -9.1685   32.1216 C.3     1  UNL1        0.1007
     16 C         -10.3911   -7.8203   31.4151 C.ar    1  UNL1        0.0234
     17 C          -9.3105   -6.9215   31.5406 C.ar    1  UNL1        0.0019
     18 C          -9.3485   -5.6725   30.9145 C.ar    1  UNL1        0.0295
     19 C         -10.4659   -5.2948   30.1686 C.ar    1  UNL1        0.1424
     20 F         -10.5003   -4.0814   29.5649 F       1  UNL1       -0.2041
     21 C         -11.5520   -6.1637   30.0526 C.ar    1  UNL1        0.0590
     22 C         -11.5225   -7.4153   30.6757 C.ar    1  UNL1        0.1399
     23 F         -12.6033   -8.2289   30.5614 F       1  UNL1       -0.2044
     24 C          -9.2049   -9.9002   29.9675 C.3     1  UNL1        0.1207
     25 C          -7.7602   -9.4726   29.9464 C.ar    1  UNL1       -0.0023
     26 C          -6.9500   -9.7815   28.8452 C.ar    1  UNL1       -0.0045
     27 C          -5.5870   -9.4550   28.8511 C.ar    1  UNL1        0.0069
     28 C          -5.0391   -8.7869   29.9568 C.ar    1  UNL1        0.0046
     29 C          -5.8381   -8.4670   31.0685 C.ar    1  UNL1        0.0750
     30 C          -7.1964   -8.8290   31.0587 C.ar    1  UNL1        0.0038
     31 C          -5.2637   -7.7834   32.2530 C.2     1  UNL1        0.3380
     32 O          -4.5269   -6.7736   32.0958 O.2     1  UNL1       -0.2451
     33 O          -5.5032   -8.2362   33.5500 O.3     1  UNL1       -0.4771
     34 H          -5.9961   -9.0980   33.7443 H       1  UNL1        0.2954
     35 C          -4.7314   -9.7714   27.6581 C.3     1  UNL1        0.1636
     36 O          -5.5116   -9.7020   26.4981 O.3     1  UNL1       -0.3772
     37 H          -4.9036   -9.9187   25.7442 H       1  UNL1        0.2109
@<TRIPOS>BOND
     1    14    15    1
     2    15    16    1
     3    16    17   ar
     4    17    18   ar
     5    18    19   ar
     6    19    20    1
     7    19    21   ar
     8    21    22   ar
     9    22    23    1
    10    15     1    1
    11     1    24    1
    12    24    25    1
    13    25    26   ar
    14    26    27   ar
    15    27    35    1
    16    35    36    1
    17    27    28   ar
    18    28    29   ar
    19    29    31    1
    20    31    32    2
    21    31    33    1
    22    29    30   ar
    23     1     2   am
    24     2     3    2
    25     2     4    1
    26     4     5   ar
    27     5     6   ar
    28     6     7   ar
    29     7     8   ar
    30     8     9   ar
    31     9    10   ar
    32    10    11   ar
    33    11    12   ar
    34    12    13   ar
    35    22    16   ar
    36    30    25   ar
    37    13     4   ar
    38    11     6   ar
    39    36    37    1
    40    33    34    1
@<TRIPOS>MOLECULE
*****
 37 40 0 0 0
SMALL
GASTEIGER

@<TRIPOS>ATOM
      1 N          -8.6373  -11.2018   32.1627 N.am    1  UNL1       -0.2685
      2 C          -9.4020  -11.2375   33.3813 C.2     1  UNL1        0.2672
      3 O          -9.2542  -10.3182   34.2321 O.2     1  UNL1       -0.2682
      4 C         -10.3220  -12.3596   33.6581 C.ar    1  UNL1        0.1347
      5 C         -11.3734  -12.6687   32.7800 C.ar    1  UNL1        0.0238
      6 C         -12.2385  -13.7280   33.0840 C.ar    1  UNL1        0.0031
      7 C         -13.2966  -14.0632   32.2246 C.ar    1  UNL1        0.0001
      8 C         -14.1504  -15.1234   32.5445 C.ar    1  UNL1        0.0000
      9 C         -13.9553  -15.8540   33.7202 C.ar    1  UNL1        0.0000
     10 C         -12.9051  -15.5294   34.5842 C.ar    1  UNL1        0.0015
     11 C         -12.0429  -14.4676   34.2721 C.ar    1  UNL1        0.0192
     12 C         -10.9849  -14.1214   35.1207 C.ar    1  UNL1        0.0989
     13 N         -10.1639  -13.0884   34.7972 N.ar    1  UNL1       -0.2393
     14 C          -8.4440  -11.5619   29.7030 C.3     1  UNL1        0.0265
     15 C          -9.3504  -11.1429   30.8720 C.3     1  UNL1        0.1007
     16 C         -10.0140   -9.7844   30.6954 C.ar    1  UNL1        0.0234
     17 C         -11.0668   -9.3508   31.5290 C.ar    1  UNL1        0.0019
     18 C         -11.6841   -8.1160   31.3104 C.ar    1  UNL1        0.0295
     19 C         -11.2736   -7.3035   30.2526 C.ar    1  UNL1        0.1424
     20 F         -11.8766   -6.1076   30.0421 F       1  UNL1       -0.2041
     21 C         -10.2483   -7.7275   29.4059 C.ar    1  UNL1        0.0590
     22 C          -9.6251   -8.9615   29.6174 C.ar    1  UNL1        0.1399
     23 F          -8.6454   -9.3546   28.7636 F       1  UNL1       -0.2044
     24 C          -7.1872  -10.9719   32.2550 C.3     1  UNL1        0.1207
     25 C          -6.7917   -9.8004   31.3938 C.ar    1  UNL1       -0.0023
     26 C          -6.0846  -10.0091   30.2019 C.ar    1  UNL1       -0.0045
     27 C          -5.6465   -8.9210   29.4349 C.ar    1  UNL1        0.0069
     28 C          -5.9458   -7.6146   29.8507 C.ar    1  UNL1        0.0046
     29 C          -6.6565   -7.3873   31.0423 C.ar    1  UNL1        0.0750
     30 C          -7.0619   -8.4894   31.8152 C.ar    1  UNL1        0.0038
     31 C          -6.9564   -6.0101   31.5043 C.2     1  UNL1        0.3380
     32 O          -7.1443   -5.7890   32.7303 O.2     1  UNL1       -0.2451
     33 O          -7.0531   -4.9415   30.6136 O.3     1  UNL1       -0.4771
     34 H          -7.0184   -5.0635   29.6099 H       1  UNL1        0.2954
     35 C          -4.9077   -9.1549   28.1485 C.3     1  UNL1        0.1636
     36 O          -5.8241   -9.4783   27.1412 O.3     1  UNL1       -0.3772
     37 H          -5.2886   -9.6231   26.3182 H       1  UNL1        0.2109
@<TRIPOS>BOND
     1    14    15    1
     2    15    16    1
     3    16    17   ar
     4    17    18   ar
     5    18    19   ar
     6    19    20    1
     7    19    21   ar
     8    21    22   ar
     9    22    23    1
    10    15     1    1
    11     1    24    1
    12    24    25    1
    13    25    26   ar
    14    26    27   ar
    15    27    35    1
    16    35    36    1
    17    27    28   ar
    18    28    29   ar
    19    29    31    1
    20    31    32    2
    21    31    33    1
    22    29    30   ar
    23     1     2   am
    24     2     3    2
    25     2     4    1
    26     4     5   ar
    27     5     6   ar
    28     6     7   ar
    29     7     8   ar
    30     8     9   ar
    31     9    10   ar
    32    10    11   ar
    33    11    12   ar
    34    12    13   ar
    35    22    16   ar
    36    30    25   ar
    37    13     4   ar
    38    11     6   ar
    39    36    37    1
    40    33    34    1
