@<TRIPOS>MOLECULE
*****
 47 52 0 0 0
SMALL
GASTEIGER

@<TRIPOS>ATOM
      1 C          -7.5083  -13.7159   28.2318 C.ar    1  UNL1        0.0702
      2 C          -7.2360  -12.6439   29.0947 C.ar    1  UNL1        0.0191
      3 C          -8.1917  -12.2310   30.0245 C.ar    1  UNL1        0.0356
      4 C          -9.4257  -12.9029   30.1033 C.ar    1  UNL1        0.1318
      5 N          -9.6522  -13.9552   29.2670 N.ar    1  UNL1       -0.2279
      6 C          -8.7369  -14.3745   28.3544 C.ar    1  UNL1        0.1149
      7 N         -10.4408  -12.5112   31.0588 N.pl3   1  UNL1       -0.2932
      8 C         -10.0645  -12.0523   32.4059 C.3     1  UNL1        0.0923
      9 C         -10.6936  -10.6842   32.7198 C.3     1  UNL1        0.0252
     10 C         -12.0991  -10.4934   32.0910 C.3     1  UNL1        0.0472
     11 C         -12.7493  -11.8409   31.7254 C.3     1  UNL1        0.0252
     12 C         -11.8715  -12.5888   30.7111 C.3     1  UNL1        0.0923
     13 C         -13.0345   -9.6359   32.9669 C.3     1  UNL1        0.2054
     14 O         -13.2780   -8.3518   32.3837 O.3     1  UNL1       -0.4755
     15 C         -12.3650   -7.5574   31.6687 C.ar    1  UNL1        0.1387
     16 C         -12.2449   -6.1693   31.8440 C.ar    1  UNL1        0.0366
     17 C         -11.3089   -5.4442   31.1069 C.ar    1  UNL1       -0.0010
     18 C         -10.4509   -6.0813   30.1884 C.ar    1  UNL1       -0.0161
     19 C         -10.6003   -7.4799   29.9795 C.ar    1  UNL1        0.0745
     20 C         -11.5373   -8.1964   30.7427 C.ar    1  UNL1        0.0430
     21 C          -9.8367   -8.2245   28.9531 C.2     1  UNL1        0.3378
     22 O          -8.6028   -8.4268   29.1039 O.2     1  UNL1       -0.2451
     23 O         -10.4562   -8.6641   27.7857 O.3     1  UNL1       -0.4771
     24 H         -11.4501   -8.5400   27.6349 H       1  UNL1        0.2954
     25 C          -9.3983   -5.2538   29.4544 C.3     1  UNL1        0.0226
     26 C          -8.0825   -5.1637   30.2425 C.3     1  UNL1        0.0047
     27 C          -9.9402   -3.8575   29.1316 C.3     1  UNL1        0.0047
     28 C          -6.5794  -15.4865   26.6672 C.2     1  UNL1        0.2839
     29 O          -7.3320  -16.3841   27.1326 O.2     1  UNL1       -0.2665
     30 N          -6.5400  -14.1867   27.2785 N.am    1  UNL1       -0.2766
     31 H          -5.7132  -13.5778   27.0830 H       1  UNL1        0.1553
     32 C          -4.0890  -17.5033   26.6092 C.3     1  UNL1        0.0345
     33 C          -4.6172  -16.6617   25.4867 C.ar    1  UNL1        0.0202
     34 C          -5.7047  -15.7815   25.5164 C.ar    1  UNL1        0.1946
     35 O          -5.8649  -15.2206   24.3309 O.2     1  UNL1       -0.4492
     36 C          -4.9370  -15.6912   23.5339 C.ar    1  UNL1        0.1452
     37 C          -4.7340  -15.3741   22.1954 C.ar    1  UNL1        0.0375
     38 C          -3.6718  -16.0019   21.5221 C.ar    1  UNL1        0.0031
     39 C          -2.8326  -16.9324   22.1925 C.ar    1  UNL1        0.0002
     40 C          -3.0734  -17.2268   23.5561 C.ar    1  UNL1        0.0028
     41 C          -4.1364  -16.5849   24.1934 C.ar    1  UNL1        0.0337
     42 C          -1.7136  -17.5895   21.4706 C.ar    1  UNL1        0.0000
     43 C          -1.0064  -16.9003   20.4669 C.ar    1  UNL1        0.0000
     44 C           0.0469  -17.5215   19.7888 C.ar    1  UNL1        0.0000
     45 C           0.4067  -18.8335   20.1041 C.ar    1  UNL1        0.0000
     46 C          -0.2864  -19.5277   21.0982 C.ar    1  UNL1        0.0000
     47 C          -1.3412  -18.9119   21.7789 C.ar    1  UNL1        0.0000
@<TRIPOS>BOND
     1    32    33    1
     2    33    34   ar
     3    34    28    1
     4    28    29    2
     5    28    30   am
     6    30     1    1
     7     1     2   ar
     8     2     3   ar
     9     3     4   ar
    10     4     7    1
    11     7     8    1
    12     8     9    1
    13     9    10    1
    14    10    13    1
    15    13    14    1
    16    14    15    1
    17    15    16   ar
    18    16    17   ar
    19    17    18   ar
    20    18    25    1
    21    25    26    1
    22    25    27    1
    23    18    19   ar
    24    19    21    1
    25    21    22    2
    26    21    23    1
    27    19    20   ar
    28    10    11    1
    29    11    12    1
    30     4     5   ar
    31     5     6   ar
    32    34    35   ar
    33    35    36   ar
    34    36    37   ar
    35    37    38   ar
    36    38    39   ar
    37    39    42    1
    38    42    43   ar
    39    43    44   ar
    40    44    45   ar
    41    45    46   ar
    42    46    47   ar
    43    39    40   ar
    44    40    41   ar
    45    41    33   ar
    46     6     1   ar
    47    41    36   ar
    48    12     7    1
    49    47    42   ar
    50    20    15   ar
    51    30    31    1
    52    23    24    1
@<TRIPOS>MOLECULE
*****
 47 52 0 0 0
SMALL
GASTEIGER

@<TRIPOS>ATOM
      1 C          -6.6451  -15.0806   26.7672 C.ar    1  UNL1        0.0702
      2 C          -8.0022  -15.3650   26.9802 C.ar    1  UNL1        0.0191
      3 C          -8.7526  -14.5858   27.8624 C.ar    1  UNL1        0.0356
      4 C          -8.1464  -13.5042   28.5282 C.ar    1  UNL1        0.1318
      5 N          -6.8320  -13.2390   28.2834 N.ar    1  UNL1       -0.2279
      6 C          -6.0823  -13.9835   27.4291 C.ar    1  UNL1        0.1149
      7 N          -8.8912  -12.6668   29.4452 N.pl3   1  UNL1       -0.2932
      8 C          -8.1901  -11.8068   30.4124 C.3     1  UNL1        0.0923
      9 C          -8.6660  -10.3482   30.3020 C.3     1  UNL1        0.0252
     10 C         -10.1696  -10.2162   29.9423 C.3     1  UNL1        0.0472
     11 C         -10.9473  -11.5086   30.2539 C.3     1  UNL1        0.0252
     12 C         -10.3656  -12.6784   29.4465 C.3     1  UNL1        0.0923
     13 C         -10.8346   -8.9875   30.5947 C.3     1  UNL1        0.2054
     14 O         -11.2511   -9.2597   31.9367 O.3     1  UNL1       -0.4755
     15 C         -11.4664  -10.5206   32.5193 C.ar    1  UNL1        0.1387
     16 C         -12.6342  -11.2748   32.3211 C.ar    1  UNL1        0.0366
     17 C         -12.7765  -12.5249   32.9231 C.ar    1  UNL1       -0.0010
     18 C         -11.7531  -13.0705   33.7234 C.ar    1  UNL1       -0.0161
     19 C         -10.5882  -12.2898   33.9589 C.ar    1  UNL1        0.0745
     20 C         -10.4554  -11.0399   33.3312 C.ar    1  UNL1        0.0430
     21 C          -9.5096  -12.7144   34.8794 C.2     1  UNL1        0.3378
     22 O          -9.6398  -13.7605   35.5685 O.2     1  UNL1       -0.2451
     23 O          -8.3631  -11.9395   35.0369 O.3     1  UNL1       -0.4771
     24 H          -8.2102  -11.1028   34.4868 H       1  UNL1        0.2954
     25 C         -11.9294  -14.4708   34.3062 C.3     1  UNL1        0.0226
     26 C         -12.1125  -15.5327   33.2111 C.3     1  UNL1        0.0047
     27 C         -13.0978  -14.4984   35.2969 C.3     1  UNL1        0.0047
     28 C          -5.6289  -15.4781   24.4748 C.2     1  UNL1        0.2839
     29 O          -6.3441  -14.5926   23.9335 O.2     1  UNL1       -0.2665
     30 N          -5.8457  -15.8440   25.8473 N.am    1  UNL1       -0.2766
     31 H          -5.4697  -16.7626   26.1752 H       1  UNL1        0.1553
     32 C          -3.4974  -17.6143   25.5549 C.3     1  UNL1        0.0345
     33 C          -3.6604  -17.1052   24.1543 C.ar    1  UNL1        0.0202
     34 C          -4.5922  -16.1716   23.6869 C.ar    1  UNL1        0.1946
     35 O          -4.4267  -15.9779   22.3905 O.2     1  UNL1       -0.4492
     36 C          -3.4353  -16.7373   21.9930 C.ar    1  UNL1        0.1452
     37 C          -2.9225  -16.8502   20.7055 C.ar    1  UNL1        0.0375
     38 C          -1.8488  -17.7332   20.4977 C.ar    1  UNL1        0.0031
     39 C          -1.3061  -18.4864   21.5737 C.ar    1  UNL1        0.0002
     40 C          -1.8573  -18.3413   22.8696 C.ar    1  UNL1        0.0028
     41 C          -2.9225  -17.4556   23.0397 C.ar    1  UNL1        0.0337
     42 C          -0.1718  -19.4163   21.3420 C.ar    1  UNL1        0.0000
     43 C           1.0972  -18.9223   20.9841 C.ar    1  UNL1        0.0000
     44 C           2.1635  -19.8002   20.7665 C.ar    1  UNL1        0.0000
     45 C           1.9770  -21.1774   20.9043 C.ar    1  UNL1        0.0000
     46 C           0.7233  -21.6799   21.2597 C.ar    1  UNL1        0.0000
     47 C          -0.3469  -20.8068   21.4774 C.ar    1  UNL1        0.0000
@<TRIPOS>BOND
     1    32    33    1
     2    33    34   ar
     3    34    28    1
     4    28    29    2
     5    28    30   am
     6    30     1    1
     7     1     2   ar
     8     2     3   ar
     9     3     4   ar
    10     4     7    1
    11     7     8    1
    12     8     9    1
    13     9    10    1
    14    10    13    1
    15    13    14    1
    16    14    15    1
    17    15    16   ar
    18    16    17   ar
    19    17    18   ar
    20    18    25    1
    21    25    26    1
    22    25    27    1
    23    18    19   ar
    24    19    21    1
    25    21    22    2
    26    21    23    1
    27    19    20   ar
    28    10    11    1
    29    11    12    1
    30     4     5   ar
    31     5     6   ar
    32    34    35   ar
    33    35    36   ar
    34    36    37   ar
    35    37    38   ar
    36    38    39   ar
    37    39    42    1
    38    42    43   ar
    39    43    44   ar
    40    44    45   ar
    41    45    46   ar
    42    46    47   ar
    43    39    40   ar
    44    40    41   ar
    45    41    33   ar
    46     6     1   ar
    47    41    36   ar
    48    12     7    1
    49    47    42   ar
    50    20    15   ar
    51    30    31    1
    52    23    24    1
@<TRIPOS>MOLECULE
*****
 47 52 0 0 0
SMALL
GASTEIGER

@<TRIPOS>ATOM
      1 C          -6.9985  -14.8098   27.0068 C.ar    1  UNL1        0.0702
      2 C          -6.4936  -13.8231   27.8668 C.ar    1  UNL1        0.0191
      3 C          -7.3510  -13.1378   28.7291 C.ar    1  UNL1        0.0356
      4 C          -8.7233  -13.4495   28.7431 C.ar    1  UNL1        0.1318
      5 N          -9.1804  -14.4286   27.9122 N.ar    1  UNL1       -0.2279
      6 C          -8.3644  -15.1086   27.0647 C.ar    1  UNL1        0.1149
      7 N          -9.6450  -12.7677   29.6277 N.pl3   1  UNL1       -0.2932
      8 C          -9.6046  -13.0058   31.0798 C.3     1  UNL1        0.0923
      9 C          -9.4823  -11.6823   31.8540 C.3     1  UNL1        0.0252
     10 C         -10.2332  -10.5030   31.1809 C.3     1  UNL1        0.0472
     11 C         -11.3089  -10.9982   30.1962 C.3     1  UNL1        0.0252
     12 C         -10.6588  -11.8421   29.0898 C.3     1  UNL1        0.0923
     13 C         -10.8195   -9.5072   32.2017 C.3     1  UNL1        0.2054
     14 O         -12.0000  -10.0215   32.8265 O.3     1  UNL1       -0.4755
     15 C         -12.4270  -11.3602   32.8622 C.ar    1  UNL1        0.1387
     16 C         -13.4173  -11.8789   32.0124 C.ar    1  UNL1        0.0366
     17 C         -13.7851  -13.2217   32.0961 C.ar    1  UNL1       -0.0010
     18 C         -13.1644  -14.0928   33.0134 C.ar    1  UNL1       -0.0161
     19 C         -12.1917  -13.5592   33.9027 C.ar    1  UNL1        0.0745
     20 C         -11.8224  -12.2081   33.7930 C.ar    1  UNL1        0.0430
     21 C         -11.5685  -14.3563   34.9833 C.2     1  UNL1        0.3378
     22 O         -12.2373  -15.2349   35.5889 O.2     1  UNL1       -0.2451
     23 O         -10.2564  -14.1116   35.3811 O.3     1  UNL1       -0.4771
     24 H          -9.6781  -13.4286   34.9066 H       1  UNL1        0.2954
     25 C         -13.5554  -15.5689   33.0209 C.3     1  UNL1        0.0226
     26 C         -12.9773  -16.3250   31.8148 C.3     1  UNL1        0.0047
     27 C         -15.0785  -15.7221   33.0847 C.3     1  UNL1        0.0047
     28 C          -6.2010  -15.4727   24.6894 C.2     1  UNL1        0.2839
     29 O          -7.1866  -14.9270   24.1242 O.2     1  UNL1       -0.2665
     30 N          -6.1434  -15.5550   26.1228 N.am    1  UNL1       -0.2766
     31 H          -5.4994  -16.2600   26.5480 H       1  UNL1        0.1553
     32 C          -3.8977  -17.4570   25.7044 C.3     1  UNL1        0.0345
     33 C          -4.1146  -16.9332   24.3167 C.ar    1  UNL1        0.0202
     34 C          -5.1215  -16.0661   23.8777 C.ar    1  UNL1        0.1946
     35 O          -4.9852  -15.8330   22.5844 O.2     1  UNL1       -0.4492
     36 C          -3.9415  -16.5038   22.1619 C.ar    1  UNL1        0.1452
     37 C          -3.4349  -16.5493   20.8678 C.ar    1  UNL1        0.0375
     38 C          -2.2976  -17.3407   20.6317 C.ar    1  UNL1        0.0031
     39 C          -1.6864  -18.0712   21.6864 C.ar    1  UNL1        0.0002
     40 C          -2.2338  -17.9970   22.9898 C.ar    1  UNL1        0.0028
     41 C          -3.3632  -17.2013   23.1883 C.ar    1  UNL1        0.0337
     42 C          -0.4853  -18.9042   21.4247 C.ar    1  UNL1        0.0000
     43 C          -0.5224  -20.2971   21.6268 C.ar    1  UNL1        0.0000
     44 C           0.6102  -21.0791   21.3795 C.ar    1  UNL1        0.0000
     45 C           1.7893  -20.4822   20.9279 C.ar    1  UNL1        0.0000
     46 C           1.8386  -19.1016   20.7229 C.ar    1  UNL1        0.0000
     47 C           0.7095  -18.3146   20.9695 C.ar    1  UNL1        0.0000
@<TRIPOS>BOND
     1    32    33    1
     2    33    34   ar
     3    34    28    1
     4    28    29    2
     5    28    30   am
     6    30     1    1
     7     1     2   ar
     8     2     3   ar
     9     3     4   ar
    10     4     7    1
    11     7     8    1
    12     8     9    1
    13     9    10    1
    14    10    13    1
    15    13    14    1
    16    14    15    1
    17    15    16   ar
    18    16    17   ar
    19    17    18   ar
    20    18    25    1
    21    25    26    1
    22    25    27    1
    23    18    19   ar
    24    19    21    1
    25    21    22    2
    26    21    23    1
    27    19    20   ar
    28    10    11    1
    29    11    12    1
    30     4     5   ar
    31     5     6   ar
    32    34    35   ar
    33    35    36   ar
    34    36    37   ar
    35    37    38   ar
    36    38    39   ar
    37    39    42    1
    38    42    43   ar
    39    43    44   ar
    40    44    45   ar
    41    45    46   ar
    42    46    47   ar
    43    39    40   ar
    44    40    41   ar
    45    41    33   ar
    46     6     1   ar
    47    41    36   ar
    48    12     7    1
    49    47    42   ar
    50    20    15   ar
    51    30    31    1
    52    23    24    1
@<TRIPOS>MOLECULE
*****
 47 52 0 0 0
SMALL
GASTEIGER

@<TRIPOS>ATOM
      1 C          -6.9815  -15.1610   26.8283 C.ar    1  UNL1        0.0702
      2 C          -8.3499  -15.4144   27.0045 C.ar    1  UNL1        0.0191
      3 C          -9.0867  -14.6767   27.9326 C.ar    1  UNL1        0.0356
      4 C          -8.4549  -13.6672   28.6824 C.ar    1  UNL1        0.1318
      5 N          -7.1293  -13.4291   28.4728 N.ar    1  UNL1       -0.2279
      6 C          -6.3924  -14.1343   27.5750 C.ar    1  UNL1        0.1149
      7 N          -9.1847  -12.8741   29.6495 N.pl3   1  UNL1       -0.2932
      8 C          -8.9421  -11.4271   29.7678 C.3     1  UNL1        0.0923
      9 C         -10.2556  -10.6349   29.6518 C.3     1  UNL1        0.0252
     10 C         -11.4755  -11.3710   30.2661 C.3     1  UNL1        0.0472
     11 C         -11.0419  -12.4619   31.2632 C.3     1  UNL1        0.0252
     12 C         -10.1656  -13.5038   30.5525 C.3     1  UNL1        0.0923
     13 C         -12.5001  -10.4067   30.8967 C.3     1  UNL1        0.2054
     14 O         -11.9057   -9.5899   31.9106 O.3     1  UNL1       -0.4755
     15 C         -10.8177   -8.7121   31.7638 C.ar    1  UNL1        0.1387
     16 C          -9.5272   -8.9938   32.2405 C.ar    1  UNL1        0.0366
     17 C          -8.4908   -8.0800   32.0505 C.ar    1  UNL1       -0.0010
     18 C          -8.7026   -6.8683   31.3631 C.ar    1  UNL1       -0.0161
     19 C         -10.0179   -6.5635   30.9170 C.ar    1  UNL1        0.0745
     20 C         -11.0458   -7.5029   31.1029 C.ar    1  UNL1        0.0430
     21 C         -10.3747   -5.2688   30.2945 C.2     1  UNL1        0.3378
     22 O         -11.2762   -4.5494   30.8004 O.2     1  UNL1       -0.2451
     23 O          -9.7599   -4.8531   29.1159 O.3     1  UNL1       -0.4771
     24 H          -9.0163   -5.3919   28.6883 H       1  UNL1        0.2954
     25 C          -7.5211   -5.9313   31.1230 C.3     1  UNL1        0.0226
     26 C          -6.6423   -6.3990   29.9527 C.3     1  UNL1        0.0047
     27 C          -6.6918   -5.7723   32.4014 C.3     1  UNL1        0.0047
     28 C          -5.8885  -15.3926   24.5485 C.2     1  UNL1        0.2839
     29 O          -6.5140  -14.4051   24.0772 O.2     1  UNL1       -0.2665
     30 N          -6.1947  -15.8819   25.8644 N.am    1  UNL1       -0.2766
     31 H          -5.8994  -16.8549   26.1067 H       1  UNL1        0.1553
     32 C          -3.6187  -17.4009   25.5913 C.3     1  UNL1        0.0345
     33 C          -3.8746  -16.9534   24.1837 C.ar    1  UNL1        0.0202
     34 C          -4.8666  -16.0755   23.7325 C.ar    1  UNL1        0.1946
     35 O          -4.7766  -15.9261   22.4229 O.2     1  UNL1       -0.4492
     36 C          -3.7769  -16.6614   22.0013 C.ar    1  UNL1        0.1452
     37 C          -3.3273  -16.8044   20.6934 C.ar    1  UNL1        0.0375
     38 C          -2.2307  -17.6525   20.4613 C.ar    1  UNL1        0.0031
     39 C          -1.6028  -18.3416   21.5339 C.ar    1  UNL1        0.0002
     40 C          -2.0916  -18.1677   22.8510 C.ar    1  UNL1        0.0028
     41 C          -3.1817  -17.3180   23.0449 C.ar    1  UNL1        0.0337
     42 C          -0.4451  -19.2352   21.2764 C.ar    1  UNL1        0.0000
     43 C           0.7446  -18.7240   20.7234 C.ar    1  UNL1        0.0000
     44 C           1.8333  -19.5677   20.4821 C.ar    1  UNL1        0.0000
     45 C           1.7483  -20.9272   20.7899 C.ar    1  UNL1        0.0000
     46 C           0.5740  -21.4464   21.3395 C.ar    1  UNL1        0.0000
     47 C          -0.5181  -20.6076   21.5820 C.ar    1  UNL1        0.0000
@<TRIPOS>BOND
     1    32    33    1
     2    33    34   ar
     3    34    28    1
     4    28    29    2
     5    28    30   am
     6    30     1    1
     7     1     2   ar
     8     2     3   ar
     9     3     4   ar
    10     4     7    1
    11     7     8    1
    12     8     9    1
    13     9    10    1
    14    10    13    1
    15    13    14    1
    16    14    15    1
    17    15    16   ar
    18    16    17   ar
    19    17    18   ar
    20    18    25    1
    21    25    26    1
    22    25    27    1
    23    18    19   ar
    24    19    21    1
    25    21    22    2
    26    21    23    1
    27    19    20   ar
    28    10    11    1
    29    11    12    1
    30     4     5   ar
    31     5     6   ar
    32    34    35   ar
    33    35    36   ar
    34    36    37   ar
    35    37    38   ar
    36    38    39   ar
    37    39    42    1
    38    42    43   ar
    39    43    44   ar
    40    44    45   ar
    41    45    46   ar
    42    46    47   ar
    43    39    40   ar
    44    40    41   ar
    45    41    33   ar
    46     6     1   ar
    47    41    36   ar
    48    12     7    1
    49    47    42   ar
    50    20    15   ar
    51    30    31    1
    52    23    24    1
@<TRIPOS>MOLECULE
*****
 47 52 0 0 0
SMALL
GASTEIGER

@<TRIPOS>ATOM
      1 C          -6.6952  -15.1301   26.7805 C.ar    1  UNL1        0.0702
      2 C          -8.0575  -15.3699   27.0146 C.ar    1  UNL1        0.0191
      3 C          -8.7545  -14.6039   27.9505 C.ar    1  UNL1        0.0356
      4 C          -8.0890  -13.5799   28.6498 C.ar    1  UNL1        0.1318
      5 N          -6.7710  -13.3560   28.3844 N.ar    1  UNL1       -0.2279
      6 C          -6.0726  -14.0887   27.4779 C.ar    1  UNL1        0.1149
      7 N          -8.7772  -12.7577   29.6230 N.pl3   1  UNL1       -0.2932
      8 C          -8.2019  -11.4757   30.0617 C.3     1  UNL1        0.0923
      9 C          -9.2132  -10.3291   29.8929 C.3     1  UNL1        0.0252
     10 C         -10.6821  -10.7610   30.1445 C.3     1  UNL1        0.0472
     11 C         -10.7626  -12.0626   30.9640 C.3     1  UNL1        0.0252
     12 C         -10.0540  -13.1997   30.2133 C.3     1  UNL1        0.0923
     13 C         -11.5338   -9.6427   30.7783 C.3     1  UNL1        0.2054
     14 O         -12.2178  -10.0967   31.9506 O.3     1  UNL1       -0.4755
     15 C         -12.6034  -11.4145   32.2516 C.ar    1  UNL1        0.1387
     16 C         -13.6051  -12.1061   31.5516 C.ar    1  UNL1        0.0366
     17 C         -13.9298  -13.4175   31.8981 C.ar    1  UNL1       -0.0010
     18 C         -13.2537  -14.0866   32.9377 C.ar    1  UNL1       -0.0161
     19 C         -12.2687  -13.3733   33.6744 C.ar    1  UNL1        0.0745
     20 C         -11.9435  -12.0587   33.3007 C.ar    1  UNL1        0.0430
     21 C         -11.5870  -13.9390   34.8604 C.2     1  UNL1        0.3378
     22 O         -10.3457  -13.7875   35.0101 O.2     1  UNL1       -0.2451
     23 O         -12.2943  -14.6893   35.7966 O.3     1  UNL1       -0.4771
     24 H         -13.2965  -14.8173   35.7241 H       1  UNL1        0.2954
     25 C         -13.6001  -15.5437   33.2352 C.3     1  UNL1        0.0226
     26 C         -12.9193  -16.5105   32.2543 C.3     1  UNL1        0.0047
     27 C         -15.1188  -15.7461   33.2387 C.3     1  UNL1        0.0047
     28 C          -5.6158  -15.3910   24.4975 C.2     1  UNL1        0.2839
     29 O          -6.1847  -14.3635   24.0401 O.2     1  UNL1       -0.2665
     30 N          -5.9496  -15.8806   25.8065 N.am    1  UNL1       -0.2766
     31 H          -5.7093  -16.8718   26.0352 H       1  UNL1        0.1553
     32 C          -3.4158  -17.4850   25.5211 C.3     1  UNL1        0.0345
     33 C          -3.6718  -17.0341   24.1146 C.ar    1  UNL1        0.0202
     34 C          -4.6333  -16.1186   23.6718 C.ar    1  UNL1        0.1946
     35 O          -4.5545  -15.9791   22.3604 O.2     1  UNL1       -0.4492
     36 C          -3.5912  -16.7564   21.9297 C.ar    1  UNL1        0.1452
     37 C          -3.1650  -16.9237   20.6168 C.ar    1  UNL1        0.0375
     38 C          -2.1069  -17.8167   20.3749 C.ar    1  UNL1        0.0031
     39 C          -1.4934  -18.5259   21.4428 C.ar    1  UNL1        0.0002
     40 C          -1.9574  -18.3261   22.7653 C.ar    1  UNL1        0.0028
     41 C          -3.0094  -17.4318   22.9689 C.ar    1  UNL1        0.0337
     42 C          -0.3764  -19.4669   21.1750 C.ar    1  UNL1        0.0000
     43 C           0.7628  -19.0421   20.4650 C.ar    1  UNL1        0.0000
     44 C           1.8132  -19.9304   20.2143 C.ar    1  UNL1        0.0000
     45 C           1.7399  -21.2489   20.6687 C.ar    1  UNL1        0.0000
     46 C           0.6155  -21.6824   21.3747 C.ar    1  UNL1        0.0000
     47 C          -0.4383  -20.7988   21.6275 C.ar    1  UNL1        0.0000
@<TRIPOS>BOND
     1    32    33    1
     2    33    34   ar
     3    34    28    1
     4    28    29    2
     5    28    30   am
     6    30     1    1
     7     1     2   ar
     8     2     3   ar
     9     3     4   ar
    10     4     7    1
    11     7     8    1
    12     8     9    1
    13     9    10    1
    14    10    13    1
    15    13    14    1
    16    14    15    1
    17    15    16   ar
    18    16    17   ar
    19    17    18   ar
    20    18    25    1
    21    25    26    1
    22    25    27    1
    23    18    19   ar
    24    19    21    1
    25    21    22    2
    26    21    23    1
    27    19    20   ar
    28    10    11    1
    29    11    12    1
    30     4     5   ar
    31     5     6   ar
    32    34    35   ar
    33    35    36   ar
    34    36    37   ar
    35    37    38   ar
    36    38    39   ar
    37    39    42    1
    38    42    43   ar
    39    43    44   ar
    40    44    45   ar
    41    45    46   ar
    42    46    47   ar
    43    39    40   ar
    44    40    41   ar
    45    41    33   ar
    46     6     1   ar
    47    41    36   ar
    48    12     7    1
    49    47    42   ar
    50    20    15   ar
    51    30    31    1
    52    23    24    1
@<TRIPOS>MOLECULE
*****
 47 52 0 0 0
SMALL
GASTEIGER

@<TRIPOS>ATOM
      1 C          -6.9816  -15.0811   26.8864 C.ar    1  UNL1        0.0702
      2 C          -8.3517  -15.3242   27.0644 C.ar    1  UNL1        0.0191
      3 C          -9.0829  -14.5768   27.9892 C.ar    1  UNL1        0.0356
      4 C          -8.4437  -13.5681   28.7339 C.ar    1  UNL1        0.1318
      5 N          -7.1166  -13.3402   28.5225 N.ar    1  UNL1       -0.2279
      6 C          -6.3851  -14.0550   27.6278 C.ar    1  UNL1        0.1149
      7 N          -9.1675  -12.7653   29.6975 N.pl3   1  UNL1       -0.2932
      8 C          -8.8886  -11.3265   29.8341 C.3     1  UNL1        0.0923
      9 C         -10.1787  -10.4985   29.7056 C.3     1  UNL1        0.0252
     10 C         -11.4272  -11.2078   30.2934 C.3     1  UNL1        0.0472
     11 C         -11.0385  -12.3194   31.2861 C.3     1  UNL1        0.0252
     12 C         -10.1789  -13.3774   30.5786 C.3     1  UNL1        0.0923
     13 C         -12.4359  -10.2227   30.9176 C.3     1  UNL1        0.2054
     14 O         -11.8004   -9.3174   31.8260 O.3     1  UNL1       -0.4755
     15 C         -10.6736   -8.5153   31.5758 C.ar    1  UNL1        0.1387
     16 C         -10.6800   -7.4289   30.6861 C.ar    1  UNL1        0.0366
     17 C          -9.5266   -6.6687   30.4937 C.ar    1  UNL1       -0.0010
     18 C          -8.3386   -6.9542   31.1957 C.ar    1  UNL1       -0.0161
     19 C          -8.3190   -8.0794   32.0649 C.ar    1  UNL1        0.0745
     20 C          -9.4948   -8.8236   32.2586 C.ar    1  UNL1        0.0430
     21 C          -7.0930   -8.5396   32.7551 C.2     1  UNL1        0.3378
     22 O          -6.3489   -9.4018   32.2175 O.2     1  UNL1       -0.2451
     23 O          -6.7734   -8.0687   34.0263 O.3     1  UNL1       -0.4771
     24 H          -7.3337   -7.3602   34.4846 H       1  UNL1        0.2954
     25 C          -7.1222   -6.0522   30.9998 C.3     1  UNL1        0.0226
     26 C          -7.5212   -4.6268   30.5880 C.3     1  UNL1        0.0047
     27 C          -6.1551   -6.6660   29.9823 C.3     1  UNL1        0.0047
     28 C          -5.9571  -15.3673   24.5811 C.2     1  UNL1        0.2839
     29 O          -6.6354  -14.4240   24.0923 O.2     1  UNL1       -0.2665
     30 N          -6.2004  -15.8122   25.9256 N.am    1  UNL1       -0.2766
     31 H          -5.8601  -16.7626   26.1966 H       1  UNL1        0.1553
     32 C          -3.6677  -17.3607   25.6095 C.3     1  UNL1        0.0345
     33 C          -3.9370  -16.9169   24.2031 C.ar    1  UNL1        0.0202
     34 C          -4.9376  -16.0455   23.7583 C.ar    1  UNL1        0.1946
     35 O          -4.8585  -15.8976   22.4478 O.2     1  UNL1       -0.4492
     36 C          -3.8578  -16.6277   22.0197 C.ar    1  UNL1        0.1452
     37 C          -3.4175  -16.7702   20.7085 C.ar    1  UNL1        0.0375
     38 C          -2.3177  -17.6122   20.4693 C.ar    1  UNL1        0.0031
     39 C          -1.6776  -18.2960   21.5380 C.ar    1  UNL1        0.0002
     40 C          -2.1573  -18.1229   22.8587 C.ar    1  UNL1        0.0028
     41 C          -3.2508  -17.2793   23.0596 C.ar    1  UNL1        0.0337
     42 C          -0.5167  -19.1833   21.2730 C.ar    1  UNL1        0.0000
     43 C          -0.5600  -20.5446   21.6300 C.ar    1  UNL1        0.0000
     44 C           0.5346  -21.3777   21.3792 C.ar    1  UNL1        0.0000
     45 C           1.6815  -20.8641   20.7700 C.ar    1  UNL1        0.0000
     46 C           1.7367  -19.5157   20.4105 C.ar    1  UNL1        0.0000
     47 C           0.6455  -18.6776   20.6598 C.ar    1  UNL1        0.0000
@<TRIPOS>BOND
     1    32    33    1
     2    33    34   ar
     3    34    28    1
     4    28    29    2
     5    28    30   am
     6    30     1    1
     7     1     2   ar
     8     2     3   ar
     9     3     4   ar
    10     4     7    1
    11     7     8    1
    12     8     9    1
    13     9    10    1
    14    10    13    1
    15    13    14    1
    16    14    15    1
    17    15    16   ar
    18    16    17   ar
    19    17    18   ar
    20    18    25    1
    21    25    26    1
    22    25    27    1
    23    18    19   ar
    24    19    21    1
    25    21    22    2
    26    21    23    1
    27    19    20   ar
    28    10    11    1
    29    11    12    1
    30     4     5   ar
    31     5     6   ar
    32    34    35   ar
    33    35    36   ar
    34    36    37   ar
    35    37    38   ar
    36    38    39   ar
    37    39    42    1
    38    42    43   ar
    39    43    44   ar
    40    44    45   ar
    41    45    46   ar
    42    46    47   ar
    43    39    40   ar
    44    40    41   ar
    45    41    33   ar
    46     6     1   ar
    47    41    36   ar
    48    12     7    1
    49    47    42   ar
    50    20    15   ar
    51    30    31    1
    52    23    24    1
@<TRIPOS>MOLECULE
*****
 47 52 0 0 0
SMALL
GASTEIGER

@<TRIPOS>ATOM
      1 C          -7.0172  -15.1120   26.7652 C.ar    1  UNL1        0.0702
      2 C          -8.3952  -15.3487   26.8796 C.ar    1  UNL1        0.0191
      3 C          -9.1651  -14.5973   27.7690 C.ar    1  UNL1        0.0356
      4 C          -8.5565  -13.5910   28.5420 C.ar    1  UNL1        0.1318
      5 N          -7.2200  -13.3693   28.3924 N.ar    1  UNL1       -0.2279
      6 C          -6.4510  -14.0881   27.5330 C.ar    1  UNL1        0.1149
      7 N          -9.3206  -12.7841   29.4705 N.pl3   1  UNL1       -0.2932
      8 C         -10.5211  -13.3294   30.1249 C.3     1  UNL1        0.0923
      9 C         -10.4345  -13.1786   31.6532 C.3     1  UNL1        0.0252
     10 C          -9.7016  -11.8876   32.1045 C.3     1  UNL1        0.0472
     11 C          -9.6631  -10.8312   30.9843 C.3     1  UNL1        0.0252
     12 C          -8.9271  -11.3928   29.7589 C.3     1  UNL1        0.0923
     13 C         -10.2726  -11.3019   33.4116 C.3     1  UNL1        0.2054
     14 O          -9.3048  -10.5065   34.1037 O.3     1  UNL1       -0.4755
     15 C          -8.2439   -9.7780   33.5383 C.ar    1  UNL1        0.1387
     16 C          -8.2002   -8.3749   33.5058 C.ar    1  UNL1        0.0366
     17 C          -7.1099   -7.7168   32.9371 C.ar    1  UNL1       -0.0010
     18 C          -6.0216   -8.4347   32.4022 C.ar    1  UNL1       -0.0161
     19 C          -6.0841   -9.8552   32.3968 C.ar    1  UNL1        0.0745
     20 C          -7.1827  -10.5009   32.9885 C.ar    1  UNL1        0.0430
     21 C          -5.0551  -10.7018   31.7521 C.2     1  UNL1        0.3378
     22 O          -5.0460  -10.8461   30.5010 O.2     1  UNL1       -0.2451
     23 O          -4.1188  -11.3910   32.5190 O.3     1  UNL1       -0.4771
     24 H          -4.0789  -11.2860   33.5257 H       1  UNL1        0.2954
     25 C          -4.8219   -7.6678   31.8507 C.3     1  UNL1        0.0226
     26 C          -4.0252   -6.9663   32.9615 C.3     1  UNL1        0.0047
     27 C          -5.2687   -6.6662   30.7809 C.3     1  UNL1        0.0047
     28 C          -5.9564  -15.4470   24.4831 C.2     1  UNL1        0.2839
     29 O          -6.6681  -14.5536   23.9501 O.2     1  UNL1       -0.2665
     30 N          -6.1956  -15.8474   25.8422 N.am    1  UNL1       -0.2766
     31 H          -5.8188  -16.7710   26.1547 H       1  UNL1        0.1553
     32 C          -3.7088  -17.4471   25.5880 C.3     1  UNL1        0.0345
     33 C          -3.9179  -16.9883   24.1763 C.ar    1  UNL1        0.0202
     34 C          -4.9004  -16.1140   23.6980 C.ar    1  UNL1        0.1946
     35 O          -4.7648  -15.9514   22.3938 O.2     1  UNL1       -0.4492
     36 C          -3.7447  -16.6748   22.0016 C.ar    1  UNL1        0.1452
     37 C          -3.2474  -16.8018   20.7093 C.ar    1  UNL1        0.0375
     38 C          -2.1363  -17.6389   20.5089 C.ar    1  UNL1        0.0031
     39 C          -1.5415  -18.3333   21.5969 C.ar    1  UNL1        0.0002
     40 C          -2.0785  -18.1758   22.8973 C.ar    1  UNL1        0.0028
     41 C          -3.1818  -17.3366   23.0598 C.ar    1  UNL1        0.0337
     42 C          -0.3680  -19.2152   21.3729 C.ar    1  UNL1        0.0000
     43 C           0.8626  -18.6760   20.9517 C.ar    1  UNL1        0.0000
     44 C           1.9661  -19.5088   20.7416 C.ar    1  UNL1        0.0000
     45 C           1.8552  -20.8853   20.9497 C.ar    1  UNL1        0.0000
     46 C           0.6402  -21.4323   21.3682 C.ar    1  UNL1        0.0000
     47 C          -0.4668  -20.6045   21.5789 C.ar    1  UNL1        0.0000
@<TRIPOS>BOND
     1    32    33    1
     2    33    34   ar
     3    34    28    1
     4    28    29    2
     5    28    30   am
     6    30     1    1
     7     1     2   ar
     8     2     3   ar
     9     3     4   ar
    10     4     7    1
    11     7     8    1
    12     8     9    1
    13     9    10    1
    14    10    13    1
    15    13    14    1
    16    14    15    1
    17    15    16   ar
    18    16    17   ar
    19    17    18   ar
    20    18    25    1
    21    25    26    1
    22    25    27    1
    23    18    19   ar
    24    19    21    1
    25    21    22    2
    26    21    23    1
    27    19    20   ar
    28    10    11    1
    29    11    12    1
    30     4     5   ar
    31     5     6   ar
    32    34    35   ar
    33    35    36   ar
    34    36    37   ar
    35    37    38   ar
    36    38    39   ar
    37    39    42    1
    38    42    43   ar
    39    43    44   ar
    40    44    45   ar
    41    45    46   ar
    42    46    47   ar
    43    39    40   ar
    44    40    41   ar
    45    41    33   ar
    46     6     1   ar
    47    41    36   ar
    48    12     7    1
    49    47    42   ar
    50    20    15   ar
    51    30    31    1
    52    23    24    1
@<TRIPOS>MOLECULE
*****
 47 52 0 0 0
SMALL
GASTEIGER

@<TRIPOS>ATOM
      1 C          -7.6429  -14.2156   27.8452 C.ar    1  UNL1        0.0702
      2 C          -8.9782  -14.6066   28.0239 C.ar    1  UNL1        0.0191
      3 C          -9.7825  -13.9517   28.9581 C.ar    1  UNL1        0.0356
      4 C          -9.2531  -12.8876   29.7117 C.ar    1  UNL1        0.1318
      5 N          -7.9590  -12.5159   29.4996 N.ar    1  UNL1       -0.2279
      6 C          -7.1578  -13.1387   28.5958 C.ar    1  UNL1        0.1149
      7 N         -10.0559  -12.1772   30.6852 N.pl3   1  UNL1       -0.2932
      8 C          -9.4399  -11.1909   31.5878 C.3     1  UNL1        0.0923
      9 C         -10.1719   -9.8401   31.5131 C.3     1  UNL1        0.0252
     10 C         -11.6996   -9.9791   31.2800 C.3     1  UNL1        0.0472
     11 C         -12.2102  -11.3818   31.6595 C.3     1  UNL1        0.0252
     12 C         -11.5002  -12.4461   30.8098 C.3     1  UNL1        0.0923
     13 C         -12.5144   -8.8742   31.9820 C.3     1  UNL1        0.2054
     14 O         -12.2801   -7.5893   31.3966 O.3     1  UNL1       -0.4755
     15 C         -11.0446   -7.0513   30.9966 C.ar    1  UNL1        0.1387
     16 C         -10.8291   -6.4590   29.7418 C.ar    1  UNL1        0.0366
     17 C          -9.5782   -5.9355   29.4152 C.ar    1  UNL1       -0.0010
     18 C          -8.5107   -5.9676   30.3344 C.ar    1  UNL1       -0.0161
     19 C          -8.7159   -6.6046   31.5890 C.ar    1  UNL1        0.0745
     20 C          -9.9869   -7.1117   31.9069 C.ar    1  UNL1        0.0430
     21 C          -7.6309   -6.8014   32.5766 C.2     1  UNL1        0.3378
     22 O          -6.8055   -7.7416   32.4321 O.2     1  UNL1       -0.2451
     23 O          -7.5385   -5.9876   33.7031 O.3     1  UNL1       -0.4771
     24 H          -8.1694   -5.2081   33.8461 H       1  UNL1        0.2954
     25 C          -7.1801   -5.3223   29.9540 C.3     1  UNL1        0.0226
     26 C          -6.0355   -6.3461   29.9047 C.3     1  UNL1        0.0047
     27 C          -6.8463   -4.1729   30.9105 C.3     1  UNL1        0.0047
     28 C          -7.2001  -15.1764   25.5373 C.2     1  UNL1        0.2839
     29 O          -8.4207  -15.1547   25.2238 O.2     1  UNL1       -0.2665
     30 N          -6.7907  -14.8485   26.8751 N.am    1  UNL1       -0.2766
     31 H          -5.8450  -15.1637   27.1896 H       1  UNL1        0.1553
     32 C          -4.5662  -16.9253   26.0633 C.3     1  UNL1        0.0345
     33 C          -5.0394  -16.3431   24.7655 C.ar    1  UNL1        0.0202
     34 C          -6.1901  -15.5792   24.5402 C.ar    1  UNL1        0.1946
     35 O          -6.2699  -15.2477   23.2638 O.2     1  UNL1       -0.4492
     36 C          -5.2300  -15.7568   22.6496 C.ar    1  UNL1        0.1452
     37 C          -4.9146  -15.6558   21.2991 C.ar    1  UNL1        0.0375
     38 C          -3.7422  -16.2850   20.8463 C.ar    1  UNL1        0.0031
     39 C          -2.9065  -17.0021   21.7446 C.ar    1  UNL1        0.0002
     40 C          -3.2638  -17.0801   23.1122 C.ar    1  UNL1        0.0028
     41 C          -4.4344  -16.4433   23.5271 C.ar    1  UNL1        0.0337
     42 C          -1.6703  -17.6630   21.2545 C.ar    1  UNL1        0.0000
     43 C          -1.3220  -18.9517   21.7021 C.ar    1  UNL1        0.0000
     44 C          -0.1574  -19.5716   21.2388 C.ar    1  UNL1        0.0000
     45 C           0.6703  -18.9153   20.3253 C.ar    1  UNL1        0.0000
     46 C           0.3355  -17.6371   19.8731 C.ar    1  UNL1        0.0000
     47 C          -0.8274  -17.0119   20.3337 C.ar    1  UNL1        0.0000
@<TRIPOS>BOND
     1    32    33    1
     2    33    34   ar
     3    34    28    1
     4    28    29    2
     5    28    30   am
     6    30     1    1
     7     1     2   ar
     8     2     3   ar
     9     3     4   ar
    10     4     7    1
    11     7     8    1
    12     8     9    1
    13     9    10    1
    14    10    13    1
    15    13    14    1
    16    14    15    1
    17    15    16   ar
    18    16    17   ar
    19    17    18   ar
    20    18    25    1
    21    25    26    1
    22    25    27    1
    23    18    19   ar
    24    19    21    1
    25    21    22    2
    26    21    23    1
    27    19    20   ar
    28    10    11    1
    29    11    12    1
    30     4     5   ar
    31     5     6   ar
    32    34    35   ar
    33    35    36   ar
    34    36    37   ar
    35    37    38   ar
    36    38    39   ar
    37    39    42    1
    38    42    43   ar
    39    43    44   ar
    40    44    45   ar
    41    45    46   ar
    42    46    47   ar
    43    39    40   ar
    44    40    41   ar
    45    41    33   ar
    46     6     1   ar
    47    41    36   ar
    48    12     7    1
    49    47    42   ar
    50    20    15   ar
    51    30    31    1
    52    23    24    1
@<TRIPOS>MOLECULE
*****
 47 52 0 0 0
SMALL
GASTEIGER

@<TRIPOS>ATOM
      1 C          -8.7948  -15.4473   26.7639 C.ar    1  UNL1        0.0702
      2 C          -8.9113  -16.8271   26.9889 C.ar    1  UNL1        0.0191
      3 C          -9.2865  -17.6788   25.9486 C.ar    1  UNL1        0.0356
      4 C          -9.5349  -17.1503   24.6681 C.ar    1  UNL1        0.1318
      5 N          -9.3915  -15.8086   24.4750 N.ar    1  UNL1       -0.2279
      6 C          -9.0273  -14.9608   25.4725 C.ar    1  UNL1        0.1149
      7 N          -9.9188  -18.0001   23.5603 N.pl3   1  UNL1       -0.2932
      8 C         -10.6430  -17.4443   22.4056 C.3     1  UNL1        0.0923
      9 C          -9.9267  -17.7849   21.0876 C.3     1  UNL1        0.0252
     10 C          -9.2376  -19.1750   21.1022 C.3     1  UNL1        0.0472
     11 C          -9.8162  -20.0882   22.1993 C.3     1  UNL1        0.0252
     12 C          -9.6156  -19.4429   23.5785 C.3     1  UNL1        0.0923
     13 C          -9.2585  -19.8671   19.7244 C.3     1  UNL1        0.2054
     14 O          -7.9541  -20.3058   19.3313 O.3     1  UNL1       -0.4755
     15 C          -6.7240  -19.9191   19.8911 C.ar    1  UNL1        0.1387
     16 C          -5.7905  -20.8303   20.4108 C.ar    1  UNL1        0.0366
     17 C          -4.5836  -20.3766   20.9425 C.ar    1  UNL1       -0.0010
     18 C          -4.2609  -19.0050   20.9546 C.ar    1  UNL1       -0.0161
     19 C          -5.2230  -18.0783   20.4671 C.ar    1  UNL1        0.0745
     20 C          -6.4263  -18.5548   19.9204 C.ar    1  UNL1        0.0430
     21 C          -5.0371  -16.6119   20.5456 C.2     1  UNL1        0.3378
     22 O          -5.3815  -15.9840   21.5816 O.2     1  UNL1       -0.2451
     23 O          -4.5308  -15.9003   19.4606 O.3     1  UNL1       -0.4771
     24 H          -4.2229  -16.3693   18.6173 H       1  UNL1        0.2954
     25 C          -2.8993  -18.5644   21.4871 C.3     1  UNL1        0.0226
     26 C          -1.8184  -19.6327   21.2617 C.3     1  UNL1        0.0047
     27 C          -2.9970  -18.1880   22.9690 C.3     1  UNL1        0.0047
     28 C          -7.0765  -13.9563   27.8910 C.2     1  UNL1        0.2839
     29 O          -6.1301  -14.4114   27.1940 O.2     1  UNL1       -0.2665
     30 N          -8.3860  -14.5414   27.8033 N.am    1  UNL1       -0.2766
     31 H          -9.0554  -14.3649   28.5864 H       1  UNL1        0.1553
     32 C          -4.6713  -11.8405   27.7870 C.3     1  UNL1        0.0345
     33 C          -5.7837  -11.9197   28.7888 C.ar    1  UNL1        0.0202
     34 C          -6.8319  -12.8459   28.8310 C.ar    1  UNL1        0.1946
     35 O          -7.6175  -12.5929   29.8628 O.2     1  UNL1       -0.4492
     36 C          -7.1326  -11.5506   30.4922 C.ar    1  UNL1        0.1452
     37 C          -7.6438  -10.9401   31.6321 C.ar    1  UNL1        0.0375
     38 C          -6.9616   -9.8233   32.1451 C.ar    1  UNL1        0.0031
     39 C          -5.7849   -9.3355   31.5149 C.ar    1  UNL1        0.0002
     40 C          -5.2976   -9.9868   30.3562 C.ar    1  UNL1        0.0028
     41 C          -5.9997  -11.0927   29.8747 C.ar    1  UNL1        0.0337
     42 C          -5.0729   -8.1547   32.0659 C.ar    1  UNL1        0.0000
     43 C          -4.7053   -7.0850   31.2274 C.ar    1  UNL1        0.0000
     44 C          -4.0349   -5.9742   31.7490 C.ar    1  UNL1        0.0000
     45 C          -3.7253   -5.9174   33.1096 C.ar    1  UNL1        0.0000
     46 C          -4.0852   -6.9717   33.9519 C.ar    1  UNL1        0.0000
     47 C          -4.7548   -8.0854   33.4357 C.ar    1  UNL1        0.0000
@<TRIPOS>BOND
     1    32    33    1
     2    33    34   ar
     3    34    28    1
     4    28    29    2
     5    28    30   am
     6    30     1    1
     7     1     2   ar
     8     2     3   ar
     9     3     4   ar
    10     4     7    1
    11     7     8    1
    12     8     9    1
    13     9    10    1
    14    10    13    1
    15    13    14    1
    16    14    15    1
    17    15    16   ar
    18    16    17   ar
    19    17    18   ar
    20    18    25    1
    21    25    26    1
    22    25    27    1
    23    18    19   ar
    24    19    21    1
    25    21    22    2
    26    21    23    1
    27    19    20   ar
    28    10    11    1
    29    11    12    1
    30     4     5   ar
    31     5     6   ar
    32    34    35   ar
    33    35    36   ar
    34    36    37   ar
    35    37    38   ar
    36    38    39   ar
    37    39    42    1
    38    42    43   ar
    39    43    44   ar
    40    44    45   ar
    41    45    46   ar
    42    46    47   ar
    43    39    40   ar
    44    40    41   ar
    45    41    33   ar
    46     6     1   ar
    47    41    36   ar
    48    12     7    1
    49    47    42   ar
    50    20    15   ar
    51    30    31    1
    52    23    24    1
