@<TRIPOS>MOLECULE
*****
 40 44 0 0 0
SMALL
GASTEIGER

@<TRIPOS>ATOM
      1 C          -2.3945  -16.3211   22.2771 C.3     1  UNL1        0.1332
      2 N          -3.3862  -17.0600   21.4954 N.ar    1  UNL1       -0.2977
      3 C          -3.1981  -17.7899   20.3579 C.ar    1  UNL1        0.2018
      4 N          -4.3415  -18.3172   19.8497 N.ar    1  UNL1       -0.2135
      5 C          -5.2746  -17.9237   20.7333 C.ar    1  UNL1        0.0999
      6 C          -6.6415  -18.2303   20.7129 C.ar    1  UNL1        0.0282
      7 C          -7.4526  -17.7678   21.7799 C.ar    1  UNL1        0.0888
      8 C          -6.8388  -16.9943   22.7952 C.ar    1  UNL1        0.1401
      9 C          -5.4954  -16.6961   22.7815 C.ar    1  UNL1        0.0327
     10 C          -4.7072  -17.1767   21.7313 C.ar    1  UNL1        0.0789
     11 C          -5.1467  -15.8629   23.9655 C.3     1  UNL1        0.0709
     12 C          -6.5109  -15.7558   24.7229 C.3     1  UNL1        0.1375
     13 C          -6.9471  -14.2949   24.8954 C.3     1  UNL1        0.0439
     14 C          -6.4464  -16.4595   26.0854 C.3     1  UNL1        0.0439
     15 O          -7.4564  -16.4335   23.8937 O.3     1  UNL1       -0.4824
     16 C          -8.8966  -18.0825   21.8014 C.2     1  UNL1        0.2525
     17 O          -9.2901  -19.1671   21.2927 O.2     1  UNL1       -0.2697
     18 N          -9.8428  -17.1717   22.3906 N.am    1  UNL1       -0.2803
     19 H          -9.4969  -16.2659   22.7773 H       1  UNL1        0.1552
     20 C         -11.2631  -17.3904   22.4133 C.ar    1  UNL1        0.0505
     21 C         -12.0403  -17.2843   21.2474 C.ar    1  UNL1        0.0147
     22 C         -13.4169  -17.5129   21.2969 C.ar    1  UNL1        0.0012
     23 C         -14.0275  -17.8717   22.5007 C.ar    1  UNL1        0.0039
     24 C         -13.2591  -18.0345   23.6659 C.ar    1  UNL1        0.0726
     25 C         -11.8775  -17.7770   23.6141 C.ar    1  UNL1        0.0185
     26 C         -13.9203  -18.3856   24.9752 C.3     1  UNL1        0.4186
     27 F         -13.1169  -19.2723   25.6671 F       1  UNL1       -0.1659
     28 F         -15.1551  -18.9719   24.7564 F       1  UNL1       -0.1659
     29 F         -14.1109  -17.2527   25.7475 F       1  UNL1       -0.1659
     30 N          -1.9243  -18.0270   19.7412 N.pl3   1  UNL1       -0.2814
     31 H          -1.7537  -17.5966   18.8047 H       1  UNL1        0.1551
     32 C          -0.8940  -18.8593   20.2987 C.ar    1  UNL1        0.0889
     33 C          -1.2591  -20.0688   20.9131 C.ar    1  UNL1        0.1548
     34 F          -2.5624  -20.4432   20.9627 F       1  UNL1       -0.2028
     35 C          -0.2838  -20.9111   21.4530 C.ar    1  UNL1        0.0377
     36 C           1.0635  -20.5481   21.4007 C.ar    1  UNL1        0.0377
     37 BR          2.3934  -21.7021   22.1407 Br      1  UNL1       -0.0489
     38 C           1.4367  -19.3337   20.8196 C.ar    1  UNL1        0.0195
     39 C           0.4686  -18.4807   20.2756 C.ar    1  UNL1        0.0738
     40 CL          0.9998  -16.9244   19.6480 Cl      1  UNL1       -0.0809
@<TRIPOS>BOND
     1     1     2    1
     2     2     3   ar
     3     3    30    1
     4    30    32    1
     5    32    33   ar
     6    33    34    1
     7    33    35   ar
     8    35    36   ar
     9    36    37    1
    10    36    38   ar
    11    38    39   ar
    12    39    40    1
    13     3     4   ar
    14     4     5   ar
    15     5     6   ar
    16     6     7   ar
    17     7    16    1
    18    16    17    2
    19    16    18   am
    20    18    20    1
    21    20    21   ar
    22    21    22   ar
    23    22    23   ar
    24    23    24   ar
    25    24    26    1
    26    26    27    1
    27    26    28    1
    28    26    29    1
    29    24    25   ar
    30     7     8   ar
    31     8     9   ar
    32     9    10   ar
    33     9    11    1
    34    11    12    1
    35    12    13    1
    36    12    14    1
    37    12    15    1
    38    10     2   ar
    39    39    32   ar
    40    10     5   ar
    41    25    20   ar
    42    15     8    1
    43    30    31    1
    44    18    19    1
@<TRIPOS>MOLECULE
*****
 40 44 0 0 0
SMALL
GASTEIGER

@<TRIPOS>ATOM
      1 C          -5.8222  -15.2135   27.1045 C.3     1  UNL1        0.1332
      2 N          -7.1971  -14.9206   27.5101 N.ar    1  UNL1       -0.2977
      3 C          -8.3262  -15.6483   27.2701 C.ar    1  UNL1        0.2018
      4 N          -9.4604  -15.0731   27.7459 N.ar    1  UNL1       -0.2135
      5 C          -9.0069  -13.9549   28.3377 C.ar    1  UNL1        0.0999
      6 C          -9.7607  -13.0005   29.0331 C.ar    1  UNL1        0.0282
      7 C          -9.0798  -11.9170   29.6435 C.ar    1  UNL1        0.0888
      8 C          -7.6736  -11.8442   29.4907 C.ar    1  UNL1        0.1401
      9 C          -6.9603  -12.7890   28.7890 C.ar    1  UNL1        0.0327
     10 C          -7.6464  -13.8610   28.2099 C.ar    1  UNL1        0.0789
     11 C          -5.5128  -12.4396   28.7913 C.3     1  UNL1        0.0709
     12 C          -5.4747  -11.1425   29.6644 C.3     1  UNL1        0.1375
     13 C          -4.8824   -9.9581   28.8893 C.3     1  UNL1        0.0439
     14 C          -4.6964  -11.3725   30.9671 C.3     1  UNL1        0.0439
     15 O          -6.8390  -10.8615   29.9811 O.3     1  UNL1       -0.4824
     16 C          -9.8385  -10.8972   30.3978 C.2     1  UNL1        0.2525
     17 O          -9.9964  -11.0517   31.6392 O.2     1  UNL1       -0.2697
     18 N         -10.3906   -9.7456   29.7336 N.am    1  UNL1       -0.2803
     19 H         -10.2737   -9.6555   28.7003 H       1  UNL1        0.1552
     20 C         -11.1719   -8.7348   30.3921 C.ar    1  UNL1        0.0505
     21 C         -12.2786   -9.0680   31.1912 C.ar    1  UNL1        0.0147
     22 C         -13.0132   -8.0656   31.8281 C.ar    1  UNL1        0.0012
     23 C         -12.6390   -6.7267   31.6943 C.ar    1  UNL1        0.0039
     24 C         -11.5041   -6.3780   30.9427 C.ar    1  UNL1        0.0726
     25 C         -10.7848   -7.3905   30.2828 C.ar    1  UNL1        0.0185
     26 C         -11.1189   -4.9306   30.7659 C.3     1  UNL1        0.4186
     27 F         -11.7079   -4.1779   31.7645 F       1  UNL1       -0.1659
     28 F         -11.5440   -4.4594   29.5356 F       1  UNL1       -0.1659
     29 F          -9.7450   -4.7768   30.8360 F       1  UNL1       -0.1659
     30 N          -8.3521  -16.9207   26.6071 N.pl3   1  UNL1       -0.2814
     31 H          -7.8106  -17.7019   27.0404 H       1  UNL1        0.1551
     32 C          -9.0246  -17.1750   25.3629 C.ar    1  UNL1        0.0889
     33 C          -9.7783  -18.3529   25.2290 C.ar    1  UNL1        0.1548
     34 F          -9.8754  -19.2229   26.2658 F       1  UNL1       -0.2028
     35 C         -10.4582  -18.6269   24.0396 C.ar    1  UNL1        0.0377
     36 C         -10.3798  -17.7375   22.9660 C.ar    1  UNL1        0.0377
     37 BR        -11.3100  -18.1163   21.3415 Br      1  UNL1       -0.0489
     38 C          -9.6088  -16.5777   23.0759 C.ar    1  UNL1        0.0195
     39 C          -8.9224  -16.2922   24.2625 C.ar    1  UNL1        0.0738
     40 CL         -7.8930  -14.8648   24.2968 Cl      1  UNL1       -0.0809
@<TRIPOS>BOND
     1     1     2    1
     2     2     3   ar
     3     3    30    1
     4    30    32    1
     5    32    33   ar
     6    33    34    1
     7    33    35   ar
     8    35    36   ar
     9    36    37    1
    10    36    38   ar
    11    38    39   ar
    12    39    40    1
    13     3     4   ar
    14     4     5   ar
    15     5     6   ar
    16     6     7   ar
    17     7    16    1
    18    16    17    2
    19    16    18   am
    20    18    20    1
    21    20    21   ar
    22    21    22   ar
    23    22    23   ar
    24    23    24   ar
    25    24    26    1
    26    26    27    1
    27    26    28    1
    28    26    29    1
    29    24    25   ar
    30     7     8   ar
    31     8     9   ar
    32     9    10   ar
    33     9    11    1
    34    11    12    1
    35    12    13    1
    36    12    14    1
    37    12    15    1
    38    10     2   ar
    39    39    32   ar
    40    10     5   ar
    41    25    20   ar
    42    15     8    1
    43    30    31    1
    44    18    19    1
@<TRIPOS>MOLECULE
*****
 40 44 0 0 0
SMALL
GASTEIGER

@<TRIPOS>ATOM
      1 C          -8.5137  -10.2078   32.1578 C.3     1  UNL1        0.1332
      2 N          -8.9113  -11.3869   31.3882 N.ar    1  UNL1       -0.2977
      3 C         -10.0131  -12.1752   31.5513 C.ar    1  UNL1        0.2018
      4 N         -10.0656  -13.2276   30.6949 N.ar    1  UNL1       -0.2135
      5 C          -8.9626  -13.0624   29.9449 C.ar    1  UNL1        0.0999
      6 C          -8.5454  -13.8552   28.8679 C.ar    1  UNL1        0.0282
      7 C          -7.3772  -13.4729   28.1613 C.ar    1  UNL1        0.0888
      8 C          -6.6786  -12.3230   28.6037 C.ar    1  UNL1        0.1401
      9 C          -7.1040  -11.5710   29.6749 C.ar    1  UNL1        0.0327
     10 C          -8.2689  -11.9522   30.3480 C.ar    1  UNL1        0.0789
     11 C          -6.1647  -10.4392   29.9075 C.3     1  UNL1        0.0709
     12 C          -5.1251  -10.6137   28.7522 C.3     1  UNL1        0.1375
     13 C          -3.7008  -10.7861   29.2963 C.3     1  UNL1        0.0439
     14 C          -5.1837   -9.4360   27.7697 C.3     1  UNL1        0.0439
     15 O          -5.5154  -11.8073   28.0713 O.3     1  UNL1       -0.4824
     16 C          -6.9128  -14.2759   27.0106 C.2     1  UNL1        0.2525
     17 O          -5.6911  -14.5781   26.9337 O.2     1  UNL1       -0.2697
     18 N          -7.8331  -14.7084   25.9917 N.am    1  UNL1       -0.2803
     19 H          -8.8337  -14.4193   26.0608 H       1  UNL1        0.1552
     20 C          -7.4493  -15.4561   24.8259 C.ar    1  UNL1        0.0505
     21 C          -8.2568  -16.4875   24.3174 C.ar    1  UNL1        0.0147
     22 C          -7.8642  -17.1903   23.1763 C.ar    1  UNL1        0.0012
     23 C          -6.6778  -16.8573   22.5188 C.ar    1  UNL1        0.0039
     24 C          -5.8836  -15.7943   22.9813 C.ar    1  UNL1        0.0726
     25 C          -6.2720  -15.1085   24.1461 C.ar    1  UNL1        0.0185
     26 C          -4.5836  -15.4563   22.2956 C.3     1  UNL1        0.4186
     27 F          -4.3160  -14.1109   22.4658 F       1  UNL1       -0.1659
     28 F          -4.6598  -15.7334   20.9415 F       1  UNL1       -0.1659
     29 F          -3.5413  -16.1944   22.8296 F       1  UNL1       -0.1659
     30 N         -11.0565  -11.9327   32.5061 N.pl3   1  UNL1       -0.2814
     31 H         -11.0129  -11.0440   33.0535 H       1  UNL1        0.1551
     32 C         -12.1212  -12.8527   32.7972 C.ar    1  UNL1        0.0889
     33 C         -13.2900  -12.8038   32.0193 C.ar    1  UNL1        0.1548
     34 F         -13.3978  -11.9096   31.0043 F       1  UNL1       -0.2028
     35 C         -14.3403  -13.6924   32.2631 C.ar    1  UNL1        0.0377
     36 C         -14.2427  -14.6274   33.2956 C.ar    1  UNL1        0.0377
     37 BR        -15.6810  -15.8397   33.6260 Br      1  UNL1       -0.0489
     38 C         -13.0982  -14.6659   34.0959 C.ar    1  UNL1        0.0195
     39 C         -12.0391  -13.7803   33.8618 C.ar    1  UNL1        0.0738
     40 CL        -10.6712  -13.8197   34.9689 Cl      1  UNL1       -0.0809
@<TRIPOS>BOND
     1     1     2    1
     2     2     3   ar
     3     3    30    1
     4    30    32    1
     5    32    33   ar
     6    33    34    1
     7    33    35   ar
     8    35    36   ar
     9    36    37    1
    10    36    38   ar
    11    38    39   ar
    12    39    40    1
    13     3     4   ar
    14     4     5   ar
    15     5     6   ar
    16     6     7   ar
    17     7    16    1
    18    16    17    2
    19    16    18   am
    20    18    20    1
    21    20    21   ar
    22    21    22   ar
    23    22    23   ar
    24    23    24   ar
    25    24    26    1
    26    26    27    1
    27    26    28    1
    28    26    29    1
    29    24    25   ar
    30     7     8   ar
    31     8     9   ar
    32     9    10   ar
    33     9    11    1
    34    11    12    1
    35    12    13    1
    36    12    14    1
    37    12    15    1
    38    10     2   ar
    39    39    32   ar
    40    10     5   ar
    41    25    20   ar
    42    15     8    1
    43    30    31    1
    44    18    19    1
