@<TRIPOS>MOLECULE
*****
 36 40 0 0 0
SMALL
GASTEIGER

@<TRIPOS>ATOM
      1 C         -12.2267  -12.8409   32.5873 C.ar    1  UNL1       -0.0050
      2 C         -12.8729  -11.6705   33.0423 C.ar    1  UNL1       -0.0015
      3 C         -12.6213  -10.4229   32.4307 C.ar    1  UNL1        0.0158
      4 C         -11.7352  -10.3242   31.3369 C.ar    1  UNL1        0.0672
      5 C         -11.1156  -11.5012   30.9051 C.ar    1  UNL1        0.1113
      6 N         -10.2183  -11.6416   29.9136 N.ar    1  UNL1       -0.2258
      7 C          -9.9386  -12.9718   29.9268 C.ar    1  UNL1        0.1405
      8 N         -10.6202  -13.6487   30.8886 N.ar    1  UNL1       -0.3376
      9 C         -11.3530  -12.7054   31.4998 C.ar    1  UNL1        0.0727
     10 H         -10.5877  -14.6653   31.1180 H       1  UNL1        0.1674
     11 N         -11.4623   -9.0585   30.7103 N.pl3   1  UNL1       -0.3034
     12 C         -12.0267   -7.8262   31.2750 C.3     1  UNL1        0.1082
     13 C         -11.2954   -6.5963   30.7274 C.3     1  UNL1        0.0941
     14 N          -9.8559   -6.9001   30.6320 N.3     1  UNL1       -0.2646
     15 C          -9.5504   -7.9317   29.6120 C.3     1  UNL1        0.0941
     16 C         -10.6689   -8.9844   29.4777 C.3     1  UNL1        0.1082
     17 C          -9.0090   -5.6947   30.5041 C.3     1  UNL1        0.1203
     18 C          -7.5648   -5.9344   30.8583 C.ar    1  UNL1        0.0934
     19 C          -6.4712   -5.5336   30.1204 C.ar    1  UNL1        0.0896
     20 N          -5.3669   -5.9528   30.7557 N.ar    1  UNL1       -0.3398
     21 C          -5.8106   -6.5831   31.8609 C.ar    1  UNL1        0.1172
     22 C          -4.9116   -7.2656   32.8371 C.3     1  UNL1        0.0716
     23 N          -7.1571   -6.6038   31.9558 N.ar    1  UNL1       -0.2340
     24 H          -4.3769   -5.8240   30.4502 H       1  UNL1        0.1671
     25 C          -8.9795  -13.5937   28.9781 C.ar    1  UNL1        0.0339
     26 C          -9.3644  -14.6341   28.1179 C.ar    1  UNL1        0.0027
     27 C          -8.4451  -15.2035   27.2332 C.ar    1  UNL1       -0.0042
     28 C          -7.1084  -14.7545   27.1750 C.ar    1  UNL1       -0.0228
     29 C          -6.7316  -13.7059   28.0446 C.ar    1  UNL1       -0.0042
     30 C          -7.6528  -13.1379   28.9285 C.ar    1  UNL1        0.0027
     31 C          -6.1257  -15.4112   26.1830 C.3     1  UNL1        0.0189
     32 C          -4.9442  -14.4884   25.7981 C.3     1  UNL1        0.0044
     33 C          -5.5346  -16.6905   26.8146 C.3     1  UNL1        0.0044
     34 C          -6.8749  -15.7798   24.8840 C.3     1  UNL1        0.0044
     35 C         -11.7605  -14.3163   34.5439 C.3     1  UNL1        0.0051
     36 C         -12.5103  -14.1759   33.2233 C.3     1  UNL1        0.0279
@<TRIPOS>BOND
     1    35    36    1
     2    36     1    1
     3     1     2   ar
     4     2     3   ar
     5     3     4   ar
     6     4    11    1
     7    11    12    1
     8    12    13    1
     9    13    14    1
    10    14    17    1
    11    17    18    1
    12    18    19   ar
    13    19    20   ar
    14    20    21   ar
    15    21    22    1
    16    21    23   ar
    17    14    15    1
    18    15    16    1
    19     4     5   ar
    20     5     6   ar
    21     6     7   ar
    22     7    25    1
    23    25    26   ar
    24    26    27   ar
    25    27    28   ar
    26    28    31    1
    27    31    32    1
    28    31    33    1
    29    31    34    1
    30    28    29   ar
    31    29    30   ar
    32     7     8   ar
    33     8     9   ar
    34     9     1   ar
    35    16    11    1
    36     9     5   ar
    37    23    18   ar
    38    30    25   ar
    39    20    24    1
    40     8    10    1
@<TRIPOS>MOLECULE
*****
 36 40 0 0 0
SMALL
GASTEIGER

@<TRIPOS>ATOM
      1 C         -10.0010   -6.9603   30.3702 C.ar    1  UNL1       -0.0050
      2 C          -8.8241   -6.3930   29.8341 C.ar    1  UNL1       -0.0015
      3 C          -7.6822   -7.1891   29.5972 C.ar    1  UNL1        0.0158
      4 C          -7.7016   -8.5733   29.8706 C.ar    1  UNL1        0.0672
      5 C          -8.8832   -9.1071   30.3947 C.ar    1  UNL1        0.1113
      6 N          -9.1194  -10.3796   30.7592 N.ar    1  UNL1       -0.2258
      7 C         -10.4025  -10.3470   31.2068 C.ar    1  UNL1        0.1405
      8 N         -10.9577   -9.1081   31.1389 N.ar    1  UNL1       -0.3376
      9 C          -9.9842   -8.3375   30.6301 C.ar    1  UNL1        0.0727
     10 H         -11.9153   -8.8062   31.4200 H       1  UNL1        0.1674
     11 N          -6.5429   -9.3946   29.6431 N.pl3   1  UNL1       -0.3034
     12 C          -6.4255  -10.6956   30.3140 C.3     1  UNL1        0.1082
     13 C          -5.3614  -11.5613   29.6318 C.3     1  UNL1        0.0941
     14 N          -5.4517  -11.3680   28.1730 N.3     1  UNL1       -0.2646
     15 C          -5.0692  -10.0002   27.7477 C.3     1  UNL1        0.0941
     16 C          -5.4447   -8.9270   28.7890 C.3     1  UNL1        0.1082
     17 C          -4.7681  -12.4251   27.3975 C.3     1  UNL1        0.1203
     18 C          -5.6412  -13.6176   27.1072 C.ar    1  UNL1        0.0934
     19 C          -5.4893  -14.4979   26.0570 C.ar    1  UNL1        0.0896
     20 N          -6.4732  -15.4062   26.1325 N.ar    1  UNL1       -0.3398
     21 C          -7.1871  -15.0667   27.2236 C.ar    1  UNL1        0.1172
     22 C          -8.4249  -15.7810   27.6534 C.3     1  UNL1        0.0716
     23 N          -6.7150  -13.9653   27.8454 N.ar    1  UNL1       -0.2340
     24 H          -6.6498  -16.1999   25.4775 H       1  UNL1        0.1671
     25 C         -11.0998  -11.5559   31.7157 C.ar    1  UNL1        0.0339
     26 C         -10.4803  -12.4408   32.6123 C.ar    1  UNL1        0.0027
     27 C         -11.1559  -13.5713   33.0782 C.ar    1  UNL1       -0.0042
     28 C         -12.4748  -13.8592   32.6664 C.ar    1  UNL1       -0.0228
     29 C         -13.0897  -12.9613   31.7644 C.ar    1  UNL1       -0.0042
     30 C         -12.4119  -11.8312   31.2998 C.ar    1  UNL1        0.0027
     31 C         -13.1844  -15.1188   33.2056 C.3     1  UNL1        0.0189
     32 C         -14.7210  -15.0745   33.0243 C.3     1  UNL1        0.0044
     33 C         -12.6603  -16.3646   32.4586 C.3     1  UNL1        0.0044
     34 C         -12.8947  -15.2665   34.7152 C.3     1  UNL1        0.0044
     35 C         -10.9952   -4.6844   30.1367 C.3     1  UNL1        0.0051
     36 C         -11.2272   -6.1179   30.6027 C.3     1  UNL1        0.0279
@<TRIPOS>BOND
     1    35    36    1
     2    36     1    1
     3     1     2   ar
     4     2     3   ar
     5     3     4   ar
     6     4    11    1
     7    11    12    1
     8    12    13    1
     9    13    14    1
    10    14    17    1
    11    17    18    1
    12    18    19   ar
    13    19    20   ar
    14    20    21   ar
    15    21    22    1
    16    21    23   ar
    17    14    15    1
    18    15    16    1
    19     4     5   ar
    20     5     6   ar
    21     6     7   ar
    22     7    25    1
    23    25    26   ar
    24    26    27   ar
    25    27    28   ar
    26    28    31    1
    27    31    32    1
    28    31    33    1
    29    31    34    1
    30    28    29   ar
    31    29    30   ar
    32     7     8   ar
    33     8     9   ar
    34     9     1   ar
    35    16    11    1
    36     9     5   ar
    37    23    18   ar
    38    30    25   ar
    39    20    24    1
    40     8    10    1
@<TRIPOS>MOLECULE
*****
 36 40 0 0 0
SMALL
GASTEIGER

@<TRIPOS>ATOM
      1 C          -5.8183  -11.2141   29.4066 C.ar    1  UNL1       -0.0050
      2 C          -6.1099  -10.3889   30.5149 C.ar    1  UNL1       -0.0015
      3 C          -7.3240  -10.5317   31.2215 C.ar    1  UNL1        0.0158
      4 C          -8.2614  -11.5181   30.8480 C.ar    1  UNL1        0.0672
      5 C          -7.9417  -12.3241   29.7508 C.ar    1  UNL1        0.1113
      6 N          -8.6890  -13.2966   29.1998 N.ar    1  UNL1       -0.2258
      7 C          -7.9208  -13.7400   28.1697 C.ar    1  UNL1        0.1405
      8 N          -6.7400  -13.0751   28.0627 N.ar    1  UNL1       -0.3376
      9 C          -6.7722  -12.1820   29.0636 C.ar    1  UNL1        0.0727
     10 H          -5.9768  -13.2095   27.3652 H       1  UNL1        0.1674
     11 N          -9.5063  -11.6687   31.5527 N.pl3   1  UNL1       -0.3034
     12 C         -10.6003  -12.4392   30.9481 C.3     1  UNL1        0.1082
     13 C         -11.6424  -12.8189   32.0051 C.3     1  UNL1        0.0941
     14 N         -10.9466  -13.1771   33.2545 N.3     1  UNL1       -0.2646
     15 C         -10.2611  -12.0232   33.8842 C.3     1  UNL1        0.0941
     16 C          -9.7208  -11.0157   32.8496 C.3     1  UNL1        0.1082
     17 C         -11.7941  -13.9315   34.2026 C.3     1  UNL1        0.1203
     18 C         -12.5041  -15.1018   33.5742 C.ar    1  UNL1        0.0934
     19 C         -13.7803  -15.5311   33.8711 C.ar    1  UNL1        0.0896
     20 N         -14.0400  -16.6097   33.1175 N.ar    1  UNL1       -0.3398
     21 C         -12.9300  -16.8024   32.3784 C.ar    1  UNL1        0.1172
     22 C         -12.7575  -17.9441   31.4331 C.3     1  UNL1        0.0716
     23 N         -11.9572  -15.9029   32.6373 N.ar    1  UNL1       -0.2340
     24 H         -14.9141  -17.1808   33.1146 H       1  UNL1        0.1671
     25 C          -8.3543  -14.8377   27.2675 C.ar    1  UNL1        0.0339
     26 C          -8.4962  -16.1564   27.7275 C.ar    1  UNL1        0.0027
     27 C          -8.9060  -17.1726   26.8608 C.ar    1  UNL1       -0.0042
     28 C          -9.1896  -16.9091   25.5036 C.ar    1  UNL1       -0.0228
     29 C          -9.0446  -15.5779   25.0511 C.ar    1  UNL1       -0.0042
     30 C          -8.6346  -14.5632   25.9198 C.ar    1  UNL1        0.0027
     31 C          -9.6395  -18.0610   24.5808 C.3     1  UNL1        0.0189
     32 C         -10.0379  -19.3399   25.3562 C.3     1  UNL1        0.0044
     33 C         -10.8657  -17.6116   23.7567 C.3     1  UNL1        0.0044
     34 C          -8.4868  -18.4336   23.6232 C.3     1  UNL1        0.0044
     35 C          -4.6009   -9.9752   27.6163 C.3     1  UNL1        0.0051
     36 C          -4.5147  -11.0787   28.6654 C.3     1  UNL1        0.0279
@<TRIPOS>BOND
     1    35    36    1
     2    36     1    1
     3     1     2   ar
     4     2     3   ar
     5     3     4   ar
     6     4    11    1
     7    11    12    1
     8    12    13    1
     9    13    14    1
    10    14    17    1
    11    17    18    1
    12    18    19   ar
    13    19    20   ar
    14    20    21   ar
    15    21    22    1
    16    21    23   ar
    17    14    15    1
    18    15    16    1
    19     4     5   ar
    20     5     6   ar
    21     6     7   ar
    22     7    25    1
    23    25    26   ar
    24    26    27   ar
    25    27    28   ar
    26    28    31    1
    27    31    32    1
    28    31    33    1
    29    31    34    1
    30    28    29   ar
    31    29    30   ar
    32     7     8   ar
    33     8     9   ar
    34     9     1   ar
    35    16    11    1
    36     9     5   ar
    37    23    18   ar
    38    30    25   ar
    39    20    24    1
    40     8    10    1
@<TRIPOS>MOLECULE
*****
 36 40 0 0 0
SMALL
GASTEIGER

@<TRIPOS>ATOM
      1 C          -4.4503  -10.6840   31.8142 C.ar    1  UNL1       -0.0050
      2 C          -3.8520   -9.4474   31.4865 C.ar    1  UNL1       -0.0015
      3 C          -4.6418   -8.2950   31.2824 C.ar    1  UNL1        0.0158
      4 C          -6.0448   -8.3507   31.4240 C.ar    1  UNL1        0.0672
      5 C          -6.6074   -9.5873   31.7553 C.ar    1  UNL1        0.1113
      6 N          -7.9101   -9.8831   31.9083 N.ar    1  UNL1       -0.2258
      7 C          -7.8997  -11.2083   32.2104 C.ar    1  UNL1        0.1405
      8 N          -6.6477  -11.7368   32.2409 N.ar    1  UNL1       -0.3376
      9 C          -5.8456  -10.7023   31.9459 C.ar    1  UNL1        0.0727
     10 H          -6.3590  -12.7190   32.4384 H       1  UNL1        0.1674
     11 N          -6.8626   -7.1869   31.2098 N.pl3   1  UNL1       -0.3034
     12 C          -7.1943   -6.7679   29.8421 C.3     1  UNL1        0.1082
     13 C          -8.3774   -5.7945   29.8470 C.3     1  UNL1        0.0941
     14 N          -9.3567   -6.2384   30.8557 N.3     1  UNL1       -0.2646
     15 C          -8.8469   -6.1259   32.2433 C.3     1  UNL1        0.0941
     16 C          -7.3285   -6.3758   32.3409 C.3     1  UNL1        0.1082
     17 C         -10.6939   -5.6317   30.6821 C.3     1  UNL1        0.1203
     18 C         -11.8270   -6.5859   30.9550 C.ar    1  UNL1        0.0934
     19 C         -13.1655   -6.2604   31.0134 C.ar    1  UNL1        0.0896
     20 N         -13.8510   -7.3773   31.2985 N.ar    1  UNL1       -0.3398
     21 C         -12.9227   -8.3492   31.3946 C.ar    1  UNL1        0.1172
     22 C         -13.2416   -9.7596   31.7635 C.3     1  UNL1        0.0716
     23 N         -11.6638   -7.9018   31.2011 N.ar    1  UNL1       -0.2340
     24 H         -14.8833   -7.4676   31.4271 H       1  UNL1        0.1671
     25 C          -9.1446  -11.9756   32.4721 C.ar    1  UNL1        0.0339
     26 C          -9.5451  -12.3069   33.7762 C.ar    1  UNL1        0.0027
     27 C         -10.7204  -13.0288   33.9983 C.ar    1  UNL1       -0.0042
     28 C         -11.5389  -13.4455   32.9266 C.ar    1  UNL1       -0.0228
     29 C         -11.1270  -13.1058   31.6179 C.ar    1  UNL1       -0.0042
     30 C          -9.9511  -12.3838   31.3982 C.ar    1  UNL1        0.0027
     31 C         -12.8288  -14.2410   33.2166 C.3     1  UNL1        0.0189
     32 C         -12.9154  -15.5673   32.4235 C.3     1  UNL1        0.0044
     33 C         -12.8923  -14.5889   34.7198 C.3     1  UNL1        0.0044
     34 C         -14.0573  -13.3862   32.8358 C.3     1  UNL1        0.0044
     35 C          -2.8406  -11.7894   33.3664 C.3     1  UNL1        0.0051
     36 C          -3.6085  -11.9090   32.0542 C.3     1  UNL1        0.0279
@<TRIPOS>BOND
     1    35    36    1
     2    36     1    1
     3     1     2   ar
     4     2     3   ar
     5     3     4   ar
     6     4    11    1
     7    11    12    1
     8    12    13    1
     9    13    14    1
    10    14    17    1
    11    17    18    1
    12    18    19   ar
    13    19    20   ar
    14    20    21   ar
    15    21    22    1
    16    21    23   ar
    17    14    15    1
    18    15    16    1
    19     4     5   ar
    20     5     6   ar
    21     6     7   ar
    22     7    25    1
    23    25    26   ar
    24    26    27   ar
    25    27    28   ar
    26    28    31    1
    27    31    32    1
    28    31    33    1
    29    31    34    1
    30    28    29   ar
    31    29    30   ar
    32     7     8   ar
    33     8     9   ar
    34     9     1   ar
    35    16    11    1
    36     9     5   ar
    37    23    18   ar
    38    30    25   ar
    39    20    24    1
    40     8    10    1
@<TRIPOS>MOLECULE
*****
 36 40 0 0 0
SMALL
GASTEIGER

@<TRIPOS>ATOM
      1 C         -12.4261  -13.2545   32.2561 C.ar    1  UNL1       -0.0050
      2 C         -12.8219  -12.1435   33.0328 C.ar    1  UNL1       -0.0015
      3 C         -12.1434  -10.9098   32.9263 C.ar    1  UNL1        0.0158
      4 C         -11.0693  -10.7557   32.0240 C.ar    1  UNL1        0.0672
      5 C         -10.7049  -11.8716   31.2641 C.ar    1  UNL1        0.1113
      6 N          -9.7018  -11.9677   30.3739 N.ar    1  UNL1       -0.2258
      7 C          -9.7840  -13.2543   29.9431 C.ar    1  UNL1        0.1405
      8 N         -10.7889  -13.9506   30.5374 N.ar    1  UNL1       -0.3376
      9 C         -11.3555  -13.0654   31.3715 C.ar    1  UNL1        0.0727
     10 H         -11.0654  -14.9459   30.3956 H       1  UNL1        0.1674
     11 N         -10.3630   -9.5076   31.9118 N.pl3   1  UNL1       -0.3034
     12 C          -9.1291   -9.2942   32.6787 C.3     1  UNL1        0.1082
     13 C          -8.3386   -8.1104   32.1121 C.3     1  UNL1        0.0941
     14 N          -8.4246   -8.1393   30.6406 N.3     1  UNL1       -0.2646
     15 C          -9.7942   -7.8768   30.1375 C.3     1  UNL1        0.0941
     16 C         -10.8877   -8.4179   31.0803 C.3     1  UNL1        0.1082
     17 C          -7.3975   -7.3085   29.9764 C.3     1  UNL1        0.1203
     18 C          -6.2332   -8.1028   29.4451 C.ar    1  UNL1        0.0934
     19 C          -4.9355   -8.0484   29.9076 C.ar    1  UNL1        0.0896
     20 N          -4.1958   -8.8848   29.1647 N.ar    1  UNL1       -0.3398
     21 C          -5.0555   -9.4318   28.2831 C.ar    1  UNL1        0.1172
     22 C          -4.6423  -10.3861   27.2128 C.3     1  UNL1        0.0716
     23 N          -6.3169   -8.9691   28.4148 N.ar    1  UNL1       -0.2340
     24 H          -3.1705   -9.0635   29.2490 H       1  UNL1        0.1671
     25 C          -8.8553  -13.8158   28.9287 C.ar    1  UNL1        0.0339
     26 C          -7.5342  -13.3571   28.8058 C.ar    1  UNL1        0.0027
     27 C          -6.6783  -13.9006   27.8446 C.ar    1  UNL1       -0.0042
     28 C          -7.1100  -14.9221   26.9717 C.ar    1  UNL1       -0.0228
     29 C          -8.4415  -15.3774   27.1046 C.ar    1  UNL1       -0.0042
     30 C          -9.2957  -14.8323   28.0667 C.ar    1  UNL1        0.0027
     31 C          -6.1319  -15.4944   25.9245 C.3     1  UNL1        0.0189
     32 C          -5.0717  -14.4674   25.4589 C.3     1  UNL1        0.0044
     33 C          -5.3814  -16.7022   26.5268 C.3     1  UNL1        0.0044
     34 C          -6.9212  -15.9509   24.6782 C.3     1  UNL1        0.0044
     35 C         -12.5507  -15.4513   33.4312 C.3     1  UNL1        0.0051
     36 C         -13.1622  -14.5645   32.3517 C.3     1  UNL1        0.0279
@<TRIPOS>BOND
     1    35    36    1
     2    36     1    1
     3     1     2   ar
     4     2     3   ar
     5     3     4   ar
     6     4    11    1
     7    11    12    1
     8    12    13    1
     9    13    14    1
    10    14    17    1
    11    17    18    1
    12    18    19   ar
    13    19    20   ar
    14    20    21   ar
    15    21    22    1
    16    21    23   ar
    17    14    15    1
    18    15    16    1
    19     4     5   ar
    20     5     6   ar
    21     6     7   ar
    22     7    25    1
    23    25    26   ar
    24    26    27   ar
    25    27    28   ar
    26    28    31    1
    27    31    32    1
    28    31    33    1
    29    31    34    1
    30    28    29   ar
    31    29    30   ar
    32     7     8   ar
    33     8     9   ar
    34     9     1   ar
    35    16    11    1
    36     9     5   ar
    37    23    18   ar
    38    30    25   ar
    39    20    24    1
    40     8    10    1
