@<TRIPOS>MOLECULE
*****
 47 52 0 0 0
SMALL
GASTEIGER

@<TRIPOS>ATOM
      1 C          61.2456   88.1407    9.0704 C.ar    1  UNL1        0.0702
      2 C          61.8778   88.6407   10.2147 C.ar    1  UNL1        0.0191
      3 C          61.9267   87.8784   11.3825 C.ar    1  UNL1        0.0356
      4 C          61.3489   86.5972   11.4006 C.ar    1  UNL1        0.1318
      5 N          60.7668   86.1201   10.2645 N.ar    1  UNL1       -0.2279
      6 C          60.7043   86.8462    9.1172 C.ar    1  UNL1        0.1149
      7 N          61.3796   85.7760   12.5884 N.pl3   1  UNL1       -0.2932
      8 C          62.6546   85.4771   13.2633 C.3     1  UNL1        0.0923
      9 C          62.4327   85.1349   14.7416 C.3     1  UNL1        0.0252
     10 C          61.4209   83.9782   14.9402 C.3     1  UNL1        0.0472
     11 C          60.3291   83.9374   13.8391 C.3     1  UNL1        0.0252
     12 C          60.1180   85.3015   13.1778 C.3     1  UNL1        0.0923
     13 C          62.1448   82.6254   15.0444 C.3     1  UNL1        0.2054
     14 O          61.6697   81.7409   14.0311 O.3     1  UNL1       -0.4755
     15 C          62.3236   81.5043   12.8132 C.ar    1  UNL1        0.1388
     16 C          63.5448   82.1195   12.4810 C.ar    1  UNL1        0.0369
     17 C          64.1551   81.8506   11.2543 C.ar    1  UNL1        0.0033
     18 C          63.5584   80.9700   10.3494 C.ar    1  UNL1        0.0066
     19 C          62.3386   80.3459   10.6642 C.ar    1  UNL1        0.0785
     20 C          61.7303   80.6218   11.9017 C.ar    1  UNL1        0.0433
     21 C          61.7008   79.4118    9.7101 C.2     1  UNL1        0.3381
     22 O          60.4986   79.5728    9.3654 O.2     1  UNL1       -0.2451
     23 O          62.4234   78.3443    9.1832 O.3     1  UNL1       -0.4771
     24 H          61.9963   77.6990    8.5295 H       1  UNL1        0.2954
     25 C          60.1683   88.8788    6.8933 C.2     1  UNL1        0.2839
     26 O          59.0682   88.3360    7.1811 O.2     1  UNL1       -0.2665
     27 N          61.2236   88.9285    7.8675 N.am    1  UNL1       -0.2766
     28 H          61.9837   89.6334    7.7343 H       1  UNL1        0.1553
     29 C          57.8734   89.9578    4.9113 C.3     1  UNL1        0.0345
     30 C          59.3616   90.0564    4.7375 C.ar    1  UNL1        0.0214
     31 C          60.3510   89.5342    5.5824 C.ar    1  UNL1        0.1947
     32 O          61.5405   89.7111    5.0433 O.2     1  UNL1       -0.4492
     33 C          61.3832   90.3412    3.9071 C.ar    1  UNL1        0.1464
     34 C          62.3849   90.6956    3.0135 C.ar    1  UNL1        0.0376
     35 C          62.0158   91.3563    1.8349 C.ar    1  UNL1        0.0043
     36 C          60.6612   91.6781    1.5748 C.ar    1  UNL1        0.0131
     37 C          59.6521   91.3077    2.5097 C.ar    1  UNL1        0.0442
     38 N          58.2776   91.6432    2.2809 N.pl3   1  UNL1       -0.3569
     39 C          60.0578   90.6161    3.6696 C.ar    1  UNL1        0.0466
     40 H          57.9131   91.7975    1.3152 H       1  UNL1        0.1424
     41 H          57.6376   91.8610    3.0738 H       1  UNL1        0.1424
     42 C          60.3423   92.4417    0.3474 C.ar    1  UNL1        0.0012
     43 C          59.0164   92.8181    0.0742 C.ar    1  UNL1        0.0000
     44 C          58.7103   93.5223   -1.0944 C.ar    1  UNL1        0.0000
     45 C          59.7222   93.8478   -2.0018 C.ar    1  UNL1        0.0000
     46 C          61.0416   93.4662   -1.7438 C.ar    1  UNL1        0.0000
     47 C          61.3522   92.7618   -0.5766 C.ar    1  UNL1        0.0000
@<TRIPOS>BOND
     1    29    30    1
     2    30    31   ar
     3    31    25    1
     4    25    26    2
     5    25    27   am
     6    27     1    1
     7     1     2   ar
     8     2     3   ar
     9     3     4   ar
    10     4     7    1
    11     7     8    1
    12     8     9    1
    13     9    10    1
    14    10    13    1
    15    13    14    1
    16    14    15    1
    17    15    16   ar
    18    16    17   ar
    19    17    18   ar
    20    18    19   ar
    21    19    21    1
    22    21    22    2
    23    21    23    1
    24    19    20   ar
    25    10    11    1
    26    11    12    1
    27     4     5   ar
    28     5     6   ar
    29    31    32   ar
    30    32    33   ar
    31    33    34   ar
    32    34    35   ar
    33    35    36   ar
    34    36    42    1
    35    42    43   ar
    36    43    44   ar
    37    44    45   ar
    38    45    46   ar
    39    46    47   ar
    40    36    37   ar
    41    37    38    1
    42    37    39   ar
    43    39    30   ar
    44     6     1   ar
    45    39    33   ar
    46    12     7    1
    47    47    42   ar
    48    20    15   ar
    49    27    28    1
    50    23    24    1
    51    38    40    1
    52    38    41    1
@<TRIPOS>MOLECULE
*****
 47 52 0 0 0
SMALL
GASTEIGER

@<TRIPOS>ATOM
      1 C          61.4544   87.7904    9.1289 C.ar    1  UNL1        0.0702
      2 C          61.6730   88.3790   10.3799 C.ar    1  UNL1        0.0191
      3 C          61.8088   87.5839   11.5186 C.ar    1  UNL1        0.0356
      4 C          61.7388   86.1849   11.4015 C.ar    1  UNL1        0.1318
      5 N          61.5567   85.6346   10.1681 N.ar    1  UNL1       -0.2279
      6 C          61.4182   86.3894    9.0463 C.ar    1  UNL1        0.1149
      7 N          61.8761   85.3268   12.5551 N.pl3   1  UNL1       -0.2932
      8 C          63.1136   84.5590   12.7783 C.3     1  UNL1        0.0923
      9 C          63.2941   84.2172   14.2623 C.3     1  UNL1        0.0252
     10 C          62.0709   83.4736   14.8557 C.3     1  UNL1        0.0472
     11 C          60.7328   83.8884   14.1898 C.3     1  UNL1        0.0252
     12 C          60.8032   85.2819   13.5605 C.3     1  UNL1        0.0923
     13 C          62.2672   81.9498   14.7883 C.3     1  UNL1        0.2054
     14 O          61.0893   81.3306   14.2746 O.3     1  UNL1       -0.4755
     15 C          61.0117   80.6764   13.0365 C.ar    1  UNL1        0.1388
     16 C          62.0430   80.7446   12.0815 C.ar    1  UNL1        0.0369
     17 C          61.9161   80.0750   10.8628 C.ar    1  UNL1        0.0033
     18 C          60.7661   79.3336   10.5834 C.ar    1  UNL1        0.0066
     19 C          59.7255   79.2539   11.5255 C.ar    1  UNL1        0.0785
     20 C          59.8609   79.9310   12.7506 C.ar    1  UNL1        0.0433
     21 C          58.5041   78.4703   11.2361 C.2     1  UNL1        0.3381
     22 O          58.3085   77.3602   11.8014 O.2     1  UNL1       -0.2451
     23 O          57.5579   78.9520   10.3352 O.3     1  UNL1       -0.4771
     24 H          56.7184   78.4235   10.1299 H       1  UNL1        0.2954
     25 C          60.2232   88.5879    7.0569 C.2     1  UNL1        0.2839
     26 O          59.1539   88.0135    7.3951 O.2     1  UNL1       -0.2665
     27 N          61.3396   88.6219    7.9612 N.am    1  UNL1       -0.2766
     28 H          62.0772   89.3458    7.8058 H       1  UNL1        0.1553
     29 C          57.7819   89.5666    5.2018 C.3     1  UNL1        0.0345
     30 C          59.2517   89.7735    4.9748 C.ar    1  UNL1        0.0214
     31 C          60.3077   89.2951    5.7630 C.ar    1  UNL1        0.1947
     32 O          61.4596   89.5709    5.1852 O.2     1  UNL1       -0.4492
     33 C          61.2139   90.2237    4.0779 C.ar    1  UNL1        0.1464
     34 C          62.1522   90.6745    3.1593 C.ar    1  UNL1        0.0376
     35 C          61.6917   91.3445    2.0188 C.ar    1  UNL1        0.0043
     36 C          60.3089   91.5796    1.8217 C.ar    1  UNL1        0.0131
     37 C          59.3660   91.1110    2.7813 C.ar    1  UNL1        0.0442
     38 N          57.9637   91.3574    2.6167 N.pl3   1  UNL1       -0.3569
     39 C          59.8644   90.4133    3.9007 C.ar    1  UNL1        0.0466
     40 H          57.5507   91.5161    1.6714 H       1  UNL1        0.1424
     41 H          57.3429   91.5054    3.4404 H       1  UNL1        0.1424
     42 C          59.8894   92.3573    0.6340 C.ar    1  UNL1        0.0012
     43 C          58.5573   92.3050    0.1900 C.ar    1  UNL1        0.0000
     44 C          58.1635   93.0233   -0.9433 C.ar    1  UNL1        0.0000
     45 C          59.0967   93.7907   -1.6457 C.ar    1  UNL1        0.0000
     46 C          60.4264   93.8380   -1.2182 C.ar    1  UNL1        0.0000
     47 C          60.8245   93.1213   -0.0856 C.ar    1  UNL1        0.0000
@<TRIPOS>BOND
     1    29    30    1
     2    30    31   ar
     3    31    25    1
     4    25    26    2
     5    25    27   am
     6    27     1    1
     7     1     2   ar
     8     2     3   ar
     9     3     4   ar
    10     4     7    1
    11     7     8    1
    12     8     9    1
    13     9    10    1
    14    10    13    1
    15    13    14    1
    16    14    15    1
    17    15    16   ar
    18    16    17   ar
    19    17    18   ar
    20    18    19   ar
    21    19    21    1
    22    21    22    2
    23    21    23    1
    24    19    20   ar
    25    10    11    1
    26    11    12    1
    27     4     5   ar
    28     5     6   ar
    29    31    32   ar
    30    32    33   ar
    31    33    34   ar
    32    34    35   ar
    33    35    36   ar
    34    36    42    1
    35    42    43   ar
    36    43    44   ar
    37    44    45   ar
    38    45    46   ar
    39    46    47   ar
    40    36    37   ar
    41    37    38    1
    42    37    39   ar
    43    39    30   ar
    44     6     1   ar
    45    39    33   ar
    46    12     7    1
    47    47    42   ar
    48    20    15   ar
    49    27    28    1
    50    23    24    1
    51    38    40    1
    52    38    41    1
@<TRIPOS>MOLECULE
*****
 47 52 0 0 0
SMALL
GASTEIGER

@<TRIPOS>ATOM
      1 C          60.4058   89.7360    5.3978 C.ar    1  UNL1        0.0702
      2 C          59.0765   90.0282    5.0708 C.ar    1  UNL1        0.0191
      3 C          58.7759   90.7258    3.9002 C.ar    1  UNL1        0.0356
      4 C          59.8156   91.1229    3.0416 C.ar    1  UNL1        0.1318
      5 N          61.0989   90.7991    3.3663 N.ar    1  UNL1       -0.2279
      6 C          61.4153   90.1237    4.5025 C.ar    1  UNL1        0.1149
      7 N          59.5466   91.8449    1.8200 N.pl3   1  UNL1       -0.2932
      8 C          59.1854   91.1263    0.5856 C.3     1  UNL1        0.0923
      9 C          58.3927   92.0275   -0.3690 C.3     1  UNL1        0.0252
     10 C          59.1359   93.3468   -0.6980 C.3     1  UNL1        0.0472
     11 C          60.0244   93.8454    0.4716 C.3     1  UNL1        0.0252
     12 C          59.5522   93.3160    1.8279 C.3     1  UNL1        0.0923
     13 C          59.9582   93.2079   -1.9901 C.3     1  UNL1        0.2054
     14 O          61.0757   92.3506   -1.7648 O.3     1  UNL1       -0.4755
     15 C          62.3029   92.7694   -1.2304 C.ar    1  UNL1        0.1388
     16 C          63.2666   93.4498   -1.9976 C.ar    1  UNL1        0.0369
     17 C          64.4737   93.8450   -1.4177 C.ar    1  UNL1        0.0033
     18 C          64.7329   93.5680   -0.0736 C.ar    1  UNL1        0.0066
     19 C          63.7818   92.8894    0.7084 C.ar    1  UNL1        0.0785
     20 C          62.5684   92.4948    0.1171 C.ar    1  UNL1        0.0433
     21 C          64.0498   92.5926    2.1331 C.2     1  UNL1        0.3381
     22 O          64.6915   93.4109    2.8463 O.2     1  UNL1       -0.2451
     23 O          63.5951   91.4050    2.7005 O.3     1  UNL1       -0.4771
     24 H          63.7732   91.1921    3.6747 H       1  UNL1        0.2954
     25 C          59.7986   88.0491    7.1952 C.2     1  UNL1        0.2839
     26 O          58.8105   87.6169    6.5436 O.2     1  UNL1       -0.2665
     27 N          60.6981   88.9961    6.5958 N.am    1  UNL1       -0.2766
     28 H          61.6521   89.0993    7.0100 H       1  UNL1        0.1553
     29 C          62.0250   89.0968    9.2699 C.3     1  UNL1        0.0345
     30 C          61.0100   88.0102    9.4790 C.ar    1  UNL1        0.0214
     31 C          60.0808   87.5264    8.5474 C.ar    1  UNL1        0.1947
     32 O          59.4411   86.4891    9.0491 O.2     1  UNL1       -0.4492
     33 C          59.8838   86.2859   10.2637 C.ar    1  UNL1        0.1464
     34 C          59.4900   85.2731   11.1278 C.ar    1  UNL1        0.0376
     35 C          60.0933   85.2095   12.3902 C.ar    1  UNL1        0.0043
     36 C          61.0585   86.1682   12.7845 C.ar    1  UNL1        0.0131
     37 C          61.4426   87.2007   11.8813 C.ar    1  UNL1        0.0442
     38 N          62.3992   88.1966   12.2654 N.pl3   1  UNL1       -0.3569
     39 C          60.8369   87.2141   10.6080 C.ar    1  UNL1        0.0466
     40 H          63.1106   88.0052   13.0046 H       1  UNL1        0.1424
     41 H          62.3332   89.1728   11.9069 H       1  UNL1        0.1424
     42 C          61.6063   86.0919   14.1576 C.ar    1  UNL1        0.0012
     43 C          60.7856   85.6872   15.2239 C.ar    1  UNL1        0.0000
     44 C          61.2957   85.6334   16.5248 C.ar    1  UNL1        0.0000
     45 C          62.6239   85.9911   16.7719 C.ar    1  UNL1        0.0000
     46 C          63.4434   86.4068   15.7189 C.ar    1  UNL1        0.0000
     47 C          62.9374   86.4622   14.4166 C.ar    1  UNL1        0.0000
@<TRIPOS>BOND
     1    29    30    1
     2    30    31   ar
     3    31    25    1
     4    25    26    2
     5    25    27   am
     6    27     1    1
     7     1     2   ar
     8     2     3   ar
     9     3     4   ar
    10     4     7    1
    11     7     8    1
    12     8     9    1
    13     9    10    1
    14    10    13    1
    15    13    14    1
    16    14    15    1
    17    15    16   ar
    18    16    17   ar
    19    17    18   ar
    20    18    19   ar
    21    19    21    1
    22    21    22    2
    23    21    23    1
    24    19    20   ar
    25    10    11    1
    26    11    12    1
    27     4     5   ar
    28     5     6   ar
    29    31    32   ar
    30    32    33   ar
    31    33    34   ar
    32    34    35   ar
    33    35    36   ar
    34    36    42    1
    35    42    43   ar
    36    43    44   ar
    37    44    45   ar
    38    45    46   ar
    39    46    47   ar
    40    36    37   ar
    41    37    38    1
    42    37    39   ar
    43    39    30   ar
    44     6     1   ar
    45    39    33   ar
    46    12     7    1
    47    47    42   ar
    48    20    15   ar
    49    27    28    1
    50    23    24    1
    51    38    40    1
    52    38    41    1
@<TRIPOS>MOLECULE
*****
 47 52 0 0 0
SMALL
GASTEIGER

@<TRIPOS>ATOM
      1 C          59.1039   89.4317    5.5180 C.ar    1  UNL1        0.0702
      2 C          60.3253   89.5742    4.8494 C.ar    1  UNL1        0.0191
      3 C          60.4207   90.3929    3.7234 C.ar    1  UNL1        0.0356
      4 C          59.2852   91.0864    3.2703 C.ar    1  UNL1        0.1318
      5 N          58.1152   90.9558    3.9568 N.ar    1  UNL1       -0.2279
      6 C          57.9982   90.1615    5.0535 C.ar    1  UNL1        0.1149
      7 N          59.3424   91.9447    2.1101 N.pl3   1  UNL1       -0.2932
      8 C          58.8706   91.4684    0.7982 C.3     1  UNL1        0.0923
      9 C          58.4662   92.6403   -0.1046 C.3     1  UNL1        0.0252
     10 C          59.6010   93.6819   -0.2732 C.3     1  UNL1        0.0472
     11 C          60.5103   93.7899    0.9788 C.3     1  UNL1        0.0252
     12 C          59.7991   93.3355    2.2557 C.3     1  UNL1        0.0923
     13 C          60.4344   93.3891   -1.5320 C.3     1  UNL1        0.2054
     14 O          61.0816   92.1246   -1.4029 O.3     1  UNL1       -0.4755
     15 C          62.3587   91.9385   -0.8539 C.ar    1  UNL1        0.1388
     16 C          63.4667   91.5587   -1.6337 C.ar    1  UNL1        0.0369
     17 C          64.7177   91.3858   -1.0381 C.ar    1  UNL1        0.0033
     18 C          64.8779   91.5885    0.3343 C.ar    1  UNL1        0.0066
     19 C          63.7823   91.9685    1.1293 C.ar    1  UNL1        0.0785
     20 C          62.5257   92.1407    0.5219 C.ar    1  UNL1        0.0433
     21 C          63.9448   92.1849    2.5841 C.2     1  UNL1        0.3381
     22 O          64.5218   93.2198    3.0153 O.2     1  UNL1       -0.2451
     23 O          63.4614   91.2462    3.4919 O.3     1  UNL1       -0.4771
     24 H          63.5675   91.3846    4.4898 H       1  UNL1        0.2954
     25 C          60.1479   88.3025    7.5379 C.2     1  UNL1        0.2839
     26 O          61.2078   88.9776    7.4456 O.2     1  UNL1       -0.2665
     27 N          59.0266   88.6028    6.6906 N.am    1  UNL1       -0.2766
     28 H          58.0830   88.2623    6.9837 H       1  UNL1        0.1553
     29 C          59.7188   85.1469    7.0718 C.3     1  UNL1        0.0345
     30 C          59.8933   85.8700    8.3762 C.ar    1  UNL1        0.0214
     31 C          60.0254   87.2522    8.5691 C.ar    1  UNL1        0.1947
     32 O          60.0350   87.5264    9.8581 O.2     1  UNL1       -0.4492
     33 C          59.9418   86.3986   10.5153 C.ar    1  UNL1        0.1464
     34 C          59.8892   86.2481   11.8944 C.ar    1  UNL1        0.0376
     35 C          59.7731   84.9525   12.4139 C.ar    1  UNL1        0.0043
     36 C          59.7378   83.8254   11.5569 C.ar    1  UNL1        0.0131
     37 C          59.7979   84.0058   10.1451 C.ar    1  UNL1        0.0442
     38 N          59.7883   82.8800    9.2580 N.pl3   1  UNL1       -0.3569
     39 C          59.8828   85.3262    9.6579 C.ar    1  UNL1        0.0466
     40 H          59.3608   81.9717    9.5431 H       1  UNL1        0.1424
     41 H          60.3123   82.8999    8.3575 H       1  UNL1        0.1424
     42 C          59.6883   82.4779   12.1679 C.ar    1  UNL1        0.0012
     43 C          60.8252   81.9470   12.8002 C.ar    1  UNL1        0.0000
     44 C          60.7865   80.6664   13.3607 C.ar    1  UNL1        0.0000
     45 C          59.6175   79.9042   13.2864 C.ar    1  UNL1        0.0000
     46 C          58.4862   80.4198   12.6482 C.ar    1  UNL1        0.0000
     47 C          58.5205   81.6997   12.0863 C.ar    1  UNL1        0.0000
@<TRIPOS>BOND
     1    29    30    1
     2    30    31   ar
     3    31    25    1
     4    25    26    2
     5    25    27   am
     6    27     1    1
     7     1     2   ar
     8     2     3   ar
     9     3     4   ar
    10     4     7    1
    11     7     8    1
    12     8     9    1
    13     9    10    1
    14    10    13    1
    15    13    14    1
    16    14    15    1
    17    15    16   ar
    18    16    17   ar
    19    17    18   ar
    20    18    19   ar
    21    19    21    1
    22    21    22    2
    23    21    23    1
    24    19    20   ar
    25    10    11    1
    26    11    12    1
    27     4     5   ar
    28     5     6   ar
    29    31    32   ar
    30    32    33   ar
    31    33    34   ar
    32    34    35   ar
    33    35    36   ar
    34    36    42    1
    35    42    43   ar
    36    43    44   ar
    37    44    45   ar
    38    45    46   ar
    39    46    47   ar
    40    36    37   ar
    41    37    38    1
    42    37    39   ar
    43    39    30   ar
    44     6     1   ar
    45    39    33   ar
    46    12     7    1
    47    47    42   ar
    48    20    15   ar
    49    27    28    1
    50    23    24    1
    51    38    40    1
    52    38    41    1
