@<TRIPOS>MOLECULE
*****
 47 52 0 0 0
SMALL
GASTEIGER

@<TRIPOS>ATOM
      1 C          10.3230   80.5276   24.5188 C.ar    1  UNL1        0.0702
      2 C          10.0499   80.2203   25.8567 C.ar    1  UNL1        0.0191
      3 C           9.2532   79.1207   26.1787 C.ar    1  UNL1        0.0356
      4 C           8.7082   78.3328   25.1501 C.ar    1  UNL1        0.1318
      5 N           8.9716   78.6647   23.8548 N.ar    1  UNL1       -0.2279
      6 C           9.7484   79.7280   23.5181 C.ar    1  UNL1        0.1149
      7 N           7.8806   77.1851   25.4405 N.pl3   1  UNL1       -0.2932
      8 C           6.6948   77.3118   26.3056 C.3     1  UNL1        0.0923
      9 C           5.6791   76.1983   26.0219 C.3     1  UNL1        0.0252
     10 C           6.2983   74.7827   26.1389 C.3     1  UNL1        0.0472
     11 C           7.7967   74.7458   25.7389 C.3     1  UNL1        0.0252
     12 C           8.1775   75.8940   24.8011 C.3     1  UNL1        0.0923
     13 C           6.0935   74.2072   27.5503 C.3     1  UNL1        0.2054
     14 O           7.1431   74.6461   28.4108 O.3     1  UNL1       -0.4755
     15 C           6.9760   75.5517   29.4687 C.ar    1  UNL1        0.1388
     16 C           5.9533   75.4142   30.4246 C.ar    1  UNL1        0.0369
     17 C           5.8331   76.3418   31.4608 C.ar    1  UNL1        0.0033
     18 C           6.7223   77.4149   31.5534 C.ar    1  UNL1        0.0066
     19 C           7.7447   77.5756   30.6014 C.ar    1  UNL1        0.0785
     20 C           7.8655   76.6287   29.5673 C.ar    1  UNL1        0.0433
     21 C           8.7015   78.7061   30.6859 C.2     1  UNL1        0.3381
     22 O           9.3480   78.8995   31.7498 O.2     1  UNL1       -0.2451
     23 O           8.9232   79.5635   29.6087 O.3     1  UNL1       -0.4771
     24 H           8.5187   79.4075   28.6948 H       1  UNL1        0.2954
     25 C          12.0526   82.2873   25.1164 C.2     1  UNL1        0.2839
     26 O          12.0201   81.9953   26.3420 O.2     1  UNL1       -0.2665
     27 N          11.1274   81.6767   24.2022 N.am    1  UNL1       -0.2766
     28 H          10.9667   82.1449   23.2816 H       1  UNL1        0.1553
     29 C          13.9187   84.1991   26.8874 C.3     1  UNL1        0.0345
     30 C          13.8330   84.1257   25.3926 C.ar    1  UNL1        0.0202
     31 C          13.0161   83.2898   24.6229 C.ar    1  UNL1        0.1946
     32 O          13.2231   83.5143   23.3375 O.2     1  UNL1       -0.4492
     33 C          14.1317   84.4531   23.2337 C.ar    1  UNL1        0.1452
     34 C          14.6522   84.9981   22.0652 C.ar    1  UNL1        0.0375
     35 C          15.6286   86.0022   22.1831 C.ar    1  UNL1        0.0031
     36 C          16.0681   86.4447   23.4600 C.ar    1  UNL1        0.0002
     37 C          15.5120   85.8639   24.6250 C.ar    1  UNL1        0.0028
     38 C          14.5446   84.8696   24.4709 C.ar    1  UNL1        0.0337
     39 C          17.1007   87.5061   23.5718 C.ar    1  UNL1       -0.0002
     40 C          17.3627   88.1197   24.8101 C.ar    1  UNL1       -0.0000
     41 C          18.3401   89.1120   24.9154 C.ar    1  UNL1       -0.0002
     42 C          19.0642   89.5075   23.7892 C.ar    1  UNL1       -0.0019
     43 C          18.8068   88.9195   22.5422 C.ar    1  UNL1        0.0070
     44 C          17.8353   87.9106   22.4414 C.ar    1  UNL1       -0.0019
     45 C          19.6136   89.3149   21.3393 C.3     1  UNL1        0.1636
     46 O          19.3814   88.4003   20.3054 O.3     1  UNL1       -0.3772
     47 H          19.9328   88.7057   19.5388 H       1  UNL1        0.2109
@<TRIPOS>BOND
     1    29    30    1
     2    30    31   ar
     3    31    25    1
     4    25    26    2
     5    25    27   am
     6    27     1    1
     7     1     2   ar
     8     2     3   ar
     9     3     4   ar
    10     4     7    1
    11     7     8    1
    12     8     9    1
    13     9    10    1
    14    10    13    1
    15    13    14    1
    16    14    15    1
    17    15    16   ar
    18    16    17   ar
    19    17    18   ar
    20    18    19   ar
    21    19    21    1
    22    21    22    2
    23    21    23    1
    24    19    20   ar
    25    10    11    1
    26    11    12    1
    27     4     5   ar
    28     5     6   ar
    29    31    32   ar
    30    32    33   ar
    31    33    34   ar
    32    34    35   ar
    33    35    36   ar
    34    36    39    1
    35    39    40   ar
    36    40    41   ar
    37    41    42   ar
    38    42    43   ar
    39    43    45    1
    40    45    46    1
    41    43    44   ar
    42    36    37   ar
    43    37    38   ar
    44    38    30   ar
    45     6     1   ar
    46    38    33   ar
    47    12     7    1
    48    44    39   ar
    49    20    15   ar
    50    27    28    1
    51    23    24    1
    52    46    47    1
@<TRIPOS>MOLECULE
*****
 47 52 0 0 0
SMALL
GASTEIGER

@<TRIPOS>ATOM
      1 C           9.9473   79.7773   24.0855 C.ar    1  UNL1        0.0702
      2 C           9.7024   78.7788   25.0352 C.ar    1  UNL1        0.0191
      3 C           8.9827   77.6354   24.6858 C.ar    1  UNL1        0.0356
      4 C           8.4861   77.4998   23.3778 C.ar    1  UNL1        0.1318
      5 N           8.7201   78.4953   22.4770 N.ar    1  UNL1       -0.2279
      6 C           9.4223   79.6151   22.7937 C.ar    1  UNL1        0.1149
      7 N           7.7387   76.3313   22.9749 N.pl3   1  UNL1       -0.2932
      8 C           8.0079   75.6738   21.6842 C.3     1  UNL1        0.0923
      9 C           7.5678   74.2048   21.7071 C.3     1  UNL1        0.0252
     10 C           6.0825   74.0339   22.1137 C.3     1  UNL1        0.0472
     11 C           5.6003   75.1246   23.1058 C.3     1  UNL1        0.0252
     12 C           6.7550   75.7435   23.8972 C.3     1  UNL1        0.0923
     13 C           5.1747   73.9812   20.8735 C.3     1  UNL1        0.2054
     14 O           4.3737   75.1597   20.8075 O.3     1  UNL1       -0.4755
     15 C           4.5038   76.1543   19.8273 C.ar    1  UNL1        0.1388
     16 C           3.7361   76.1566   18.6487 C.ar    1  UNL1        0.0369
     17 C           3.9019   77.1728   17.7061 C.ar    1  UNL1        0.0033
     18 C           4.8338   78.1904   17.9227 C.ar    1  UNL1        0.0066
     19 C           5.6184   78.1997   19.0896 C.ar    1  UNL1        0.0785
     20 C           5.4356   77.1778   20.0399 C.ar    1  UNL1        0.0433
     21 C           6.6098   79.2747   19.3395 C.2     1  UNL1        0.3381
     22 O           7.1479   79.8670   18.3666 O.2     1  UNL1       -0.2451
     23 O           6.9590   79.6665   20.6315 O.3     1  UNL1       -0.4771
     24 H           6.4936   79.3082   21.4551 H       1  UNL1        0.2954
     25 C          12.1018   81.0227   24.5884 C.2     1  UNL1        0.2839
     26 O          12.7840   79.9631   24.6123 O.2     1  UNL1       -0.2665
     27 N          10.6715   80.9598   24.4665 N.am    1  UNL1       -0.2766
     28 H          10.1178   81.7988   24.7529 H       1  UNL1        0.1553
     29 C          13.1788   82.3577   27.2961 C.3     1  UNL1        0.0345
     30 C          13.2406   82.9176   25.9068 C.ar    1  UNL1        0.0202
     31 C          12.7683   82.3316   24.7270 C.ar    1  UNL1        0.1946
     32 O          13.0052   83.1286   23.7002 O.2     1  UNL1       -0.4492
     33 C          13.6061   84.2015   24.1532 C.ar    1  UNL1        0.1452
     34 C          14.0389   85.3000   23.4188 C.ar    1  UNL1        0.0375
     35 C          14.6674   86.3501   24.1101 C.ar    1  UNL1        0.0031
     36 C          14.8531   86.2876   25.5176 C.ar    1  UNL1        0.0002
     37 C          14.3971   85.1511   26.2278 C.ar    1  UNL1        0.0028
     38 C          13.7773   84.1274   25.5096 C.ar    1  UNL1        0.0337
     39 C          15.5188   87.4032   26.2368 C.ar    1  UNL1       -0.0002
     40 C          14.9214   87.9773   27.3734 C.ar    1  UNL1       -0.0000
     41 C          15.5528   89.0210   28.0539 C.ar    1  UNL1       -0.0002
     42 C          16.7832   89.5076   27.6084 C.ar    1  UNL1       -0.0019
     43 C          17.3878   88.9597   26.4676 C.ar    1  UNL1        0.0070
     44 C          16.7594   87.8995   25.7944 C.ar    1  UNL1       -0.0019
     45 C          18.7302   89.4544   26.0123 C.3     1  UNL1        0.1636
     46 O          19.2493   88.5718   25.0580 O.3     1  UNL1       -0.3772
     47 H          20.1301   88.9426   24.7905 H       1  UNL1        0.2109
@<TRIPOS>BOND
     1    29    30    1
     2    30    31   ar
     3    31    25    1
     4    25    26    2
     5    25    27   am
     6    27     1    1
     7     1     2   ar
     8     2     3   ar
     9     3     4   ar
    10     4     7    1
    11     7     8    1
    12     8     9    1
    13     9    10    1
    14    10    13    1
    15    13    14    1
    16    14    15    1
    17    15    16   ar
    18    16    17   ar
    19    17    18   ar
    20    18    19   ar
    21    19    21    1
    22    21    22    2
    23    21    23    1
    24    19    20   ar
    25    10    11    1
    26    11    12    1
    27     4     5   ar
    28     5     6   ar
    29    31    32   ar
    30    32    33   ar
    31    33    34   ar
    32    34    35   ar
    33    35    36   ar
    34    36    39    1
    35    39    40   ar
    36    40    41   ar
    37    41    42   ar
    38    42    43   ar
    39    43    45    1
    40    45    46    1
    41    43    44   ar
    42    36    37   ar
    43    37    38   ar
    44    38    30   ar
    45     6     1   ar
    46    38    33   ar
    47    12     7    1
    48    44    39   ar
    49    20    15   ar
    50    27    28    1
    51    23    24    1
    52    46    47    1
@<TRIPOS>MOLECULE
*****
 47 52 0 0 0
SMALL
GASTEIGER

@<TRIPOS>ATOM
      1 C          13.1416   82.6548   25.3203 C.ar    1  UNL1        0.0702
      2 C          13.0664   83.5940   24.2854 C.ar    1  UNL1        0.0191
      3 C          13.6081   84.8695   24.4506 C.ar    1  UNL1        0.0356
      4 C          14.2134   85.2143   25.6715 C.ar    1  UNL1        0.1318
      5 N          14.2557   84.2891   26.6713 N.ar    1  UNL1       -0.2279
      6 C          13.7389   83.0399   26.5310 C.ar    1  UNL1        0.1149
      7 N          14.7880   86.5226   25.8826 N.pl3   1  UNL1       -0.2932
      8 C          15.2626   87.3288   24.7444 C.3     1  UNL1        0.0923
      9 C          15.2774   88.8229   25.0902 C.3     1  UNL1        0.0252
     10 C          16.1011   89.1312   26.3658 C.3     1  UNL1        0.0472
     11 C          16.0627   87.9769   27.4013 C.3     1  UNL1        0.0252
     12 C          14.8257   87.0901   27.2392 C.3     1  UNL1        0.0923
     13 C          17.5510   89.4997   26.0092 C.3     1  UNL1        0.2054
     14 O          18.0864   88.5398   25.0999 O.3     1  UNL1       -0.4755
     15 C          18.3474   88.7893   23.7446 C.ar    1  UNL1        0.1388
     16 C          19.6543   88.8922   23.2349 C.ar    1  UNL1        0.0369
     17 C          19.8595   89.1380   21.8762 C.ar    1  UNL1        0.0033
     18 C          18.7706   89.2890   21.0146 C.ar    1  UNL1        0.0066
     19 C          17.4564   89.2004   21.5069 C.ar    1  UNL1        0.0785
     20 C          17.2595   88.9402   22.8760 C.ar    1  UNL1        0.0433
     21 C          16.2874   89.3532   20.6065 C.2     1  UNL1        0.3381
     22 O          15.1249   89.3824   21.0910 O.2     1  UNL1       -0.2451
     23 O          16.4351   89.4821   19.2258 O.3     1  UNL1       -0.4771
     24 H          17.3385   89.5704   18.7795 H       1  UNL1        0.2954
     25 C          11.1457   81.1064   25.0663 C.2     1  UNL1        0.2839
     26 O          10.3266   82.0015   25.4075 O.2     1  UNL1       -0.2665
     27 N          12.5594   81.3520   25.1429 N.am    1  UNL1       -0.2766
     28 H          13.2004   80.5264   25.1550 H       1  UNL1        0.1553
     29 C          12.9135   78.5152   24.4073 C.3     1  UNL1        0.0345
     30 C          11.4224   78.6534   24.3372 C.ar    1  UNL1        0.0202
     31 C          10.6543   79.7871   24.6251 C.ar    1  UNL1        0.1946
     32 O           9.3722   79.5211   24.4491 O.2     1  UNL1       -0.4492
     33 C           9.2691   78.2735   24.0614 C.ar    1  UNL1        0.1452
     34 C           8.1037   77.5757   23.7640 C.ar    1  UNL1        0.0375
     35 C           8.2218   76.2329   23.3656 C.ar    1  UNL1        0.0031
     36 C           9.4958   75.6105   23.2706 C.ar    1  UNL1        0.0002
     37 C          10.6576   76.3568   23.5819 C.ar    1  UNL1        0.0028
     38 C          10.5035   77.6875   23.9737 C.ar    1  UNL1        0.0337
     39 C           9.6077   74.1911   22.8490 C.ar    1  UNL1       -0.0002
     40 C           8.5199   73.3127   23.0028 C.ar    1  UNL1       -0.0000
     41 C           8.6237   71.9799   22.5980 C.ar    1  UNL1       -0.0002
     42 C           9.8123   71.5056   22.0400 C.ar    1  UNL1       -0.0019
     43 C          10.9139   72.3611   21.8931 C.ar    1  UNL1        0.0070
     44 C          10.8023   73.7048   22.2854 C.ar    1  UNL1       -0.0019
     45 C          12.1782   71.8625   21.2551 C.3     1  UNL1        0.1636
     46 O          12.9307   72.9534   20.8047 O.3     1  UNL1       -0.3772
     47 H          13.7506   72.5721   20.3958 H       1  UNL1        0.2109
@<TRIPOS>BOND
     1    29    30    1
     2    30    31   ar
     3    31    25    1
     4    25    26    2
     5    25    27   am
     6    27     1    1
     7     1     2   ar
     8     2     3   ar
     9     3     4   ar
    10     4     7    1
    11     7     8    1
    12     8     9    1
    13     9    10    1
    14    10    13    1
    15    13    14    1
    16    14    15    1
    17    15    16   ar
    18    16    17   ar
    19    17    18   ar
    20    18    19   ar
    21    19    21    1
    22    21    22    2
    23    21    23    1
    24    19    20   ar
    25    10    11    1
    26    11    12    1
    27     4     5   ar
    28     5     6   ar
    29    31    32   ar
    30    32    33   ar
    31    33    34   ar
    32    34    35   ar
    33    35    36   ar
    34    36    39    1
    35    39    40   ar
    36    40    41   ar
    37    41    42   ar
    38    42    43   ar
    39    43    45    1
    40    45    46    1
    41    43    44   ar
    42    36    37   ar
    43    37    38   ar
    44    38    30   ar
    45     6     1   ar
    46    38    33   ar
    47    12     7    1
    48    44    39   ar
    49    20    15   ar
    50    27    28    1
    51    23    24    1
    52    46    47    1
@<TRIPOS>MOLECULE
*****
 47 52 0 0 0
SMALL
GASTEIGER

@<TRIPOS>ATOM
      1 C          13.0673   82.4353   24.9998 C.ar    1  UNL1        0.0702
      2 C          13.1153   83.4456   24.0323 C.ar    1  UNL1        0.0191
      3 C          13.5860   84.7169   24.3638 C.ar    1  UNL1        0.0356
      4 C          13.9939   84.9847   25.6820 C.ar    1  UNL1        0.1318
      5 N          13.9181   83.9902   26.6108 N.ar    1  UNL1       -0.2279
      6 C          13.4676   82.7438   26.3095 C.ar    1  UNL1        0.1149
      7 N          14.4894   86.2860   26.0659 N.pl3   1  UNL1       -0.2932
      8 C          14.6328   87.3610   25.0687 C.3     1  UNL1        0.0923
      9 C          14.5983   88.7428   25.7330 C.3     1  UNL1        0.0252
     10 C          15.6537   88.8898   26.8579 C.3     1  UNL1        0.0472
     11 C          15.9408   87.5542   27.5927 C.3     1  UNL1        0.0252
     12 C          14.7771   86.5663   27.4810 C.3     1  UNL1        0.0923
     13 C          16.9536   89.5076   26.3158 C.3     1  UNL1        0.2054
     14 O          17.6815   88.5321   25.5719 O.3     1  UNL1       -0.4755
     15 C          17.9998   88.6465   24.2108 C.ar    1  UNL1        0.1388
     16 C          19.2008   89.2261   23.7634 C.ar    1  UNL1        0.0369
     17 C          19.4710   89.3123   22.3966 C.ar    1  UNL1        0.0033
     18 C          18.5502   88.8296   21.4639 C.ar    1  UNL1        0.0066
     19 C          17.3391   88.2567   21.8910 C.ar    1  UNL1        0.0785
     20 C          17.0809   88.1631   23.2713 C.ar    1  UNL1        0.0433
     21 C          16.3510   87.7342   20.9156 C.2     1  UNL1        0.3381
     22 O          15.6914   88.5371   20.2033 O.2     1  UNL1       -0.2451
     23 O          16.1360   86.3666   20.7481 O.3     1  UNL1       -0.4771
     24 H          16.7001   85.6649   21.2094 H       1  UNL1        0.2954
     25 C          11.4398   80.5092   25.2948 C.2     1  UNL1        0.2839
     26 O          10.9993   80.9641   26.3846 O.2     1  UNL1       -0.2665
     27 N          12.5591   81.1368   24.6484 N.am    1  UNL1       -0.2766
     28 H          13.0886   80.5828   23.9376 H       1  UNL1        0.1553
     29 C           9.1495   80.4143   23.0544 C.3     1  UNL1        0.0345
     30 C           9.8324   79.2582   23.7211 C.ar    1  UNL1        0.0202
     31 C          10.8317   79.3039   24.6997 C.ar    1  UNL1        0.1946
     32 O          11.1857   78.0779   25.0420 O.2     1  UNL1       -0.4492
     33 C          10.4671   77.2393   24.3363 C.ar    1  UNL1        0.1452
     34 C          10.5123   75.8501   24.3740 C.ar    1  UNL1        0.0375
     35 C           9.6485   75.1382   23.5239 C.ar    1  UNL1        0.0031
     36 C           8.7568   75.8214   22.6534 C.ar    1  UNL1        0.0002
     37 C           8.7420   77.2368   22.6465 C.ar    1  UNL1        0.0028
     38 C           9.6129   77.9113   23.5036 C.ar    1  UNL1        0.0337
     39 C           7.8491   75.0583   21.7596 C.ar    1  UNL1       -0.0002
     40 C           7.9947   73.6668   21.6135 C.ar    1  UNL1       -0.0000
     41 C           7.1349   72.9491   20.7789 C.ar    1  UNL1       -0.0002
     42 C           6.1239   73.6084   20.0774 C.ar    1  UNL1       -0.0019
     43 C           5.9722   74.9976   20.1967 C.ar    1  UNL1        0.0070
     44 C           6.8271   75.7152   21.0489 C.ar    1  UNL1       -0.0019
     45 C           4.8594   75.7011   19.4751 C.3     1  UNL1        0.1636
     46 O           4.7826   75.2209   18.1626 O.3     1  UNL1       -0.3772
     47 H           4.0359   75.7133   17.7326 H       1  UNL1        0.2109
@<TRIPOS>BOND
     1    29    30    1
     2    30    31   ar
     3    31    25    1
     4    25    26    2
     5    25    27   am
     6    27     1    1
     7     1     2   ar
     8     2     3   ar
     9     3     4   ar
    10     4     7    1
    11     7     8    1
    12     8     9    1
    13     9    10    1
    14    10    13    1
    15    13    14    1
    16    14    15    1
    17    15    16   ar
    18    16    17   ar
    19    17    18   ar
    20    18    19   ar
    21    19    21    1
    22    21    22    2
    23    21    23    1
    24    19    20   ar
    25    10    11    1
    26    11    12    1
    27     4     5   ar
    28     5     6   ar
    29    31    32   ar
    30    32    33   ar
    31    33    34   ar
    32    34    35   ar
    33    35    36   ar
    34    36    39    1
    35    39    40   ar
    36    40    41   ar
    37    41    42   ar
    38    42    43   ar
    39    43    45    1
    40    45    46    1
    41    43    44   ar
    42    36    37   ar
    43    37    38   ar
    44    38    30   ar
    45     6     1   ar
    46    38    33   ar
    47    12     7    1
    48    44    39   ar
    49    20    15   ar
    50    27    28    1
    51    23    24    1
    52    46    47    1
@<TRIPOS>MOLECULE
*****
 47 52 0 0 0
SMALL
GASTEIGER

@<TRIPOS>ATOM
      1 C          13.1780   83.1046   25.1187 C.ar    1  UNL1        0.0702
      2 C          13.5560   84.2188   25.8766 C.ar    1  UNL1        0.0191
      3 C          14.1227   85.3334   25.2568 C.ar    1  UNL1        0.0356
      4 C          14.3312   85.3240   23.8667 C.ar    1  UNL1        0.1318
      5 N          13.9738   84.2190   23.1536 N.ar    1  UNL1       -0.2279
      6 C          13.4163   83.1245   23.7354 C.ar    1  UNL1        0.1149
      7 N          14.9126   86.4577   23.1862 N.pl3   1  UNL1       -0.2932
      8 C          14.0561   87.4802   22.5605 C.3     1  UNL1        0.0923
      9 C          14.7949   88.8176   22.4275 C.3     1  UNL1        0.0252
     10 C          16.1384   88.6833   21.6673 C.3     1  UNL1        0.0472
     11 C          16.8191   87.3066   21.8859 C.3     1  UNL1        0.0252
     12 C          16.3727   86.6364   23.1875 C.3     1  UNL1        0.0923
     13 C          15.9538   88.9716   20.1680 C.3     1  UNL1        0.2054
     14 O          14.6131   88.6786   19.7786 O.3     1  UNL1       -0.4755
     15 C          14.1523   87.4049   19.4149 C.ar    1  UNL1        0.1388
     16 C          12.7833   87.0884   19.3500 C.ar    1  UNL1        0.0369
     17 C          12.3773   85.8055   18.9785 C.ar    1  UNL1        0.0033
     18 C          13.3256   84.8262   18.6741 C.ar    1  UNL1        0.0066
     19 C          14.6990   85.1200   18.7437 C.ar    1  UNL1        0.0785
     20 C          15.0985   86.4195   19.1074 C.ar    1  UNL1        0.0433
     21 C          15.7207   84.0945   18.4195 C.2     1  UNL1        0.3381
     22 O          16.3732   84.1802   17.3453 O.2     1  UNL1       -0.2451
     23 O          15.9970   83.0340   19.2819 O.3     1  UNL1       -0.4771
     24 H          15.5876   82.9594   20.2039 H       1  UNL1        0.2954
     25 C          11.3701   81.3445   25.4000 C.2     1  UNL1        0.2839
     26 O          10.5745   81.9463   24.6297 O.2     1  UNL1       -0.2665
     27 N          12.6156   81.9550   25.7746 N.am    1  UNL1       -0.2766
     28 H          13.1012   81.5950   26.6273 H       1  UNL1        0.1553
     29 C           9.9213   80.7649   28.1998 C.3     1  UNL1        0.0345
     30 C          10.3720   79.7689   27.1740 C.ar    1  UNL1        0.0202
     31 C          11.0051   80.0261   25.9528 C.ar    1  UNL1        0.1946
     32 O          11.2463   78.8913   25.3207 O.2     1  UNL1       -0.4492
     33 C          10.8027   77.9111   26.0692 C.ar    1  UNL1        0.1452
     34 C          10.8486   76.5496   25.7910 C.ar    1  UNL1        0.0375
     35 C          10.3087   75.6636   26.7393 C.ar    1  UNL1        0.0031
     36 C           9.7342   76.1485   27.9452 C.ar    1  UNL1        0.0002
     37 C           9.7080   77.5425   28.1898 C.ar    1  UNL1        0.0028
     38 C          10.2531   78.3932   27.2269 C.ar    1  UNL1        0.0337
     39 C           9.1665   75.2026   28.9392 C.ar    1  UNL1       -0.0002
     40 C           9.9678   74.1932   29.5029 C.ar    1  UNL1       -0.0000
     41 C           9.4349   73.3095   30.4440 C.ar    1  UNL1       -0.0002
     42 C           8.0979   73.4176   30.8313 C.ar    1  UNL1       -0.0019
     43 C           7.2779   74.4068   30.2691 C.ar    1  UNL1        0.0070
     44 C           7.8198   75.3048   29.3353 C.ar    1  UNL1       -0.0019
     45 C           5.8516   74.5498   30.7157 C.3     1  UNL1        0.1636
     46 O           5.7131   75.7334   31.4500 O.3     1  UNL1       -0.3772
     47 H           4.7589   75.7808   31.7182 H       1  UNL1        0.2109
@<TRIPOS>BOND
     1    29    30    1
     2    30    31   ar
     3    31    25    1
     4    25    26    2
     5    25    27   am
     6    27     1    1
     7     1     2   ar
     8     2     3   ar
     9     3     4   ar
    10     4     7    1
    11     7     8    1
    12     8     9    1
    13     9    10    1
    14    10    13    1
    15    13    14    1
    16    14    15    1
    17    15    16   ar
    18    16    17   ar
    19    17    18   ar
    20    18    19   ar
    21    19    21    1
    22    21    22    2
    23    21    23    1
    24    19    20   ar
    25    10    11    1
    26    11    12    1
    27     4     5   ar
    28     5     6   ar
    29    31    32   ar
    30    32    33   ar
    31    33    34   ar
    32    34    35   ar
    33    35    36   ar
    34    36    39    1
    35    39    40   ar
    36    40    41   ar
    37    41    42   ar
    38    42    43   ar
    39    43    45    1
    40    45    46    1
    41    43    44   ar
    42    36    37   ar
    43    37    38   ar
    44    38    30   ar
    45     6     1   ar
    46    38    33   ar
    47    12     7    1
    48    44    39   ar
    49    20    15   ar
    50    27    28    1
    51    23    24    1
    52    46    47    1
@<TRIPOS>MOLECULE
*****
 47 52 0 0 0
SMALL
GASTEIGER

@<TRIPOS>ATOM
      1 C          12.1682   81.9127   25.2210 C.ar    1  UNL1        0.0702
      2 C          13.0614   82.5545   26.0866 C.ar    1  UNL1        0.0191
      3 C          13.8551   83.6064   25.6270 C.ar    1  UNL1        0.0356
      4 C          13.7678   84.0063   24.2823 C.ar    1  UNL1        0.1318
      5 N          12.9056   83.3520   23.4542 N.ar    1  UNL1       -0.2279
      6 C          12.1199   82.3284   23.8810 C.ar    1  UNL1        0.1149
      7 N          14.5697   85.0917   23.7673 N.pl3   1  UNL1       -0.2932
      8 C          14.6596   86.3711   24.4925 C.3     1  UNL1        0.0923
      9 C          15.9446   87.1256   24.1299 C.3     1  UNL1        0.0252
     10 C          16.0964   87.3452   22.6036 C.3     1  UNL1        0.0472
     11 C          15.4672   86.2017   21.7652 C.3     1  UNL1        0.0252
     12 C          15.3694   84.8907   22.5491 C.3     1  UNL1        0.0923
     13 C          15.5256   88.7103   22.1844 C.3     1  UNL1        0.2054
     14 O          15.4916   88.8061   20.7615 O.3     1  UNL1       -0.4755
     15 C          14.3174   88.8209   19.9946 C.ar    1  UNL1        0.1388
     16 C          13.0368   88.8250   20.5763 C.ar    1  UNL1        0.0369
     17 C          11.8994   88.8438   19.7672 C.ar    1  UNL1        0.0033
     18 C          12.0237   88.8530   18.3761 C.ar    1  UNL1        0.0066
     19 C          13.2951   88.8382   17.7754 C.ar    1  UNL1        0.0785
     20 C          14.4360   88.8316   18.5994 C.ar    1  UNL1        0.0433
     21 C          13.4471   88.8527   16.2998 C.2     1  UNL1        0.3381
     22 O          12.4327   89.0049   15.5685 O.2     1  UNL1       -0.2451
     23 O          14.6929   88.7166   15.6880 O.3     1  UNL1       -0.4771
     24 H          15.5583   88.6943   16.2112 H       1  UNL1        0.2954
     25 C          11.8238   79.4522   25.7435 C.2     1  UNL1        0.2839
     26 O          12.8604   79.1076   25.1147 O.2     1  UNL1       -0.2665
     27 N          11.3732   80.8160   25.7037 N.am    1  UNL1       -0.2766
     28 H          10.3794   81.0116   25.9618 H       1  UNL1        0.1553
     29 C           8.6765   79.5105   26.3475 C.3     1  UNL1        0.0345
     30 C           9.6721   78.4665   26.7554 C.ar    1  UNL1        0.0202
     31 C          11.0460   78.4452   26.4902 C.ar    1  UNL1        0.1946
     32 O          11.5902   77.3600   27.0115 O.2     1  UNL1       -0.4492
     33 C          10.6403   76.6766   27.6017 C.ar    1  UNL1        0.1452
     34 C          10.7655   75.4681   28.2779 C.ar    1  UNL1        0.0375
     35 C           9.6075   74.9028   28.8392 C.ar    1  UNL1        0.0031
     36 C           8.3482   75.5499   28.7174 C.ar    1  UNL1        0.0002
     37 C           8.2644   76.7796   28.0212 C.ar    1  UNL1        0.0028
     38 C           9.4340   77.3122   27.4768 C.ar    1  UNL1        0.0337
     39 C           7.1318   74.9425   29.3144 C.ar    1  UNL1       -0.0002
     40 C           6.7226   75.2934   30.6136 C.ar    1  UNL1       -0.0000
     41 C           5.5735   74.7276   31.1708 C.ar    1  UNL1       -0.0002
     42 C           4.8215   73.8035   30.4430 C.ar    1  UNL1       -0.0019
     43 C           5.2215   73.4281   29.1522 C.ar    1  UNL1        0.0070
     44 C           6.3679   74.0102   28.5875 C.ar    1  UNL1       -0.0019
     45 C           4.3906   72.4659   28.3534 C.3     1  UNL1        0.1636
     46 O           3.6524   71.6574   29.2255 O.3     1  UNL1       -0.3772
     47 H           3.1230   71.0450   28.6513 H       1  UNL1        0.2109
@<TRIPOS>BOND
     1    29    30    1
     2    30    31   ar
     3    31    25    1
     4    25    26    2
     5    25    27   am
     6    27     1    1
     7     1     2   ar
     8     2     3   ar
     9     3     4   ar
    10     4     7    1
    11     7     8    1
    12     8     9    1
    13     9    10    1
    14    10    13    1
    15    13    14    1
    16    14    15    1
    17    15    16   ar
    18    16    17   ar
    19    17    18   ar
    20    18    19   ar
    21    19    21    1
    22    21    22    2
    23    21    23    1
    24    19    20   ar
    25    10    11    1
    26    11    12    1
    27     4     5   ar
    28     5     6   ar
    29    31    32   ar
    30    32    33   ar
    31    33    34   ar
    32    34    35   ar
    33    35    36   ar
    34    36    39    1
    35    39    40   ar
    36    40    41   ar
    37    41    42   ar
    38    42    43   ar
    39    43    45    1
    40    45    46    1
    41    43    44   ar
    42    36    37   ar
    43    37    38   ar
    44    38    30   ar
    45     6     1   ar
    46    38    33   ar
    47    12     7    1
    48    44    39   ar
    49    20    15   ar
    50    27    28    1
    51    23    24    1
    52    46    47    1
@<TRIPOS>MOLECULE
*****
 47 52 0 0 0
SMALL
GASTEIGER

@<TRIPOS>ATOM
      1 C          13.3195   83.2800   25.4261 C.ar    1  UNL1        0.0702
      2 C          13.4324   83.3682   24.0338 C.ar    1  UNL1        0.0191
      3 C          13.9928   84.5013   23.4426 C.ar    1  UNL1        0.0356
      4 C          14.4262   85.5651   24.2527 C.ar    1  UNL1        0.1318
      5 N          14.2865   85.4641   25.6046 N.ar    1  UNL1       -0.2279
      6 C          13.7481   84.3685   26.2021 C.ar    1  UNL1        0.1149
      7 N          15.0138   86.7543   23.6810 N.pl3   1  UNL1       -0.2932
      8 C          14.1644   87.8113   23.1049 C.3     1  UNL1        0.0923
      9 C          14.8876   89.1637   23.0998 C.3     1  UNL1        0.0252
     10 C          16.2581   89.1039   22.3795 C.3     1  UNL1        0.0472
     11 C          16.9510   87.7228   22.5167 C.3     1  UNL1        0.0252
     12 C          16.4703   86.9499   23.7473 C.3     1  UNL1        0.0923
     13 C          16.1207   89.5036   20.9008 C.3     1  UNL1        0.2054
     14 O          16.0659   88.3348   20.0849 O.3     1  UNL1       -0.4755
     15 C          14.8850   87.6600   19.7428 C.ar    1  UNL1        0.1388
     16 C          14.7878   86.2568   19.7547 C.ar    1  UNL1        0.0369
     17 C          13.5871   85.6343   19.4090 C.ar    1  UNL1        0.0033
     18 C          12.4763   86.3983   19.0439 C.ar    1  UNL1        0.0066
     19 C          12.5567   87.8019   19.0155 C.ar    1  UNL1        0.0785
     20 C          13.7678   88.4209   19.3773 C.ar    1  UNL1        0.0433
     21 C          11.3863   88.6303   18.6351 C.2     1  UNL1        0.3381
     22 O          10.4216   88.7542   19.4358 O.2     1  UNL1       -0.2451
     23 O          11.3241   89.2968   17.4117 O.3     1  UNL1       -0.4771
     24 H          12.1023   89.3264   16.7661 H       1  UNL1        0.2954
     25 C          11.4692   81.5498   25.5940 C.2     1  UNL1        0.2839
     26 O          10.7023   82.2025   24.8361 O.2     1  UNL1       -0.2665
     27 N          12.7196   82.1155   26.0193 N.am    1  UNL1       -0.2766
     28 H          13.1801   81.7076   26.8643 H       1  UNL1        0.1553
     29 C          10.1288   80.8573   28.4220 C.3     1  UNL1        0.0345
     30 C          10.4790   79.9104   27.3138 C.ar    1  UNL1        0.0202
     31 C          11.0651   80.2169   26.0805 C.ar    1  UNL1        0.1946
     32 O          11.2181   79.1157   25.3667 O.2     1  UNL1       -0.4492
     33 C          10.7620   78.1107   26.0735 C.ar    1  UNL1        0.1452
     34 C          10.7258   76.7696   25.7081 C.ar    1  UNL1        0.0375
     35 C          10.1880   75.8500   26.6249 C.ar    1  UNL1        0.0031
     36 C           9.6970   76.2816   27.8867 C.ar    1  UNL1        0.0002
     37 C           9.7530   77.6562   28.2198 C.ar    1  UNL1        0.0028
     38 C          10.2936   78.5414   27.2859 C.ar    1  UNL1        0.0337
     39 C           9.1307   75.3005   28.8469 C.ar    1  UNL1       -0.0002
     40 C           9.9407   74.2907   29.3972 C.ar    1  UNL1       -0.0000
     41 C           9.4088   73.3737   30.3066 C.ar    1  UNL1       -0.0002
     42 C           8.0643   73.4487   30.6750 C.ar    1  UNL1       -0.0019
     43 C           7.2358   74.4380   30.1253 C.ar    1  UNL1        0.0070
     44 C           7.7763   75.3691   29.2237 C.ar    1  UNL1       -0.0019
     45 C           5.8004   74.5448   30.5525 C.3     1  UNL1        0.1636
     46 O           5.6163   75.7372   31.2620 O.3     1  UNL1       -0.3772
     47 H           4.6578   75.7598   31.5182 H       1  UNL1        0.2109
@<TRIPOS>BOND
     1    29    30    1
     2    30    31   ar
     3    31    25    1
     4    25    26    2
     5    25    27   am
     6    27     1    1
     7     1     2   ar
     8     2     3   ar
     9     3     4   ar
    10     4     7    1
    11     7     8    1
    12     8     9    1
    13     9    10    1
    14    10    13    1
    15    13    14    1
    16    14    15    1
    17    15    16   ar
    18    16    17   ar
    19    17    18   ar
    20    18    19   ar
    21    19    21    1
    22    21    22    2
    23    21    23    1
    24    19    20   ar
    25    10    11    1
    26    11    12    1
    27     4     5   ar
    28     5     6   ar
    29    31    32   ar
    30    32    33   ar
    31    33    34   ar
    32    34    35   ar
    33    35    36   ar
    34    36    39    1
    35    39    40   ar
    36    40    41   ar
    37    41    42   ar
    38    42    43   ar
    39    43    45    1
    40    45    46    1
    41    43    44   ar
    42    36    37   ar
    43    37    38   ar
    44    38    30   ar
    45     6     1   ar
    46    38    33   ar
    47    12     7    1
    48    44    39   ar
    49    20    15   ar
    50    27    28    1
    51    23    24    1
    52    46    47    1
@<TRIPOS>MOLECULE
*****
 47 52 0 0 0
SMALL
GASTEIGER

@<TRIPOS>ATOM
      1 C          11.8089   81.4165   25.3341 C.ar    1  UNL1        0.0702
      2 C          12.7225   82.0009   26.2188 C.ar    1  UNL1        0.0191
      3 C          13.5461   83.0443   25.7940 C.ar    1  UNL1        0.0356
      4 C          13.4680   83.4937   24.4644 C.ar    1  UNL1        0.1318
      5 N          12.5850   82.8946   23.6165 N.ar    1  UNL1       -0.2279
      6 C          11.7702   81.8803   24.0096 C.ar    1  UNL1        0.1149
      7 N          14.3007   84.5723   23.9853 N.pl3   1  UNL1       -0.2932
      8 C          14.0672   85.9576   24.4291 C.3     1  UNL1        0.0923
      9 C          15.3387   86.8049   24.2965 C.3     1  UNL1        0.0252
     10 C          15.9268   86.7768   22.8632 C.3     1  UNL1        0.0472
     11 C          15.6715   85.4318   22.1337 C.3     1  UNL1        0.0252
     12 C          15.4441   84.2743   23.1090 C.3     1  UNL1        0.0923
     13 C          15.4045   87.9596   22.0306 C.3     1  UNL1        0.2054
     14 O          15.4917   87.6511   20.6406 O.3     1  UNL1       -0.4755
     15 C          14.5936   86.8215   19.9536 C.ar    1  UNL1        0.1388
     16 C          13.2002   87.0039   20.0155 C.ar    1  UNL1        0.0369
     17 C          12.3496   86.1518   19.3091 C.ar    1  UNL1        0.0033
     18 C          12.8741   85.1098   18.5409 C.ar    1  UNL1        0.0066
     19 C          14.2637   84.9044   18.4750 C.ar    1  UNL1        0.0785
     20 C          15.1139   85.7760   19.1809 C.ar    1  UNL1        0.0433
     21 C          14.8396   83.8062   17.6608 C.2     1  UNL1        0.3381
     22 O          15.9820   83.9417   17.1475 O.2     1  UNL1       -0.2451
     23 O          14.1563   82.6082   17.4544 O.3     1  UNL1       -0.4771
     24 H          13.2844   82.3902   17.9186 H       1  UNL1        0.2954
     25 C          11.4560   78.9843   25.9706 C.2     1  UNL1        0.2839
     26 O          12.5750   78.6342   25.5082 O.2     1  UNL1       -0.2665
     27 N          10.9827   80.3276   25.7804 N.am    1  UNL1       -0.2766
     28 H           9.9590   80.5070   25.8918 H       1  UNL1        0.1553
     29 C           8.2783   78.6496   25.7171 C.3     1  UNL1        0.0345
     30 C           9.2223   77.8522   26.5659 C.ar    1  UNL1        0.0202
     31 C          10.6094   78.0021   26.6744 C.ar    1  UNL1        0.1946
     32 O          11.0953   77.1127   27.5220 O.2     1  UNL1       -0.4492
     33 C          10.0949   76.3940   27.9694 C.ar    1  UNL1        0.1452
     34 C          10.1505   75.3443   28.8795 C.ar    1  UNL1        0.0375
     35 C           8.9474   74.7037   29.2227 C.ar    1  UNL1        0.0031
     36 C           7.7129   75.1193   28.6544 C.ar    1  UNL1        0.0002
     37 C           7.7002   76.1929   27.7319 C.ar    1  UNL1        0.0028
     38 C           8.9131   76.8061   27.4142 C.ar    1  UNL1        0.0337
     39 C           6.4484   74.4344   29.0245 C.ar    1  UNL1       -0.0002
     40 C           5.5927   74.9896   29.9931 C.ar    1  UNL1       -0.0000
     41 C           4.3994   74.3486   30.3341 C.ar    1  UNL1       -0.0002
     42 C           4.0468   73.1463   29.7184 C.ar    1  UNL1       -0.0019
     43 C           4.8941   72.5679   28.7620 C.ar    1  UNL1        0.0070
     44 C           6.0853   73.2221   28.4085 C.ar    1  UNL1       -0.0019
     45 C           4.4957   71.2966   28.0696 C.3     1  UNL1        0.1636
     46 O           3.2858   70.8383   28.6038 O.3     1  UNL1       -0.3772
     47 H           3.0677   70.0030   28.1144 H       1  UNL1        0.2109
@<TRIPOS>BOND
     1    29    30    1
     2    30    31   ar
     3    31    25    1
     4    25    26    2
     5    25    27   am
     6    27     1    1
     7     1     2   ar
     8     2     3   ar
     9     3     4   ar
    10     4     7    1
    11     7     8    1
    12     8     9    1
    13     9    10    1
    14    10    13    1
    15    13    14    1
    16    14    15    1
    17    15    16   ar
    18    16    17   ar
    19    17    18   ar
    20    18    19   ar
    21    19    21    1
    22    21    22    2
    23    21    23    1
    24    19    20   ar
    25    10    11    1
    26    11    12    1
    27     4     5   ar
    28     5     6   ar
    29    31    32   ar
    30    32    33   ar
    31    33    34   ar
    32    34    35   ar
    33    35    36   ar
    34    36    39    1
    35    39    40   ar
    36    40    41   ar
    37    41    42   ar
    38    42    43   ar
    39    43    45    1
    40    45    46    1
    41    43    44   ar
    42    36    37   ar
    43    37    38   ar
    44    38    30   ar
    45     6     1   ar
    46    38    33   ar
    47    12     7    1
    48    44    39   ar
    49    20    15   ar
    50    27    28    1
    51    23    24    1
    52    46    47    1
@<TRIPOS>MOLECULE
*****
 47 52 0 0 0
SMALL
GASTEIGER

@<TRIPOS>ATOM
      1 C          12.6914   82.1305   25.0325 C.ar    1  UNL1        0.0702
      2 C          12.4614   82.7642   23.8060 C.ar    1  UNL1        0.0191
      3 C          13.1442   83.9369   23.4798 C.ar    1  UNL1        0.0356
      4 C          14.0514   84.4911   24.3994 C.ar    1  UNL1        0.1318
      5 N          14.2426   83.8665   25.5955 N.ar    1  UNL1       -0.2279
      6 C          13.5923   82.7216   25.9324 C.ar    1  UNL1        0.1149
      7 N          14.7801   85.7018   24.0999 N.pl3   1  UNL1       -0.2932
      8 C          14.4643   86.9618   24.7951 C.3     1  UNL1        0.0923
      9 C          15.6625   87.9190   24.7810 C.3     1  UNL1        0.0252
     10 C          16.1875   88.1956   23.3497 C.3     1  UNL1        0.0472
     11 C          16.0008   86.9868   22.3956 C.3     1  UNL1        0.0252
     12 C          15.9028   85.6589   23.1504 C.3     1  UNL1        0.0923
     13 C          15.5430   89.4623   22.7622 C.3     1  UNL1        0.2054
     14 O          14.1276   89.2992   22.6920 O.3     1  UNL1       -0.4755
     15 C          13.4530   88.6608   21.6411 C.ar    1  UNL1        0.1388
     16 C          12.3846   87.7726   21.8601 C.ar    1  UNL1        0.0369
     17 C          11.7442   87.1660   20.7782 C.ar    1  UNL1        0.0033
     18 C          12.1620   87.4316   19.4721 C.ar    1  UNL1        0.0066
     19 C          13.2352   88.3083   19.2331 C.ar    1  UNL1        0.0785
     20 C          13.8668   88.9244   20.3296 C.ar    1  UNL1        0.0433
     21 C          13.6901   88.6064   17.8529 C.2     1  UNL1        0.3381
     22 O          13.0663   88.1226   16.8711 O.2     1  UNL1       -0.2451
     23 O          14.7898   89.4266   17.6026 O.3     1  UNL1       -0.4771
     24 H          15.2731   89.9300   18.3349 H       1  UNL1        0.2954
     25 C          10.5918   80.9205   25.7897 C.2     1  UNL1        0.2839
     26 O          10.0250   81.9899   26.1414 O.2     1  UNL1       -0.2665
     27 N          11.9639   80.9350   25.3635 N.am    1  UNL1       -0.2766
     28 H          12.4904   80.0321   25.3751 H       1  UNL1        0.1553
     29 C           8.9451   79.7689   28.2868 C.3     1  UNL1        0.0345
     30 C           9.1376   79.1361   26.9415 C.ar    1  UNL1        0.0202
     31 C           9.8582   79.6420   25.8538 C.ar    1  UNL1        0.1946
     32 O           9.7977   78.7977   24.8394 O.2     1  UNL1       -0.4492
     33 C           9.0754   77.7700   25.2132 C.ar    1  UNL1        0.1452
     34 C           8.7527   76.6467   24.4599 C.ar    1  UNL1        0.0375
     35 C           7.9572   75.6556   25.0603 C.ar    1  UNL1        0.0031
     36 C           7.4984   75.8006   26.3975 C.ar    1  UNL1        0.0002
     37 C           7.8502   76.9597   27.1299 C.ar    1  UNL1        0.0028
     38 C           8.6415   77.9234   26.5027 C.ar    1  UNL1        0.0337
     39 C           6.6581   74.7468   27.0208 C.ar    1  UNL1       -0.0002
     40 C           6.5839   73.4629   26.4511 C.ar    1  UNL1       -0.0000
     41 C           5.7998   72.4701   27.0431 C.ar    1  UNL1       -0.0002
     42 C           5.0776   72.7453   28.2058 C.ar    1  UNL1       -0.0019
     43 C           5.1252   74.0238   28.7804 C.ar    1  UNL1        0.0070
     44 C           5.9270   75.0158   28.1930 C.ar    1  UNL1       -0.0019
     45 C           4.3818   74.3084   30.0535 C.3     1  UNL1        0.1636
     46 O           3.7555   73.1372   30.4953 O.3     1  UNL1       -0.3772
     47 H           3.2830   73.3774   31.3343 H       1  UNL1        0.2109
@<TRIPOS>BOND
     1    29    30    1
     2    30    31   ar
     3    31    25    1
     4    25    26    2
     5    25    27   am
     6    27     1    1
     7     1     2   ar
     8     2     3   ar
     9     3     4   ar
    10     4     7    1
    11     7     8    1
    12     8     9    1
    13     9    10    1
    14    10    13    1
    15    13    14    1
    16    14    15    1
    17    15    16   ar
    18    16    17   ar
    19    17    18   ar
    20    18    19   ar
    21    19    21    1
    22    21    22    2
    23    21    23    1
    24    19    20   ar
    25    10    11    1
    26    11    12    1
    27     4     5   ar
    28     5     6   ar
    29    31    32   ar
    30    32    33   ar
    31    33    34   ar
    32    34    35   ar
    33    35    36   ar
    34    36    39    1
    35    39    40   ar
    36    40    41   ar
    37    41    42   ar
    38    42    43   ar
    39    43    45    1
    40    45    46    1
    41    43    44   ar
    42    36    37   ar
    43    37    38   ar
    44    38    30   ar
    45     6     1   ar
    46    38    33   ar
    47    12     7    1
    48    44    39   ar
    49    20    15   ar
    50    27    28    1
    51    23    24    1
    52    46    47    1
