@<TRIPOS>MOLECULE
*****
 52 57 0 0 0
SMALL
GASTEIGER

@<TRIPOS>ATOM
      1 O          57.5479   86.0598   10.5733 O.2     1  UNL1       -0.2701
      2 C          58.6688   86.1038    9.9967 C.2     1  UNL1        0.2483
      3 N          58.9471   85.2114    8.9043 N.am    1  UNL1       -0.2945
      4 H          59.8274   85.3429    8.3599 H       1  UNL1        0.1501
      5 C          59.7142   87.0077   10.5226 C.ar    1  UNL1        0.0808
      6 C          60.0771   86.9150   11.8763 C.ar    1  UNL1        0.0080
      7 C          61.1293   87.6800   12.3832 C.ar    1  UNL1        0.0148
      8 C          61.8305   88.5604   11.5484 C.ar    1  UNL1        0.0502
      9 C          61.4454   88.6862   10.2055 C.ar    1  UNL1        0.0443
     10 C          60.3915   87.9228    9.6940 C.ar    1  UNL1        0.1457
     11 F          60.0201   88.1072    8.4021 F       1  UNL1       -0.2040
     12 N          62.9489   89.3066   12.0565 N.pl3   1  UNL1       -0.3040
     13 C          63.0664   90.7331   11.7278 C.3     1  UNL1        0.1123
     14 C          64.4032   91.3390   12.1871 C.3     1  UNL1        0.1136
     15 N          64.8212   90.8919   13.5321 N.pl3   1  UNL1       -0.2890
     16 C          64.2856   89.6347   14.0958 C.3     1  UNL1        0.1230
     17 C          63.9098   88.6708   12.9621 C.3     1  UNL1        0.1131
     18 C          65.8930   91.5827   14.2275 C.ar    1  UNL1        0.1318
     19 C          65.6880   92.2143   15.4702 C.ar    1  UNL1        0.0343
     20 C          66.7472   92.8729   16.0970 C.ar    1  UNL1        0.0083
     21 C          68.0069   92.9309   15.4852 C.ar    1  UNL1        0.0906
     22 C          68.1793   92.2779   14.2568 C.ar    1  UNL1        0.1041
     23 N          67.1344   91.6409   13.6669 N.ar    1  UNL1       -0.2292
     24 C          69.1701   93.5960   16.1759 C.3     1  UNL1        0.4200
     25 F          68.7192   94.7141   16.8520 F       1  UNL1       -0.1658
     26 F          70.1287   93.9817   15.2549 F       1  UNL1       -0.1658
     27 F          69.7616   92.7302   17.0795 F       1  UNL1       -0.1658
     28 C          63.0800   89.9080   15.0157 C.3     1  UNL1        0.1585
     29 O          63.3994   89.6023   16.3439 O.3     1  UNL1       -0.3802
     30 H          62.5867   89.8027   16.8771 H       1  UNL1        0.2105
     31 C          58.2725   83.9159    8.7731 C.3     1  UNL1        0.1535
     32 C          59.2959   82.8117    8.7206 C.2     1  UNL1        0.2443
     33 O          59.0919   81.8248    7.9625 O.2     1  UNL1       -0.2730
     34 N          60.5173   82.9059    9.4743 N.am    1  UNL1       -0.2825
     35 H          60.8022   83.8430    9.8378 H       1  UNL1        0.1549
     36 C          61.4259   81.8094    9.6723 C.ar    1  UNL1        0.0535
     37 C          61.0740   80.4917    9.3334 C.ar    1  UNL1        0.0353
     38 C          61.9802   79.4545    9.5686 C.ar    1  UNL1        0.1002
     39 N          63.1876   79.7181   10.1346 N.ar    1  UNL1       -0.2422
     40 C          63.5470   80.9798   10.4894 C.ar    1  UNL1        0.1002
     41 C          62.6702   82.0455   10.2730 C.ar    1  UNL1        0.0353
     42 C          57.2905   83.6997    9.9406 C.3     1  UNL1        0.0569
     43 C          57.9388   82.9481   11.0691 C.ar    1  UNL1       -0.0017
     44 C          58.6665   83.5018   12.1180 C.ar    1  UNL1        0.0681
     45 N          59.2143   82.5274   12.8797 N.ar    1  UNL1       -0.3523
     46 C          58.8512   81.3634   12.3134 C.ar    1  UNL1        0.0563
     47 C          59.2162   80.0791   12.7155 C.ar    1  UNL1        0.0170
     48 C          58.7620   78.9940   11.9440 C.ar    1  UNL1        0.0015
     49 C          57.9678   79.2142   10.7974 C.ar    1  UNL1        0.0001
     50 C          57.6140   80.5212   10.4157 C.ar    1  UNL1        0.0012
     51 C          58.0742   81.5780   11.2037 C.ar    1  UNL1        0.0131
     52 H          59.8211   82.6579   13.7193 H       1  UNL1        0.1660
@<TRIPOS>BOND
     1     1     2    2
     2     2     3   am
     3     3    31    1
     4    31    42    1
     5    42    43    1
     6    43    44   ar
     7    44    45   ar
     8    45    46   ar
     9    46    47   ar
    10    47    48   ar
    11    48    49   ar
    12    49    50   ar
    13    50    51   ar
    14    31    32    1
    15    32    33    2
    16    32    34   am
    17    34    36    1
    18    36    37   ar
    19    37    38   ar
    20    38    39   ar
    21    39    40   ar
    22    40    41   ar
    23     2     5    1
    24     5     6   ar
    25     6     7   ar
    26     7     8   ar
    27     8    12    1
    28    12    13    1
    29    13    14    1
    30    14    15    1
    31    15    18    1
    32    18    19   ar
    33    19    20   ar
    34    20    21   ar
    35    21    24    1
    36    24    25    1
    37    24    26    1
    38    24    27    1
    39    21    22   ar
    40    22    23   ar
    41    15    16    1
    42    16    28    1
    43    28    29    1
    44    16    17    1
    45     8     9   ar
    46     9    10   ar
    47    10    11    1
    48    51    43   ar
    49    41    36   ar
    50    10     5   ar
    51    51    46   ar
    52    17    12    1
    53    23    18   ar
    54     3     4    1
    55    45    52    1
    56    34    35    1
    57    29    30    1
@<TRIPOS>MOLECULE
*****
 52 57 0 0 0
SMALL
GASTEIGER

@<TRIPOS>ATOM
      1 O          57.4658   85.0921   12.9884 O.2     1  UNL1       -0.2701
      2 C          58.5733   84.9683   12.3976 C.2     1  UNL1        0.2483
      3 N          58.8353   83.7967   11.6065 N.am    1  UNL1       -0.2945
      4 H          59.7022   83.7656   11.0268 H       1  UNL1        0.1501
      5 C          59.6221   85.9883   12.6124 C.ar    1  UNL1        0.0808
      6 C          59.9297   86.3835   13.9247 C.ar    1  UNL1        0.0080
      7 C          60.9822   87.2669   14.1718 C.ar    1  UNL1        0.0148
      8 C          61.7389   87.7808   13.1102 C.ar    1  UNL1        0.0502
      9 C          61.4096   87.4208   11.7952 C.ar    1  UNL1        0.0443
     10 C          60.3557   86.5371   11.5431 C.ar    1  UNL1        0.1457
     11 F          60.0397   86.2499   10.2553 F       1  UNL1       -0.2040
     12 N          62.8569   88.6464   13.3683 N.pl3   1  UNL1       -0.3040
     13 C          62.8103   90.0361   12.8956 C.3     1  UNL1        0.1123
     14 C          64.1475   90.7717   13.0847 C.3     1  UNL1        0.1136
     15 N          64.7940   90.4935   14.3840 N.pl3   1  UNL1       -0.2890
     16 C          64.4497   89.2689   15.1370 C.3     1  UNL1        0.1230
     17 C          63.9888   88.1710   14.1686 C.3     1  UNL1        0.1131
     18 C          65.8982   91.3205   14.8385 C.ar    1  UNL1        0.1318
     19 C          65.6958   92.4427   15.6661 C.ar    1  UNL1        0.0343
     20 C          66.7878   93.2121   16.0711 C.ar    1  UNL1        0.0083
     21 C          68.0814   92.8894   15.6387 C.ar    1  UNL1        0.0906
     22 C          68.2479   91.7570   14.8294 C.ar    1  UNL1        0.1041
     23 N          67.1704   91.0216   14.4500 N.ar    1  UNL1       -0.2292
     24 C          69.2730   93.6832   16.1102 C.3     1  UNL1        0.4200
     25 F          69.9532   92.9566   17.0694 F       1  UNL1       -0.1658
     26 F          68.8704   94.8886   16.6586 F       1  UNL1       -0.1658
     27 F          70.1292   93.9516   15.0562 F       1  UNL1       -0.1658
     28 C          63.3755   89.5565   16.2035 C.3     1  UNL1        0.1585
     29 O          63.1650   90.9350   16.3261 O.3     1  UNL1       -0.3802
     30 H          62.4655   91.0474   17.0211 H       1  UNL1        0.2105
     31 C          58.1694   82.5179   11.8746 C.3     1  UNL1        0.1535
     32 C          58.0391   81.7334   10.5952 C.2     1  UNL1        0.2443
     33 O          57.5877   80.5569   10.6428 O.2     1  UNL1       -0.2730
     34 N          58.3648   82.3335    9.3292 N.am    1  UNL1       -0.2825
     35 H          58.4336   83.3748    9.2795 H       1  UNL1        0.1549
     36 C          58.5009   81.5968    8.1021 C.ar    1  UNL1        0.0535
     37 C          59.7292   81.0358    7.7129 C.ar    1  UNL1        0.0353
     38 C          59.8196   80.3506    6.4985 C.ar    1  UNL1        0.1002
     39 N          58.7298   80.2411    5.6937 N.ar    1  UNL1       -0.2422
     40 C          57.5343   80.7897    6.0359 C.ar    1  UNL1        0.1002
     41 C          57.4009   81.4840    7.2406 C.ar    1  UNL1        0.0353
     42 C          58.9504   81.7160   12.9335 C.3     1  UNL1        0.0569
     43 C          60.3903   81.5445   12.5381 C.ar    1  UNL1       -0.0017
     44 C          60.9113   80.5295   11.7414 C.ar    1  UNL1        0.0681
     45 N          62.2608   80.6088   11.6971 N.ar    1  UNL1       -0.3523
     46 C          62.5981   81.6559   12.4698 C.ar    1  UNL1        0.0563
     47 C          63.8841   82.1031   12.7710 C.ar    1  UNL1        0.0170
     48 C          64.0124   83.1951   13.6485 C.ar    1  UNL1        0.0015
     49 C          62.8664   83.8048   14.2042 C.ar    1  UNL1        0.0001
     50 C          61.5809   83.3331   13.8818 C.ar    1  UNL1        0.0012
     51 C          61.4841   82.2518   13.0038 C.ar    1  UNL1        0.0131
     52 H          62.9079   79.9661   11.1887 H       1  UNL1        0.1660
@<TRIPOS>BOND
     1     1     2    2
     2     2     3   am
     3     3    31    1
     4    31    42    1
     5    42    43    1
     6    43    44   ar
     7    44    45   ar
     8    45    46   ar
     9    46    47   ar
    10    47    48   ar
    11    48    49   ar
    12    49    50   ar
    13    50    51   ar
    14    31    32    1
    15    32    33    2
    16    32    34   am
    17    34    36    1
    18    36    37   ar
    19    37    38   ar
    20    38    39   ar
    21    39    40   ar
    22    40    41   ar
    23     2     5    1
    24     5     6   ar
    25     6     7   ar
    26     7     8   ar
    27     8    12    1
    28    12    13    1
    29    13    14    1
    30    14    15    1
    31    15    18    1
    32    18    19   ar
    33    19    20   ar
    34    20    21   ar
    35    21    24    1
    36    24    25    1
    37    24    26    1
    38    24    27    1
    39    21    22   ar
    40    22    23   ar
    41    15    16    1
    42    16    28    1
    43    28    29    1
    44    16    17    1
    45     8     9   ar
    46     9    10   ar
    47    10    11    1
    48    51    43   ar
    49    41    36   ar
    50    10     5   ar
    51    51    46   ar
    52    17    12    1
    53    23    18   ar
    54     3     4    1
    55    45    52    1
    56    34    35    1
    57    29    30    1
@<TRIPOS>MOLECULE
*****
 52 57 0 0 0
SMALL
GASTEIGER

@<TRIPOS>ATOM
      1 O          57.9249   86.5348    8.6899 O.2     1  UNL1       -0.2701
      2 C          59.1237   86.1614    8.8092 C.2     1  UNL1        0.2483
      3 N          59.5156   84.8561    8.3512 N.am    1  UNL1       -0.2945
      4 H          60.5295   84.6099    8.3433 H       1  UNL1        0.1501
      5 C          60.0848   87.0388    9.5112 C.ar    1  UNL1        0.0808
      6 C          60.6838   86.5824   10.6969 C.ar    1  UNL1        0.0080
      7 C          61.6705   87.3398   11.3309 C.ar    1  UNL1        0.0148
      8 C          62.0681   88.5730   10.7974 C.ar    1  UNL1        0.0502
      9 C          61.4442   89.0517    9.6359 C.ar    1  UNL1        0.0443
     10 C          60.4548   88.2969    8.9983 C.ar    1  UNL1        0.1457
     11 F          59.8435   88.8155    7.9037 F       1  UNL1       -0.2040
     12 N          63.1225   89.3266   11.4190 N.pl3   1  UNL1       -0.3040
     13 C          63.2453   90.7606   11.1273 C.3     1  UNL1        0.1123
     14 C          64.5239   91.3783   11.7180 C.3     1  UNL1        0.1136
     15 N          64.8245   90.9123   13.0876 N.pl3   1  UNL1       -0.2890
     16 C          64.2610   89.6366   13.5778 C.3     1  UNL1        0.1230
     17 C          64.0071   88.6886   12.3979 C.3     1  UNL1        0.1131
     18 C          65.8163   91.6063   13.8905 C.ar    1  UNL1        0.1318
     19 C          65.5104   92.1290   15.1627 C.ar    1  UNL1        0.0343
     20 C          66.4950   92.7954   15.8941 C.ar    1  UNL1        0.0083
     21 C          67.7788   92.9694   15.3595 C.ar    1  UNL1        0.0906
     22 C          68.0528   92.4225   14.0982 C.ar    1  UNL1        0.1041
     23 N          67.0793   91.7755   13.4059 N.ar    1  UNL1       -0.2292
     24 C          68.8635   93.6431   16.1609 C.3     1  UNL1        0.4200
     25 F          69.4225   92.7262   17.0312 F       1  UNL1       -0.1658
     26 F          68.3465   94.7001   16.8899 F       1  UNL1       -0.1658
     27 F          69.8528   94.1351   15.3271 F       1  UNL1       -0.1658
     28 C          62.9718   89.8740   14.3878 C.3     1  UNL1        0.1585
     29 O          62.8098   91.2374   14.6604 O.3     1  UNL1       -0.3802
     30 H          61.9663   91.3179   15.1771 H       1  UNL1        0.2105
     31 C          58.5619   83.7446    8.2752 C.3     1  UNL1        0.1535
     32 C          59.2430   82.4609    8.6719 C.2     1  UNL1        0.2443
     33 O          58.6792   81.3636    8.4102 O.2     1  UNL1       -0.2730
     34 N          60.5445   82.4787    9.2840 N.am    1  UNL1       -0.2825
     35 H          61.1141   83.3511    9.2078 H       1  UNL1        0.1549
     36 C          61.1551   81.3358    9.9069 C.ar    1  UNL1        0.0535
     37 C          61.5790   80.2268    9.1551 C.ar    1  UNL1        0.0353
     38 C          62.1433   79.1274    9.8073 C.ar    1  UNL1        0.1002
     39 N          62.2671   79.1263   11.1609 N.ar    1  UNL1       -0.2422
     40 C          61.8488   80.1770   11.9147 C.ar    1  UNL1        0.1002
     41 C          61.2779   81.2954   11.3027 C.ar    1  UNL1        0.0353
     42 C          57.3418   84.0200    9.1751 C.3     1  UNL1        0.0569
     43 C          57.6698   83.7981   10.6249 C.ar    1  UNL1       -0.0017
     44 C          57.9661   82.5785   11.2260 C.ar    1  UNL1        0.0681
     45 N          58.0831   82.7275   12.5652 N.ar    1  UNL1       -0.3523
     46 C          57.8496   84.0272   12.8174 C.ar    1  UNL1        0.0563
     47 C          57.8120   84.6518   14.0635 C.ar    1  UNL1        0.0170
     48 C          57.4967   86.0222   14.1036 C.ar    1  UNL1        0.0015
     49 C          57.2228   86.7284   12.9118 C.ar    1  UNL1        0.0001
     50 C          57.2689   86.0726   11.6681 C.ar    1  UNL1        0.0012
     51 C          57.5903   84.7138   11.6587 C.ar    1  UNL1        0.0131
     52 H          58.2844   81.9763   13.2620 H       1  UNL1        0.1660
@<TRIPOS>BOND
     1     1     2    2
     2     2     3   am
     3     3    31    1
     4    31    42    1
     5    42    43    1
     6    43    44   ar
     7    44    45   ar
     8    45    46   ar
     9    46    47   ar
    10    47    48   ar
    11    48    49   ar
    12    49    50   ar
    13    50    51   ar
    14    31    32    1
    15    32    33    2
    16    32    34   am
    17    34    36    1
    18    36    37   ar
    19    37    38   ar
    20    38    39   ar
    21    39    40   ar
    22    40    41   ar
    23     2     5    1
    24     5     6   ar
    25     6     7   ar
    26     7     8   ar
    27     8    12    1
    28    12    13    1
    29    13    14    1
    30    14    15    1
    31    15    18    1
    32    18    19   ar
    33    19    20   ar
    34    20    21   ar
    35    21    24    1
    36    24    25    1
    37    24    26    1
    38    24    27    1
    39    21    22   ar
    40    22    23   ar
    41    15    16    1
    42    16    28    1
    43    28    29    1
    44    16    17    1
    45     8     9   ar
    46     9    10   ar
    47    10    11    1
    48    51    43   ar
    49    41    36   ar
    50    10     5   ar
    51    51    46   ar
    52    17    12    1
    53    23    18   ar
    54     3     4    1
    55    45    52    1
    56    34    35    1
    57    29    30    1
