@<TRIPOS>MOLECULE
*****
 46 51 0 0 0
SMALL
GASTEIGER

@<TRIPOS>ATOM
      1 C          13.3055   82.9312   25.8678 C.ar    1  UNL1        0.1713
      2 C          12.4974   81.9034   26.3855 C.ar    1  UNL1        0.0560
      3 C          11.6322   81.1901   25.5481 C.ar    1  UNL1        0.0732
      4 C          11.5594   81.5487   24.1946 C.ar    1  UNL1        0.1151
      5 N          12.3352   82.5534   23.7123 N.ar    1  UNL1       -0.2248
      6 C          13.1927   83.2540   24.5035 C.ar    1  UNL1        0.1660
      7 N          13.9932   84.2963   23.9236 N.pl3   1  UNL1       -0.2908
      8 C          13.9014   85.6552   24.4738 C.3     1  UNL1        0.0924
      9 C          14.6407   86.6709   23.5897 C.3     1  UNL1        0.0252
     10 C          14.3996   86.3502   22.1018 C.3     1  UNL1        0.0472
     11 C          14.9466   84.9465   21.7306 C.3     1  UNL1        0.0252
     12 C          15.0262   83.9830   22.9285 C.3     1  UNL1        0.0924
     13 C          15.0117   87.4326   21.1918 C.3     1  UNL1        0.2054
     14 O          14.0947   87.8292   20.1704 O.3     1  UNL1       -0.4755
     15 C          14.2046   87.5144   18.8059 C.ar    1  UNL1        0.1388
     16 C          14.0802   88.4799   17.7887 C.ar    1  UNL1        0.0369
     17 C          14.2009   88.1075   16.4486 C.ar    1  UNL1        0.0033
     18 C          14.4419   86.7753   16.1065 C.ar    1  UNL1        0.0066
     19 C          14.5636   85.7963   17.1066 C.ar    1  UNL1        0.0785
     20 C          14.4410   86.1792   18.4551 C.ar    1  UNL1        0.0433
     21 C          14.8174   84.3848   16.7423 C.2     1  UNL1        0.3381
     22 O          15.9823   83.9996   16.4515 O.2     1  UNL1       -0.2451
     23 O          13.7703   83.4672   16.7171 O.3     1  UNL1       -0.4771
     24 H          13.9331   82.4986   16.4691 H       1  UNL1        0.2954
     25 N          10.8032   80.1557   26.1031 N.am    1  UNL1       -0.2766
     26 C          11.1173   78.7531   26.0450 C.2     1  UNL1        0.2839
     27 O          12.1246   78.3499   25.4045 O.2     1  UNL1       -0.2665
     28 H           9.9549   80.4589   26.6290 H       1  UNL1        0.1553
     29 C          10.2633   77.7526   26.7081 C.ar    1  UNL1        0.1946
     30 O          10.7134   76.9664   27.6703 O.2     1  UNL1       -0.4492
     31 C           9.7282   76.1897   28.0495 C.ar    1  UNL1        0.1452
     32 C           9.7564   75.2064   29.0324 C.ar    1  UNL1        0.0375
     33 C           8.5739   74.4878   29.2811 C.ar    1  UNL1        0.0031
     34 C           7.3870   74.7615   28.5484 C.ar    1  UNL1        0.0002
     35 C           7.4015   75.7717   27.5569 C.ar    1  UNL1        0.0028
     36 C           8.5931   76.4626   27.3361 C.ar    1  UNL1        0.0337
     37 C           8.9090   77.4886   26.4685 C.ar    1  UNL1        0.0202
     38 C           7.9755   78.1765   25.5189 C.3     1  UNL1        0.0345
     39 C           6.1436   73.9962   28.8195 C.ar    1  UNL1        0.0000
     40 C           5.7891   72.8975   28.0135 C.ar    1  UNL1        0.0000
     41 C           4.6178   72.1788   28.2711 C.ar    1  UNL1        0.0000
     42 C           3.7880   72.5475   29.3321 C.ar    1  UNL1        0.0000
     43 C           4.1280   73.6358   30.1385 C.ar    1  UNL1        0.0000
     44 C           5.2987   74.3577   29.8862 C.ar    1  UNL1        0.0000
     45 C          14.0933   83.8422   28.0621 C.3     1  UNL1        0.2526
     46 O          14.2323   83.6248   26.6623 O.3     1  UNL1       -0.4686
@<TRIPOS>BOND
     1    45    46    1
     2    46     1    1
     3     1     2   ar
     4     2     3   ar
     5     3    25    1
     6    25    26   am
     7    26    27    2
     8    26    29    1
     9    29    30   ar
    10    30    31   ar
    11    31    32   ar
    12    32    33   ar
    13    33    34   ar
    14    34    39    1
    15    39    40   ar
    16    40    41   ar
    17    41    42   ar
    18    42    43   ar
    19    43    44   ar
    20    34    35   ar
    21    35    36   ar
    22    36    37   ar
    23    37    38    1
    24     3     4   ar
    25     4     5   ar
    26     5     6   ar
    27     6     7    1
    28     7     8    1
    29     8     9    1
    30     9    10    1
    31    10    13    1
    32    13    14    1
    33    14    15    1
    34    15    16   ar
    35    16    17   ar
    36    17    18   ar
    37    18    19   ar
    38    19    21    1
    39    21    22    2
    40    21    23    1
    41    19    20   ar
    42    10    11    1
    43    11    12    1
    44     6     1   ar
    45    12     7    1
    46    37    29   ar
    47    20    15   ar
    48    36    31   ar
    49    44    39   ar
    50    25    28    1
    51    23    24    1
@<TRIPOS>MOLECULE
*****
 46 51 0 0 0
SMALL
GASTEIGER

@<TRIPOS>ATOM
      1 C          13.3458   82.9416   25.8671 C.ar    1  UNL1        0.1713
      2 C          12.5338   81.9177   26.3866 C.ar    1  UNL1        0.0560
      3 C          11.6578   81.2138   25.5525 C.ar    1  UNL1        0.0732
      4 C          11.5785   81.5779   24.2009 C.ar    1  UNL1        0.1151
      5 N          12.3582   82.5787   23.7169 N.ar    1  UNL1       -0.2248
      6 C          13.2261   83.2702   24.5048 C.ar    1  UNL1        0.1660
      7 N          14.0302   84.3088   23.9232 N.pl3   1  UNL1       -0.2908
      8 C          13.9122   85.6774   24.4437 C.3     1  UNL1        0.0924
      9 C          14.6626   86.6827   23.5572 C.3     1  UNL1        0.0252
     10 C          14.4602   86.3302   22.0708 C.3     1  UNL1        0.0472
     11 C          15.0295   84.9251   21.7409 C.3     1  UNL1        0.0252
     12 C          15.0897   83.9863   22.9593 C.3     1  UNL1        0.0924
     13 C          15.0835   87.4005   21.1539 C.3     1  UNL1        0.2054
     14 O          14.1948   88.5036   20.9677 O.3     1  UNL1       -0.4755
     15 C          13.3580   88.7007   19.8569 C.ar    1  UNL1        0.1388
     16 C          11.9656   88.8743   19.9731 C.ar    1  UNL1        0.0369
     17 C          11.1845   89.0682   18.8323 C.ar    1  UNL1        0.0033
     18 C          11.7768   89.0879   17.5679 C.ar    1  UNL1        0.0066
     19 C          13.1636   88.9109   17.4307 C.ar    1  UNL1        0.0785
     20 C          13.9445   88.7161   18.5851 C.ar    1  UNL1        0.0433
     21 C          13.7895   88.9304   16.0900 C.2     1  UNL1        0.3381
     22 O          15.0336   89.0955   15.9681 O.2     1  UNL1       -0.2451
     23 O          13.0089   88.7664   14.9486 O.3     1  UNL1       -0.4771
     24 H          13.4272   88.7782   14.0260 H       1  UNL1        0.2954
     25 N          10.8252   80.1833   26.1093 N.am    1  UNL1       -0.2766
     26 C          11.1375   78.7800   26.0594 C.2     1  UNL1        0.2839
     27 O          12.1467   78.3722   25.4250 O.2     1  UNL1       -0.2665
     28 H           9.9753   80.4904   26.6304 H       1  UNL1        0.1553
     29 C          10.2794   77.7841   26.7242 C.ar    1  UNL1        0.1946
     30 O          10.7205   77.0123   27.7021 O.2     1  UNL1       -0.4492
     31 C           9.7339   76.2359   28.0784 C.ar    1  UNL1        0.1452
     32 C           9.7538   75.2653   29.0740 C.ar    1  UNL1        0.0375
     33 C           8.5713   74.5445   29.3165 C.ar    1  UNL1        0.0031
     34 C           7.3928   74.8033   28.5651 C.ar    1  UNL1        0.0002
     35 C           7.4158   75.8008   27.5610 C.ar    1  UNL1        0.0028
     36 C           8.6070   76.4944   27.3468 C.ar    1  UNL1        0.0337
     37 C           8.9296   77.5108   26.4704 C.ar    1  UNL1        0.0202
     38 C           8.0054   78.1821   25.5000 C.3     1  UNL1        0.0345
     39 C           6.1495   74.0357   28.8298 C.ar    1  UNL1        0.0000
     40 C           5.3203   74.3692   29.9178 C.ar    1  UNL1        0.0000
     41 C           4.1502   73.6447   30.1649 C.ar    1  UNL1        0.0000
     42 C           3.7953   72.5812   29.3323 C.ar    1  UNL1        0.0000
     43 C           4.6097   72.2398   28.2504 C.ar    1  UNL1        0.0000
     44 C           5.7805   72.9614   27.9980 C.ar    1  UNL1        0.0000
     45 C          14.1509   83.8464   28.0577 C.3     1  UNL1        0.2526
     46 O          14.2830   83.6256   26.6578 O.3     1  UNL1       -0.4686
@<TRIPOS>BOND
     1    45    46    1
     2    46     1    1
     3     1     2   ar
     4     2     3   ar
     5     3    25    1
     6    25    26   am
     7    26    27    2
     8    26    29    1
     9    29    30   ar
    10    30    31   ar
    11    31    32   ar
    12    32    33   ar
    13    33    34   ar
    14    34    39    1
    15    39    40   ar
    16    40    41   ar
    17    41    42   ar
    18    42    43   ar
    19    43    44   ar
    20    34    35   ar
    21    35    36   ar
    22    36    37   ar
    23    37    38    1
    24     3     4   ar
    25     4     5   ar
    26     5     6   ar
    27     6     7    1
    28     7     8    1
    29     8     9    1
    30     9    10    1
    31    10    13    1
    32    13    14    1
    33    14    15    1
    34    15    16   ar
    35    16    17   ar
    36    17    18   ar
    37    18    19   ar
    38    19    21    1
    39    21    22    2
    40    21    23    1
    41    19    20   ar
    42    10    11    1
    43    11    12    1
    44     6     1   ar
    45    12     7    1
    46    37    29   ar
    47    20    15   ar
    48    36    31   ar
    49    44    39   ar
    50    25    28    1
    51    23    24    1
@<TRIPOS>MOLECULE
*****
 46 51 0 0 0
SMALL
GASTEIGER

@<TRIPOS>ATOM
      1 C           8.8181   78.4272   22.2575 C.ar    1  UNL1        0.1713
      2 C           9.4871   79.6162   22.5985 C.ar    1  UNL1        0.0560
      3 C          10.0962   79.7542   23.8508 C.ar    1  UNL1        0.0732
      4 C           9.9902   78.7005   24.7696 C.ar    1  UNL1        0.1151
      5 N           9.3281   77.5643   24.4313 N.ar    1  UNL1       -0.2248
      6 C           8.7377   77.4011   23.2161 C.ar    1  UNL1        0.1660
      7 N           8.0645   76.1669   22.9207 N.pl3   1  UNL1       -0.2908
      8 C           8.5514   75.3376   21.8103 C.3     1  UNL1        0.0924
      9 C           7.5796   74.1898   21.4976 C.3     1  UNL1        0.0252
     10 C           6.1246   74.6875   21.5976 C.3     1  UNL1        0.0472
     11 C           5.7936   75.1811   23.0309 C.3     1  UNL1        0.0252
     12 C           7.0313   75.6417   23.8218 C.3     1  UNL1        0.0924
     13 C           5.1304   73.5974   21.1528 C.3     1  UNL1        0.2054
     14 O           4.2388   74.0882   20.1501 O.3     1  UNL1       -0.4755
     15 C           3.7292   75.3952   20.0782 C.ar    1  UNL1        0.1388
     16 C           4.0405   76.2775   19.0261 C.ar    1  UNL1        0.0369
     17 C           3.5020   77.5655   19.0073 C.ar    1  UNL1        0.0033
     18 C           2.6542   77.9897   20.0326 C.ar    1  UNL1        0.0066
     19 C           2.3362   77.1261   21.0939 C.ar    1  UNL1        0.0785
     20 C           2.8825   75.8294   21.1060 C.ar    1  UNL1        0.0433
     21 C           1.4390   77.5777   22.1804 C.2     1  UNL1        0.3381
     22 O           1.6230   77.1868   23.3649 O.2     1  UNL1       -0.2451
     23 O           0.3810   78.4401   21.9042 O.3     1  UNL1       -0.4771
     24 H          -0.2391   78.7553   22.6406 H       1  UNL1        0.2954
     25 N          10.7592   80.9851   24.1834 N.am    1  UNL1       -0.2766
     26 C          12.1683   81.0948   24.4511 C.2     1  UNL1        0.2839
     27 O          12.8926   80.0648   24.4942 O.2     1  UNL1       -0.2665
     28 H          10.1819   81.8539   24.1678 H       1  UNL1        0.1553
     29 C          12.7966   82.4030   24.7043 C.ar    1  UNL1        0.1946
     30 O          13.0712   83.2545   23.7317 O.2     1  UNL1       -0.4492
     31 C          13.6257   84.3138   24.2686 C.ar    1  UNL1        0.1452
     32 C          14.0782   85.4548   23.6151 C.ar    1  UNL1        0.0375
     33 C          14.6421   86.4810   24.3932 C.ar    1  UNL1        0.0031
     34 C          14.7445   86.3527   25.8051 C.ar    1  UNL1        0.0002
     35 C          14.2707   85.1745   26.4305 C.ar    1  UNL1        0.0028
     36 C          13.7191   84.1767   25.6267 C.ar    1  UNL1        0.0337
     37 C          13.1699   82.9494   25.9385 C.ar    1  UNL1        0.0202
     38 C          12.9893   82.3727   27.3100 C.3     1  UNL1        0.0345
     39 C          15.3420   87.4431   26.6170 C.ar    1  UNL1        0.0000
     40 C          16.4132   88.2057   26.1137 C.ar    1  UNL1        0.0000
     41 C          16.9740   89.2318   26.8803 C.ar    1  UNL1        0.0000
     42 C          16.4748   89.5074   28.1551 C.ar    1  UNL1        0.0000
     43 C          15.4132   88.7577   28.6661 C.ar    1  UNL1        0.0000
     44 C          14.8478   87.7310   27.9035 C.ar    1  UNL1        0.0000
     45 C           6.9925   78.7458   20.5748 C.3     1  UNL1        0.2526
     46 O           8.2514   78.2263   20.9887 O.3     1  UNL1       -0.4686
@<TRIPOS>BOND
     1    45    46    1
     2    46     1    1
     3     1     2   ar
     4     2     3   ar
     5     3    25    1
     6    25    26   am
     7    26    27    2
     8    26    29    1
     9    29    30   ar
    10    30    31   ar
    11    31    32   ar
    12    32    33   ar
    13    33    34   ar
    14    34    39    1
    15    39    40   ar
    16    40    41   ar
    17    41    42   ar
    18    42    43   ar
    19    43    44   ar
    20    34    35   ar
    21    35    36   ar
    22    36    37   ar
    23    37    38    1
    24     3     4   ar
    25     4     5   ar
    26     5     6   ar
    27     6     7    1
    28     7     8    1
    29     8     9    1
    30     9    10    1
    31    10    13    1
    32    13    14    1
    33    14    15    1
    34    15    16   ar
    35    16    17   ar
    36    17    18   ar
    37    18    19   ar
    38    19    21    1
    39    21    22    2
    40    21    23    1
    41    19    20   ar
    42    10    11    1
    43    11    12    1
    44     6     1   ar
    45    12     7    1
    46    37    29   ar
    47    20    15   ar
    48    36    31   ar
    49    44    39   ar
    50    25    28    1
    51    23    24    1
@<TRIPOS>MOLECULE
*****
 46 51 0 0 0
SMALL
GASTEIGER

@<TRIPOS>ATOM
      1 C          13.6095   81.3695   24.8215 C.ar    1  UNL1        0.1713
      2 C          12.7201   80.3438   25.1880 C.ar    1  UNL1        0.0560
      3 C          11.3545   80.6090   25.3411 C.ar    1  UNL1        0.0732
      4 C          10.9008   81.9234   25.1616 C.ar    1  UNL1        0.1151
      5 N          11.7742   82.9063   24.8224 N.ar    1  UNL1       -0.2248
      6 C          13.1044   82.6717   24.6562 C.ar    1  UNL1        0.1660
      7 N          13.9693   83.7566   24.2842 N.pl3   1  UNL1       -0.2908
      8 C          13.9430   84.9930   25.0769 C.3     1  UNL1        0.0924
      9 C          14.7501   86.1116   24.4008 C.3     1  UNL1        0.0252
     10 C          14.5150   86.0863   22.8780 C.3     1  UNL1        0.0472
     11 C          14.9906   84.7471   22.2552 C.3     1  UNL1        0.0252
     12 C          14.9990   83.5754   23.2535 C.3     1  UNL1        0.0924
     13 C          15.1992   87.2822   22.1881 C.3     1  UNL1        0.2054
     14 O          14.6175   87.5443   20.9096 O.3     1  UNL1       -0.4755
     15 C          14.2435   86.5723   19.9671 C.ar    1  UNL1        0.1388
     16 C          12.8997   86.2931   19.6527 C.ar    1  UNL1        0.0369
     17 C          12.5887   85.3161   18.7051 C.ar    1  UNL1        0.0033
     18 C          13.6065   84.6062   18.0649 C.ar    1  UNL1        0.0066
     19 C          14.9531   84.8663   18.3688 C.ar    1  UNL1        0.0785
     20 C          15.2590   85.8525   19.3249 C.ar    1  UNL1        0.0433
     21 C          16.0304   84.1120   17.6906 C.2     1  UNL1        0.3381
     22 O          16.7523   83.3069   18.3390 O.2     1  UNL1       -0.2451
     23 O          16.2575   84.2850   16.3277 O.3     1  UNL1       -0.4771
     24 H          16.9924   83.7736   15.8537 H       1  UNL1        0.2954
     25 N          10.4673   79.5485   25.7331 N.am    1  UNL1       -0.2766
     26 C           9.6124   78.8349   24.8225 C.2     1  UNL1        0.2839
     27 O           9.5364   79.1808   23.6134 O.2     1  UNL1       -0.2665
     28 H          10.4992   79.2484   26.7317 H       1  UNL1        0.1553
     29 C           8.7888   77.7021   25.2793 C.ar    1  UNL1        0.1946
     30 O           8.6175   76.6140   24.5492 O.2     1  UNL1       -0.4492
     31 C           7.8378   75.7995   25.2173 C.ar    1  UNL1        0.1452
     32 C           7.3924   74.5422   24.8241 C.ar    1  UNL1        0.0375
     33 C           6.5579   73.8325   25.7053 C.ar    1  UNL1        0.0031
     34 C           6.1834   74.3863   26.9597 C.ar    1  UNL1        0.0002
     35 C           6.6600   75.6693   27.3212 C.ar    1  UNL1        0.0028
     36 C           7.4842   76.3450   26.4212 C.ar    1  UNL1        0.0337
     37 C           8.1047   77.5757   26.4947 C.ar    1  UNL1        0.0202
     38 C           8.0686   78.5280   27.6514 C.3     1  UNL1        0.0345
     39 C           5.3015   73.6276   27.8825 C.ar    1  UNL1        0.0000
     40 C           5.1075   72.2436   27.7111 C.ar    1  UNL1        0.0000
     41 C           4.2764   71.5317   28.5814 C.ar    1  UNL1        0.0000
     42 C           3.6300   72.1906   29.6294 C.ar    1  UNL1        0.0000
     43 C           3.8136   73.5632   29.8097 C.ar    1  UNL1        0.0000
     44 C           4.6443   74.2801   28.9430 C.ar    1  UNL1        0.0000
     45 C          15.5403   79.8447   24.3604 C.3     1  UNL1        0.2526
     46 O          14.9742   81.1294   24.5949 O.3     1  UNL1       -0.4686
@<TRIPOS>BOND
     1    45    46    1
     2    46     1    1
     3     1     2   ar
     4     2     3   ar
     5     3    25    1
     6    25    26   am
     7    26    27    2
     8    26    29    1
     9    29    30   ar
    10    30    31   ar
    11    31    32   ar
    12    32    33   ar
    13    33    34   ar
    14    34    39    1
    15    39    40   ar
    16    40    41   ar
    17    41    42   ar
    18    42    43   ar
    19    43    44   ar
    20    34    35   ar
    21    35    36   ar
    22    36    37   ar
    23    37    38    1
    24     3     4   ar
    25     4     5   ar
    26     5     6   ar
    27     6     7    1
    28     7     8    1
    29     8     9    1
    30     9    10    1
    31    10    13    1
    32    13    14    1
    33    14    15    1
    34    15    16   ar
    35    16    17   ar
    36    17    18   ar
    37    18    19   ar
    38    19    21    1
    39    21    22    2
    40    21    23    1
    41    19    20   ar
    42    10    11    1
    43    11    12    1
    44     6     1   ar
    45    12     7    1
    46    37    29   ar
    47    20    15   ar
    48    36    31   ar
    49    44    39   ar
    50    25    28    1
    51    23    24    1
@<TRIPOS>MOLECULE
*****
 46 51 0 0 0
SMALL
GASTEIGER

@<TRIPOS>ATOM
      1 C          13.6688   81.4450   24.7193 C.ar    1  UNL1        0.1713
      2 C          12.7806   80.4328   25.1241 C.ar    1  UNL1        0.0560
      3 C          11.4153   80.7029   25.2709 C.ar    1  UNL1        0.0732
      4 C          10.9607   82.0099   25.0456 C.ar    1  UNL1        0.1151
      5 N          11.8329   82.9803   24.6695 N.ar    1  UNL1       -0.2248
      6 C          13.1628   82.7404   24.5086 C.ar    1  UNL1        0.1660
      7 N          14.0264   83.8115   24.0962 N.pl3   1  UNL1       -0.2908
      8 C          13.9989   85.0767   24.8421 C.3     1  UNL1        0.0924
      9 C          14.8046   86.1702   24.1244 C.3     1  UNL1        0.0252
     10 C          14.5693   86.0876   22.6037 C.3     1  UNL1        0.0472
     11 C          15.0463   84.7266   22.0313 C.3     1  UNL1        0.0252
     12 C          15.0562   83.5931   23.0728 C.3     1  UNL1        0.0924
     13 C          15.2520   87.2577   21.8694 C.3     1  UNL1        0.2054
     14 O          14.3367   88.3312   21.6430 O.3     1  UNL1       -0.4755
     15 C          13.4398   88.4275   20.5663 C.ar    1  UNL1        0.1388
     16 C          12.0432   88.3551   20.7292 C.ar    1  UNL1        0.0369
     17 C          11.2007   88.4591   19.6207 C.ar    1  UNL1        0.0033
     18 C          11.7359   88.6318   18.3427 C.ar    1  UNL1        0.0066
     19 C          13.1269   88.7007   18.1589 C.ar    1  UNL1        0.0785
     20 C          13.9698   88.5953   19.2807 C.ar    1  UNL1        0.0433
     21 C          13.6926   88.8821   16.8036 C.2     1  UNL1        0.3381
     22 O          12.9939   88.6407   15.7822 O.2     1  UNL1       -0.2451
     23 O          15.0042   89.3216   16.6436 O.3     1  UNL1       -0.4771
     24 H          15.4013   89.4490   15.7203 H       1  UNL1        0.2954
     25 N          10.5294   79.6568   25.7025 N.am    1  UNL1       -0.2766
     26 C           9.5948   78.9851   24.8398 C.2     1  UNL1        0.2839
     27 O           9.4445   79.3590   23.6461 O.2     1  UNL1       -0.2665
     28 H          10.6224   79.3343   26.6903 H       1  UNL1        0.1553
     29 C           8.7749   77.8637   25.3301 C.ar    1  UNL1        0.1946
     30 O           8.6265   76.7443   24.6436 O.2     1  UNL1       -0.4492
     31 C           7.8439   75.9502   25.3325 C.ar    1  UNL1        0.1452
     32 C           7.4174   74.6730   24.9851 C.ar    1  UNL1        0.0375
     33 C           6.5754   73.9919   25.8816 C.ar    1  UNL1        0.0031
     34 C           6.1747   74.5936   27.1055 C.ar    1  UNL1        0.0002
     35 C           6.6325   75.8955   27.4206 C.ar    1  UNL1        0.0028
     36 C           7.4649   76.5417   26.5066 C.ar    1  UNL1        0.0337
     37 C           8.0719   77.7809   26.5385 C.ar    1  UNL1        0.0202
     38 C           8.0071   78.7802   27.6536 C.3     1  UNL1        0.0345
     39 C           5.2849   73.8648   28.0448 C.ar    1  UNL1        0.0000
     40 C           4.7020   74.5300   29.1403 C.ar    1  UNL1        0.0000
     41 C           3.8647   73.8412   30.0233 C.ar    1  UNL1        0.0000
     42 C           3.6009   72.4843   29.8249 C.ar    1  UNL1        0.0000
     43 C           4.1736   71.8129   28.7425 C.ar    1  UNL1        0.0000
     44 C           5.0110   72.4968   27.8557 C.ar    1  UNL1        0.0000
     45 C          15.6036   79.9033   24.3384 C.3     1  UNL1        0.2526
     46 O          15.0331   81.1975   24.4982 O.3     1  UNL1       -0.4686
@<TRIPOS>BOND
     1    45    46    1
     2    46     1    1
     3     1     2   ar
     4     2     3   ar
     5     3    25    1
     6    25    26   am
     7    26    27    2
     8    26    29    1
     9    29    30   ar
    10    30    31   ar
    11    31    32   ar
    12    32    33   ar
    13    33    34   ar
    14    34    39    1
    15    39    40   ar
    16    40    41   ar
    17    41    42   ar
    18    42    43   ar
    19    43    44   ar
    20    34    35   ar
    21    35    36   ar
    22    36    37   ar
    23    37    38    1
    24     3     4   ar
    25     4     5   ar
    26     5     6   ar
    27     6     7    1
    28     7     8    1
    29     8     9    1
    30     9    10    1
    31    10    13    1
    32    13    14    1
    33    14    15    1
    34    15    16   ar
    35    16    17   ar
    36    17    18   ar
    37    18    19   ar
    38    19    21    1
    39    21    22    2
    40    21    23    1
    41    19    20   ar
    42    10    11    1
    43    11    12    1
    44     6     1   ar
    45    12     7    1
    46    37    29   ar
    47    20    15   ar
    48    36    31   ar
    49    44    39   ar
    50    25    28    1
    51    23    24    1
@<TRIPOS>MOLECULE
*****
 46 51 0 0 0
SMALL
GASTEIGER

@<TRIPOS>ATOM
      1 C           9.4031   79.2250   24.2720 C.ar    1  UNL1        0.1713
      2 C          10.1412   80.3787   23.9533 C.ar    1  UNL1        0.0560
      3 C          10.6987   81.1675   24.9660 C.ar    1  UNL1        0.0732
      4 C          10.4716   80.8060   26.3014 C.ar    1  UNL1        0.1151
      5 N           9.7441   79.6973   26.5939 N.ar    1  UNL1       -0.2248
      6 C           9.2016   78.9076   25.6274 C.ar    1  UNL1        0.1660
      7 N           8.4538   77.7418   26.0086 N.pl3   1  UNL1       -0.2908
      8 C           9.1506   76.4536   26.1215 C.3     1  UNL1        0.0924
      9 C           8.1609   75.2934   26.3066 C.3     1  UNL1        0.0252
     10 C           6.9266   75.5036   25.4083 C.3     1  UNL1        0.0472
     11 C           6.1705   76.8056   25.7829 C.3     1  UNL1        0.0252
     12 C           7.0630   77.8586   26.4642 C.3     1  UNL1        0.0924
     13 C           5.9814   74.2879   25.4660 C.3     1  UNL1        0.2054
     14 O           6.1344   73.5712   26.6925 O.3     1  UNL1       -0.4755
     15 C           5.3533   73.7492   27.8463 C.ar    1  UNL1        0.1388
     16 C           4.6934   72.6857   28.4913 C.ar    1  UNL1        0.0369
     17 C           3.9318   72.9236   29.6370 C.ar    1  UNL1        0.0033
     18 C           3.8155   74.2172   30.1497 C.ar    1  UNL1        0.0066
     19 C           4.4617   75.2923   29.5172 C.ar    1  UNL1        0.0785
     20 C           5.2277   75.0449   28.3630 C.ar    1  UNL1        0.0433
     21 C           4.3361   76.6628   30.0609 C.2     1  UNL1        0.3381
     22 O           3.8499   76.8527   31.2087 O.2     1  UNL1       -0.2451
     23 O           4.7542   77.7574   29.3084 O.3     1  UNL1       -0.4771
     24 H           4.6726   78.6998   29.6711 H       1  UNL1        0.2954
     25 N          11.4344   82.3515   24.6166 N.am    1  UNL1       -0.2766
     26 C          12.8377   82.5341   24.8748 C.2     1  UNL1        0.2839
     27 O          13.4863   81.6688   25.5212 O.2     1  UNL1       -0.2665
     28 H          10.9201   83.0914   24.0910 H       1  UNL1        0.1553
     29 C          13.5468   83.7405   24.4146 C.ar    1  UNL1        0.1946
     30 O          13.1387   84.9595   24.7210 O.2     1  UNL1       -0.4492
     31 C          13.9648   85.8121   24.1656 C.ar    1  UNL1        0.1452
     32 C          13.9126   87.2005   24.2231 C.ar    1  UNL1        0.0375
     33 C          14.9112   87.9268   23.5510 C.ar    1  UNL1        0.0031
     34 C          15.9419   87.2586   22.8357 C.ar    1  UNL1        0.0002
     35 C          15.9583   85.8435   22.8033 C.ar    1  UNL1        0.0028
     36 C          14.9505   85.1562   23.4799 C.ar    1  UNL1        0.0337
     37 C          14.7124   83.8061   23.6409 C.ar    1  UNL1        0.0202
     38 C          15.5566   82.6810   23.1237 C.3     1  UNL1        0.0345
     39 C          16.9916   88.0361   22.1293 C.ar    1  UNL1        0.0000
     40 C          16.7537   88.5552   20.8423 C.ar    1  UNL1        0.0000
     41 C          17.7439   89.2868   20.1795 C.ar    1  UNL1        0.0000
     42 C          18.9800   89.5074   20.7907 C.ar    1  UNL1        0.0000
     43 C          19.2286   88.9971   22.0667 C.ar    1  UNL1        0.0000
     44 C          18.2418   88.2656   22.7347 C.ar    1  UNL1        0.0000
     45 C           8.9055   78.6489   21.8875 C.3     1  UNL1        0.2526
     46 O           8.8840   78.3734   23.2838 O.3     1  UNL1       -0.4686
@<TRIPOS>BOND
     1    45    46    1
     2    46     1    1
     3     1     2   ar
     4     2     3   ar
     5     3    25    1
     6    25    26   am
     7    26    27    2
     8    26    29    1
     9    29    30   ar
    10    30    31   ar
    11    31    32   ar
    12    32    33   ar
    13    33    34   ar
    14    34    39    1
    15    39    40   ar
    16    40    41   ar
    17    41    42   ar
    18    42    43   ar
    19    43    44   ar
    20    34    35   ar
    21    35    36   ar
    22    36    37   ar
    23    37    38    1
    24     3     4   ar
    25     4     5   ar
    26     5     6   ar
    27     6     7    1
    28     7     8    1
    29     8     9    1
    30     9    10    1
    31    10    13    1
    32    13    14    1
    33    14    15    1
    34    15    16   ar
    35    16    17   ar
    36    17    18   ar
    37    18    19   ar
    38    19    21    1
    39    21    22    2
    40    21    23    1
    41    19    20   ar
    42    10    11    1
    43    11    12    1
    44     6     1   ar
    45    12     7    1
    46    37    29   ar
    47    20    15   ar
    48    36    31   ar
    49    44    39   ar
    50    25    28    1
    51    23    24    1
@<TRIPOS>MOLECULE
*****
 46 51 0 0 0
SMALL
GASTEIGER

@<TRIPOS>ATOM
      1 C           9.3326   79.0604   23.9091 C.ar    1  UNL1        0.1713
      2 C          10.0742   80.2276   23.6535 C.ar    1  UNL1        0.0560
      3 C          10.5623   81.0045   24.7103 C.ar    1  UNL1        0.0732
      4 C          10.2621   80.6171   26.0239 C.ar    1  UNL1        0.1151
      5 N           9.5322   79.4956   26.2545 N.ar    1  UNL1       -0.2248
      6 C           9.0563   78.7171   25.2448 C.ar    1  UNL1        0.1660
      7 N           8.3017   77.5367   25.5619 N.pl3   1  UNL1       -0.2908
      8 C           6.9286   77.6818   26.0633 C.3     1  UNL1        0.0924
      9 C           6.3684   76.3421   26.5643 C.3     1  UNL1        0.0252
     10 C           7.4605   75.5633   27.3229 C.3     1  UNL1        0.0472
     11 C           8.6630   75.2327   26.3998 C.3     1  UNL1        0.0252
     12 C           8.8121   76.2044   25.2153 C.3     1  UNL1        0.0924
     13 C           6.8912   74.2800   27.9581 C.3     1  UNL1        0.2054
     14 O           6.8431   74.3848   29.3822 O.3     1  UNL1       -0.4755
     15 C           6.7810   75.5834   30.1120 C.ar    1  UNL1        0.1388
     16 C           5.6945   75.9131   30.9446 C.ar    1  UNL1        0.0369
     17 C           5.6893   77.1194   31.6475 C.ar    1  UNL1        0.0033
     18 C           6.7587   78.0092   31.5277 C.ar    1  UNL1        0.0066
     19 C           7.8493   77.7009   30.6977 C.ar    1  UNL1        0.0785
     20 C           7.8476   76.4833   29.9924 C.ar    1  UNL1        0.0433
     21 C           8.9810   78.6457   30.5706 C.2     1  UNL1        0.3381
     22 O           9.5599   79.0910   31.5984 O.2     1  UNL1       -0.2451
     23 O           9.4177   79.0527   29.3125 O.3     1  UNL1       -0.4771
     24 H          10.1914   79.6991   29.2142 H       1  UNL1        0.2954
     25 N          11.3028   82.2025   24.4245 N.am    1  UNL1       -0.2766
     26 C          12.6943   82.3846   24.7404 C.2     1  UNL1        0.2839
     27 O          13.3240   81.5035   25.3843 O.2     1  UNL1       -0.2665
     28 H          10.8037   82.9553   23.9026 H       1  UNL1        0.1553
     29 C          13.4123   83.6081   24.3437 C.ar    1  UNL1        0.1946
     30 O          12.9399   84.8166   24.5939 O.2     1  UNL1       -0.4492
     31 C          13.7942   85.6894   24.1182 C.ar    1  UNL1        0.1452
     32 C          13.6964   87.0760   24.1559 C.ar    1  UNL1        0.0375
     33 C          14.7379   87.8268   23.5831 C.ar    1  UNL1        0.0031
     34 C          15.8559   87.1843   22.9849 C.ar    1  UNL1        0.0002
     35 C          15.9162   85.7701   22.9687 C.ar    1  UNL1        0.0028
     36 C          14.8640   85.0581   23.5446 C.ar    1  UNL1        0.0337
     37 C          14.6493   83.7028   23.6939 C.ar    1  UNL1        0.0202
     38 C          15.5746   82.5995   23.2781 C.3     1  UNL1        0.0345
     39 C          16.9503   87.9875   22.3828 C.ar    1  UNL1        0.0000
     40 C          16.8228   88.5089   21.0812 C.ar    1  UNL1        0.0000
     41 C          17.8549   89.2648   20.5167 C.ar    1  UNL1        0.0000
     42 C          19.0234   89.5075   21.2419 C.ar    1  UNL1        0.0000
     43 C          19.1625   88.9952   22.5336 C.ar    1  UNL1        0.0000
     44 C          18.1333   88.2395   23.1035 C.ar    1  UNL1        0.0000
     45 C           8.5588   78.6585   21.5628 C.3     1  UNL1        0.2526
     46 O           8.8822   78.2206   22.8779 O.3     1  UNL1       -0.4686
@<TRIPOS>BOND
     1    45    46    1
     2    46     1    1
     3     1     2   ar
     4     2     3   ar
     5     3    25    1
     6    25    26   am
     7    26    27    2
     8    26    29    1
     9    29    30   ar
    10    30    31   ar
    11    31    32   ar
    12    32    33   ar
    13    33    34   ar
    14    34    39    1
    15    39    40   ar
    16    40    41   ar
    17    41    42   ar
    18    42    43   ar
    19    43    44   ar
    20    34    35   ar
    21    35    36   ar
    22    36    37   ar
    23    37    38    1
    24     3     4   ar
    25     4     5   ar
    26     5     6   ar
    27     6     7    1
    28     7     8    1
    29     8     9    1
    30     9    10    1
    31    10    13    1
    32    13    14    1
    33    14    15    1
    34    15    16   ar
    35    16    17   ar
    36    17    18   ar
    37    18    19   ar
    38    19    21    1
    39    21    22    2
    40    21    23    1
    41    19    20   ar
    42    10    11    1
    43    11    12    1
    44     6     1   ar
    45    12     7    1
    46    37    29   ar
    47    20    15   ar
    48    36    31   ar
    49    44    39   ar
    50    25    28    1
    51    23    24    1
@<TRIPOS>MOLECULE
*****
 46 51 0 0 0
SMALL
GASTEIGER

@<TRIPOS>ATOM
      1 C           8.6396   78.0256   25.1518 C.ar    1  UNL1        0.1713
      2 C           9.3538   79.2142   25.3854 C.ar    1  UNL1        0.0560
      3 C           9.8493   79.9671   24.3148 C.ar    1  UNL1        0.0732
      4 C           9.6538   79.4908   23.0107 C.ar    1  UNL1        0.1151
      5 N           8.9750   78.3336   22.8016 N.ar    1  UNL1       -0.2248
      6 C           8.4733   77.5896   23.8249 C.ar    1  UNL1        0.1660
      7 N           7.7539   76.3817   23.5301 N.pl3   1  UNL1       -0.2908
      8 C           8.4870   75.2294   22.9895 C.3     1  UNL1        0.0924
      9 C           7.5296   74.1230   22.5215 C.3     1  UNL1        0.0252
     10 C           6.3074   74.7448   21.8181 C.3     1  UNL1        0.0472
     11 C           5.5049   75.6580   22.7822 C.3     1  UNL1        0.0252
     12 C           6.3514   76.2261   23.9355 C.3     1  UNL1        0.0924
     13 C           5.3986   73.6570   21.2138 C.3     1  UNL1        0.2054
     14 O           5.1457   73.9042   19.8295 O.3     1  UNL1       -0.4755
     15 C           4.4455   75.0057   19.3104 C.ar    1  UNL1        0.1388
     16 C           3.0870   74.9421   18.9462 C.ar    1  UNL1        0.0369
     17 C           2.4430   76.0713   18.4368 C.ar    1  UNL1        0.0033
     18 C           3.1413   77.2705   18.2812 C.ar    1  UNL1        0.0066
     19 C           4.4987   77.3525   18.6336 C.ar    1  UNL1        0.0785
     20 C           5.1410   76.2103   19.1465 C.ar    1  UNL1        0.0433
     21 C           5.2377   78.6235   18.4666 C.2     1  UNL1        0.3381
     22 O           6.3909   78.7612   18.9573 O.2     1  UNL1       -0.2451
     23 O           4.6651   79.6813   17.7648 O.3     1  UNL1       -0.4771
     24 H           5.1623   80.5557   17.6446 H       1  UNL1        0.2954
     25 N          10.5912   81.1693   24.5787 N.am    1  UNL1       -0.2766
     26 C          12.0254   81.2613   24.5171 C.2     1  UNL1        0.2839
     27 O          12.7232   80.2332   24.3084 O.2     1  UNL1       -0.2665
     28 H          10.0401   82.0348   24.7671 H       1  UNL1        0.1553
     29 C          12.7162   82.5467   24.7183 C.ar    1  UNL1        0.1946
     30 O          12.9277   83.3971   23.7291 O.2     1  UNL1       -0.4492
     31 C          13.5631   84.4338   24.2184 C.ar    1  UNL1        0.1452
     32 C          13.9903   85.5653   23.5321 C.ar    1  UNL1        0.0375
     33 C          14.6562   86.5666   24.2604 C.ar    1  UNL1        0.0031
     34 C          14.8835   86.4235   25.6563 C.ar    1  UNL1        0.0002
     35 C          14.4313   85.2557   26.3163 C.ar    1  UNL1        0.0028
     36 C          13.7763   84.2826   25.5614 C.ar    1  UNL1        0.0337
     37 C          13.2187   83.0708   25.9159 C.ar    1  UNL1        0.0202
     38 C          13.1463   82.4887   27.2951 C.3     1  UNL1        0.0345
     39 C          15.5880   87.4876   26.4155 C.ar    1  UNL1        0.0000
     40 C          16.7939   88.0319   25.9338 C.ar    1  UNL1        0.0000
     41 C          17.4552   89.0338   26.6508 C.ar    1  UNL1        0.0000
     42 C          16.9232   89.5022   27.8540 C.ar    1  UNL1        0.0000
     43 C          15.7282   88.9699   28.3430 C.ar    1  UNL1        0.0000
     44 C          15.0621   87.9685   27.6298 C.ar    1  UNL1        0.0000
     45 C           8.7363   76.2311   26.8941 C.3     1  UNL1        0.2526
     46 O           8.0714   77.2779   26.1955 O.3     1  UNL1       -0.4686
@<TRIPOS>BOND
     1    45    46    1
     2    46     1    1
     3     1     2   ar
     4     2     3   ar
     5     3    25    1
     6    25    26   am
     7    26    27    2
     8    26    29    1
     9    29    30   ar
    10    30    31   ar
    11    31    32   ar
    12    32    33   ar
    13    33    34   ar
    14    34    39    1
    15    39    40   ar
    16    40    41   ar
    17    41    42   ar
    18    42    43   ar
    19    43    44   ar
    20    34    35   ar
    21    35    36   ar
    22    36    37   ar
    23    37    38    1
    24     3     4   ar
    25     4     5   ar
    26     5     6   ar
    27     6     7    1
    28     7     8    1
    29     8     9    1
    30     9    10    1
    31    10    13    1
    32    13    14    1
    33    14    15    1
    34    15    16   ar
    35    16    17   ar
    36    17    18   ar
    37    18    19   ar
    38    19    21    1
    39    21    22    2
    40    21    23    1
    41    19    20   ar
    42    10    11    1
    43    11    12    1
    44     6     1   ar
    45    12     7    1
    46    37    29   ar
    47    20    15   ar
    48    36    31   ar
    49    44    39   ar
    50    25    28    1
    51    23    24    1
@<TRIPOS>MOLECULE
*****
 46 51 0 0 0
SMALL
GASTEIGER

@<TRIPOS>ATOM
      1 C          13.4793   85.4888   24.0804 C.ar    1  UNL1        0.1713
      2 C          12.8380   84.6416   25.0014 C.ar    1  UNL1        0.0560
      3 C          13.0521   83.2591   24.9631 C.ar    1  UNL1        0.0732
      4 C          13.8851   82.7354   23.9643 C.ar    1  UNL1        0.1151
      5 N          14.4857   83.5648   23.0726 N.ar    1  UNL1       -0.2248
      6 C          14.3029   84.9132   23.0962 C.ar    1  UNL1        0.1660
      7 N          14.9802   85.7323   22.1299 N.pl3   1  UNL1       -0.2908
      8 C          16.0024   86.6811   22.5911 C.3     1  UNL1        0.0924
      9 C          16.4448   87.6239   21.4619 C.3     1  UNL1        0.0252
     10 C          15.2260   88.0478   20.6196 C.3     1  UNL1        0.0472
     11 C          14.5510   86.8235   19.9467 C.3     1  UNL1        0.0252
     12 C          14.8004   85.4996   20.6915 C.3     1  UNL1        0.0924
     13 C          15.6156   89.1032   19.5666 C.3     1  UNL1        0.2054
     14 O          14.5844   89.2663   18.5912 O.3     1  UNL1       -0.4755
     15 C          14.5887   88.7188   17.2976 C.ar    1  UNL1        0.1388
     16 C          14.4739   89.5067   16.1364 C.ar    1  UNL1        0.0369
     17 C          14.4862   88.9058   14.8762 C.ar    1  UNL1        0.0033
     18 C          14.6088   87.5199   14.7576 C.ar    1  UNL1        0.0066
     19 C          14.7189   86.7162   15.9045 C.ar    1  UNL1        0.0785
     20 C          14.7058   87.3288   17.1712 C.ar    1  UNL1        0.0433
     21 C          14.8470   85.2476   15.7771 C.2     1  UNL1        0.3381
     22 O          15.5179   84.5896   16.6179 O.2     1  UNL1       -0.2451
     23 O          14.2270   84.5775   14.7256 O.3     1  UNL1       -0.4771
     24 H          14.3083   83.5724   14.6291 H       1  UNL1        0.2954
     25 N          12.3722   82.4114   25.9035 N.am    1  UNL1       -0.2766
     26 C          11.1793   81.6664   25.6013 C.2     1  UNL1        0.2839
     27 O          10.6086   81.7989   24.4859 O.2     1  UNL1       -0.2665
     28 H          12.8150   82.2920   26.8405 H       1  UNL1        0.1553
     29 C          10.5814   80.7514   26.5888 C.ar    1  UNL1        0.1946
     30 O          10.6460   80.9760   27.8895 O.2     1  UNL1       -0.4492
     31 C          10.0333   79.9907   28.4991 C.ar    1  UNL1        0.1452
     32 C           9.8653   79.8174   29.8686 C.ar    1  UNL1        0.0375
     33 C           9.1666   78.6796   30.3089 C.ar    1  UNL1        0.0031
     34 C           8.6485   77.7373   29.3792 C.ar    1  UNL1        0.0002
     35 C           8.8414   77.9525   27.9935 C.ar    1  UNL1        0.0028
     36 C           9.5410   79.0912   27.5934 C.ar    1  UNL1        0.0337
     37 C           9.8681   79.5718   26.3416 C.ar    1  UNL1        0.0202
     38 C           9.4930   78.9640   25.0239 C.3     1  UNL1        0.0345
     39 C           7.9121   76.5391   29.8557 C.ar    1  UNL1        0.0000
     40 C           6.7981   76.6747   30.7059 C.ar    1  UNL1        0.0000
     41 C           6.1066   75.5447   31.1531 C.ar    1  UNL1        0.0000
     42 C           6.5181   74.2696   30.7593 C.ar    1  UNL1        0.0000
     43 C           7.6221   74.1216   29.9169 C.ar    1  UNL1        0.0000
     44 C           8.3168   75.2481   29.4658 C.ar    1  UNL1        0.0000
     45 C          12.4717   87.6398   23.2906 C.3     1  UNL1        0.2526
     46 O          13.3410   86.8852   24.1279 O.3     1  UNL1       -0.4686
@<TRIPOS>BOND
     1    45    46    1
     2    46     1    1
     3     1     2   ar
     4     2     3   ar
     5     3    25    1
     6    25    26   am
     7    26    27    2
     8    26    29    1
     9    29    30   ar
    10    30    31   ar
    11    31    32   ar
    12    32    33   ar
    13    33    34   ar
    14    34    39    1
    15    39    40   ar
    16    40    41   ar
    17    41    42   ar
    18    42    43   ar
    19    43    44   ar
    20    34    35   ar
    21    35    36   ar
    22    36    37   ar
    23    37    38    1
    24     3     4   ar
    25     4     5   ar
    26     5     6   ar
    27     6     7    1
    28     7     8    1
    29     8     9    1
    30     9    10    1
    31    10    13    1
    32    13    14    1
    33    14    15    1
    34    15    16   ar
    35    16    17   ar
    36    17    18   ar
    37    18    19   ar
    38    19    21    1
    39    21    22    2
    40    21    23    1
    41    19    20   ar
    42    10    11    1
    43    11    12    1
    44     6     1   ar
    45    12     7    1
    46    37    29   ar
    47    20    15   ar
    48    36    31   ar
    49    44    39   ar
    50    25    28    1
    51    23    24    1
