@<TRIPOS>MOLECULE
*****
 33 36 0 0 0
SMALL
GASTEIGER

@<TRIPOS>ATOM
      1 C          52.1911   13.6794  -21.9234 C.3     1  UNL1        0.2027
      2 F          53.4336   14.2888  -21.9548 F       1  UNL1       -0.2334
      3 C          51.6680   13.6350  -20.4805 C.3     1  UNL1        0.1259
      4 N          51.2574   12.2777  -20.1230 N.pl3   1  UNL1       -0.3157
      5 H          51.8969   11.7154  -19.5166 H       1  UNL1        0.1483
      6 C          48.9603   10.1545  -22.0814 C.ar    1  UNL1        0.2263
      7 C          47.7128   10.5013  -21.5570 C.ar    1  UNL1        0.0642
      8 C          47.6281   11.4578  -20.5332 C.ar    1  UNL1        0.0829
      9 C          48.8103   12.0492  -20.0568 C.ar    1  UNL1        0.0407
     10 C          50.0449   11.6792  -20.6062 C.ar    1  UNL1        0.1319
     11 N          50.0855   10.7458  -21.5956 N.ar    1  UNL1       -0.1969
     12 C          46.3134   11.8342  -19.9685 C.2     1  UNL1        0.3383
     13 O          46.1931   12.0781  -18.7372 O.2     1  UNL1       -0.2451
     14 O          45.1948   11.9229  -20.7933 O.3     1  UNL1       -0.4771
     15 H          44.2900   12.1798  -20.4170 H       1  UNL1        0.2954
     16 C          50.2620    8.5882  -23.4872 C.3     1  UNL1        0.2542
     17 O          49.0378    9.2028  -23.1022 O.3     1  UNL1       -0.4561
     18 C          51.2459   14.4513  -22.8551 C.3     1  UNL1        0.1429
     19 N          50.4684   13.5400  -23.7035 N.ar    1  UNL1       -0.3243
     20 C          50.9333   12.6598  -24.6282 C.ar    1  UNL1        0.0600
     21 C          52.2621   12.3932  -24.9770 C.ar    1  UNL1        0.0177
     22 C          52.5057   11.4399  -25.9822 C.ar    1  UNL1        0.0082
     23 C          51.4343   10.7756  -26.6196 C.ar    1  UNL1        0.0347
     24 BR         51.7915    9.4878  -27.9832 Br      1  UNL1       -0.0490
     25 C          50.1052   11.0599  -26.2590 C.ar    1  UNL1        0.0082
     26 C          49.8920   12.0074  -25.2598 C.ar    1  UNL1        0.0177
     27 C          48.7322   12.5033  -24.7102 C.ar    1  UNL1        0.0177
     28 C          47.3932   12.2181  -24.9699 C.ar    1  UNL1        0.0082
     29 C          46.4197   12.9167  -24.2332 C.ar    1  UNL1        0.0347
     30 BR         44.5677   12.5708  -24.5431 Br      1  UNL1       -0.0490
     31 C          46.8041   13.8736  -23.2672 C.ar    1  UNL1        0.0082
     32 C          48.1638   14.1425  -23.0266 C.ar    1  UNL1        0.0177
     33 C          49.1164   13.4365  -23.7680 C.ar    1  UNL1        0.0600
@<TRIPOS>BOND
     1    16    17    1
     2    17     6    1
     3     6     7   ar
     4     7     8   ar
     5     8    12    1
     6    12    13    2
     7    12    14    1
     8     8     9   ar
     9     9    10   ar
    10    10     4    1
    11     4     3    1
    12     3     1    1
    13     1     2    1
    14     1    18    1
    15    18    19    1
    16    19    20   ar
    17    20    21   ar
    18    21    22   ar
    19    22    23   ar
    20    23    24    1
    21    23    25   ar
    22    25    26   ar
    23    26    27   ar
    24    27    28   ar
    25    28    29   ar
    26    29    30    1
    27    29    31   ar
    28    31    32   ar
    29    32    33   ar
    30    10    11   ar
    31    11     6   ar
    32    33    19   ar
    33    26    20   ar
    34    33    27   ar
    35    14    15    1
    36     4     5    1
@<TRIPOS>MOLECULE
*****
 33 36 0 0 0
SMALL
GASTEIGER

@<TRIPOS>ATOM
      1 C          45.3309   12.1798  -25.0802 C.3     1  UNL1        0.2027
      2 F          44.1831   11.6335  -25.6283 F       1  UNL1       -0.2334
      3 C          46.4750   12.1240  -26.1025 C.3     1  UNL1        0.1259
      4 N          46.1267   12.8765  -27.3071 N.pl3   1  UNL1       -0.3157
      5 H          45.7535   13.8459  -27.1891 H       1  UNL1        0.1483
      6 C          46.7759   10.4815  -30.0388 C.ar    1  UNL1        0.2263
      7 C          46.4443   11.2258  -31.1736 C.ar    1  UNL1        0.0642
      8 C          45.9958   12.5485  -31.0336 C.ar    1  UNL1        0.0829
      9 C          45.8910   13.0972  -29.7443 C.ar    1  UNL1        0.0407
     10 C          46.2332   12.3233  -28.6278 C.ar    1  UNL1        0.1319
     11 N          46.6612   11.0437  -28.8049 N.ar    1  UNL1       -0.1969
     12 C          45.6409   13.3479  -32.2270 C.2     1  UNL1        0.3383
     13 O          44.8396   12.8911  -33.0867 O.2     1  UNL1       -0.2451
     14 O          46.1896   14.6144  -32.4119 O.3     1  UNL1       -0.4771
     15 H          45.9534   15.1701  -33.2253 H       1  UNL1        0.2954
     16 C          48.4618    8.7122  -29.6498 C.3     1  UNL1        0.2542
     17 O          47.2238    9.1656  -30.1850 O.3     1  UNL1       -0.4561
     18 C          45.0233   13.6176  -24.6381 C.3     1  UNL1        0.1429
     19 N          46.2504   14.3463  -24.2949 N.ar    1  UNL1       -0.3243
     20 C          46.8167   15.3870  -24.9600 C.ar    1  UNL1        0.0600
     21 C          46.3560   16.0285  -26.1153 C.ar    1  UNL1        0.0177
     22 C          47.1229   17.0855  -26.6378 C.ar    1  UNL1        0.0082
     23 C          48.3250   17.4819  -26.0105 C.ar    1  UNL1        0.0347
     24 BR         49.3493   18.9179  -26.7414 Br      1  UNL1       -0.0490
     25 C          48.7745   16.8224  -24.8528 C.ar    1  UNL1        0.0082
     26 C          47.9955   15.7796  -24.3557 C.ar    1  UNL1        0.0177
     27 C          48.1731   14.9485  -23.2736 C.ar    1  UNL1        0.0177
     28 C          49.1868   14.8799  -22.3200 C.ar    1  UNL1        0.0082
     29 C          49.0851   13.8905  -21.3255 C.ar    1  UNL1        0.0347
     30 BR         50.4425   13.7454  -19.9906 Br      1  UNL1       -0.0490
     31 C          47.9860   13.0027  -21.3098 C.ar    1  UNL1        0.0082
     32 C          46.9773   13.0939  -22.2861 C.ar    1  UNL1        0.0177
     33 C          47.0957   14.0852  -23.2653 C.ar    1  UNL1        0.0600
@<TRIPOS>BOND
     1    16    17    1
     2    17     6    1
     3     6     7   ar
     4     7     8   ar
     5     8    12    1
     6    12    13    2
     7    12    14    1
     8     8     9   ar
     9     9    10   ar
    10    10     4    1
    11     4     3    1
    12     3     1    1
    13     1     2    1
    14     1    18    1
    15    18    19    1
    16    19    20   ar
    17    20    21   ar
    18    21    22   ar
    19    22    23   ar
    20    23    24    1
    21    23    25   ar
    22    25    26   ar
    23    26    27   ar
    24    27    28   ar
    25    28    29   ar
    26    29    30    1
    27    29    31   ar
    28    31    32   ar
    29    32    33   ar
    30    10    11   ar
    31    11     6   ar
    32    33    19   ar
    33    26    20   ar
    34    33    27   ar
    35    14    15    1
    36     4     5    1
@<TRIPOS>MOLECULE
*****
 33 36 0 0 0
SMALL
GASTEIGER

@<TRIPOS>ATOM
      1 C          52.2105   13.5909  -21.9563 C.3     1  UNL1        0.2027
      2 F          53.5016   14.0841  -22.0333 F       1  UNL1       -0.2334
      3 C          51.7320   13.6065  -20.4974 C.3     1  UNL1        0.1259
      4 N          51.2681   12.2798  -20.0933 N.pl3   1  UNL1       -0.3157
      5 H          51.8679   11.7291  -19.4375 H       1  UNL1        0.1483
      6 C          48.9768   10.1978  -22.1020 C.ar    1  UNL1        0.2263
      7 C          47.7272   10.5391  -21.5790 C.ar    1  UNL1        0.0642
      8 C          47.6391   11.4779  -20.5391 C.ar    1  UNL1        0.0829
      9 C          48.8201   12.0574  -20.0455 C.ar    1  UNL1        0.0407
     10 C          50.0568   11.6934  -20.5940 C.ar    1  UNL1        0.1319
     11 N          50.1007   10.7772  -21.5992 N.ar    1  UNL1       -0.1969
     12 C          46.3221   11.8483  -19.9758 C.2     1  UNL1        0.3383
     13 O          46.2014   12.1013  -18.7464 O.2     1  UNL1       -0.2451
     14 O          45.2018   11.9212  -20.7997 O.3     1  UNL1       -0.4771
     15 H          44.2953   12.1738  -20.4243 H       1  UNL1        0.2954
     16 C          50.2761    8.6263  -23.5042 C.3     1  UNL1        0.2542
     17 O          49.0576    9.2637  -23.1387 O.3     1  UNL1       -0.4561
     18 C          51.3101   14.4381  -22.8667 C.3     1  UNL1        0.1429
     19 N          50.5036   13.5945  -23.7571 N.ar    1  UNL1       -0.3243
     20 C          49.1499   13.4884  -23.8064 C.ar    1  UNL1        0.0600
     21 C          48.2003   14.1727  -23.0393 C.ar    1  UNL1        0.0177
     22 C          46.8404   13.8876  -23.2582 C.ar    1  UNL1        0.0082
     23 C          46.4510   12.9342  -24.2251 C.ar    1  UNL1        0.0347
     24 BR         44.5985   12.5631  -24.5011 Br      1  UNL1       -0.0490
     25 C          47.4198   12.2531  -24.9833 C.ar    1  UNL1        0.0082
     26 C          48.7594   12.5551  -24.7472 C.ar    1  UNL1        0.0177
     27 C          49.9149   12.0569  -25.3036 C.ar    1  UNL1        0.0177
     28 C          50.1236   11.0912  -26.2863 C.ar    1  UNL1        0.0082
     29 C          51.4520   10.7881  -26.6355 C.ar    1  UNL1        0.0347
     30 BR         51.8034    9.4737  -27.9750 Br      1  UNL1       -0.0490
     31 C          52.5271   11.4489  -25.9998 C.ar    1  UNL1        0.0082
     32 C          52.2872   12.4189  -25.0097 C.ar    1  UNL1        0.0177
     33 C          50.9597   12.7074  -24.6777 C.ar    1  UNL1        0.0600
@<TRIPOS>BOND
     1    16    17    1
     2    17     6    1
     3     6     7   ar
     4     7     8   ar
     5     8    12    1
     6    12    13    2
     7    12    14    1
     8     8     9   ar
     9     9    10   ar
    10    10     4    1
    11     4     3    1
    12     3     1    1
    13     1     2    1
    14     1    18    1
    15    18    19    1
    16    19    20   ar
    17    20    21   ar
    18    21    22   ar
    19    22    23   ar
    20    23    24    1
    21    23    25   ar
    22    25    26   ar
    23    26    27   ar
    24    27    28   ar
    25    28    29   ar
    26    29    30    1
    27    29    31   ar
    28    31    32   ar
    29    32    33   ar
    30    10    11   ar
    31    11     6   ar
    32    33    19   ar
    33    26    20   ar
    34    33    27   ar
    35    14    15    1
    36     4     5    1
@<TRIPOS>MOLECULE
*****
 33 36 0 0 0
SMALL
GASTEIGER

@<TRIPOS>ATOM
      1 C          45.4709   12.6342  -25.0125 C.3     1  UNL1        0.2027
      2 F          44.1976   12.1840  -25.3161 F       1  UNL1       -0.2334
      3 C          46.0221   11.8644  -23.8038 C.3     1  UNL1        0.1259
      4 N          46.2580   12.7701  -22.6801 N.pl3   1  UNL1       -0.3157
      5 H          45.5860   12.7442  -21.8797 H       1  UNL1        0.1483
      6 C          48.1254   15.9358  -23.0127 C.ar    1  UNL1        0.2263
      7 C          49.4127   15.5664  -22.6153 C.ar    1  UNL1        0.0642
      8 C          49.6700   14.2418  -22.2285 C.ar    1  UNL1        0.0829
      9 C          48.6176   13.3111  -22.2511 C.ar    1  UNL1        0.0407
     10 C          47.3388   13.7151  -22.6564 C.ar    1  UNL1        0.1319
     11 N          47.1289   15.0092  -23.0213 N.ar    1  UNL1       -0.1969
     12 C          51.0287   13.8370  -21.8052 C.2     1  UNL1        0.3383
     13 O          51.9871   14.6541  -21.8671 O.2     1  UNL1       -0.2451
     14 O          51.2619   12.5477  -21.3335 O.3     1  UNL1       -0.4771
     15 H          52.1883   12.2602  -21.0412 H       1  UNL1        0.2954
     16 C          46.5798   17.8401  -23.3430 C.3     1  UNL1        0.2542
     17 O          47.8761   17.2559  -23.3986 O.3     1  UNL1       -0.4561
     18 C          46.3567   12.4657  -26.2552 C.3     1  UNL1        0.1429
     19 N          47.5994   13.2379  -26.1356 N.ar    1  UNL1       -0.3243
     20 C          47.7887   14.5592  -26.3895 C.ar    1  UNL1        0.0600
     21 C          46.8431   15.5047  -26.8019 C.ar    1  UNL1        0.0177
     22 C          47.2760   16.8255  -27.0175 C.ar    1  UNL1        0.0082
     23 C          48.6296   17.1805  -26.8236 C.ar    1  UNL1        0.0347
     24 BR         49.1925   18.9797  -27.1258 Br      1  UNL1       -0.0490
     25 C          49.5665   16.2155  -26.4133 C.ar    1  UNL1        0.0082
     26 C          49.1110   14.9152  -26.2059 C.ar    1  UNL1        0.0177
     27 C          49.7728   13.7701  -25.8266 C.ar    1  UNL1        0.0177
     28 C          51.1126   13.5370  -25.5226 C.ar    1  UNL1        0.0082
     29 C          51.4871   12.2267  -25.1743 C.ar    1  UNL1        0.0347
     30 BR         53.3082   11.8434  -24.7472 Br      1  UNL1       -0.0490
     31 C          50.5245   11.1929  -25.1405 C.ar    1  UNL1        0.0082
     32 C          49.1786   11.4565  -25.4535 C.ar    1  UNL1        0.0177
     33 C          48.8259   12.7657  -25.7957 C.ar    1  UNL1        0.0600
@<TRIPOS>BOND
     1    16    17    1
     2    17     6    1
     3     6     7   ar
     4     7     8   ar
     5     8    12    1
     6    12    13    2
     7    12    14    1
     8     8     9   ar
     9     9    10   ar
    10    10     4    1
    11     4     3    1
    12     3     1    1
    13     1     2    1
    14     1    18    1
    15    18    19    1
    16    19    20   ar
    17    20    21   ar
    18    21    22   ar
    19    22    23   ar
    20    23    24    1
    21    23    25   ar
    22    25    26   ar
    23    26    27   ar
    24    27    28   ar
    25    28    29   ar
    26    29    30    1
    27    29    31   ar
    28    31    32   ar
    29    32    33   ar
    30    10    11   ar
    31    11     6   ar
    32    33    19   ar
    33    26    20   ar
    34    33    27   ar
    35    14    15    1
    36     4     5    1
@<TRIPOS>MOLECULE
*****
 33 36 0 0 0
SMALL
GASTEIGER

@<TRIPOS>ATOM
      1 C          45.3151   12.2585  -25.0109 C.3     1  UNL1        0.2027
      2 F          44.1043   11.7313  -25.4256 F       1  UNL1       -0.2334
      3 C          46.3849   12.0167  -26.0854 C.3     1  UNL1        0.1259
      4 N          46.0984   12.8041  -27.2840 N.pl3   1  UNL1       -0.3157
      5 H          45.7603   13.7852  -27.1571 H       1  UNL1        0.1483
      6 C          46.8833   10.4936  -30.0525 C.ar    1  UNL1        0.2263
      7 C          46.4586   11.2135  -31.1718 C.ar    1  UNL1        0.0642
      8 C          45.9000   12.4909  -31.0087 C.ar    1  UNL1        0.0829
      9 C          45.7811   13.0196  -29.7124 C.ar    1  UNL1        0.0407
     10 C          46.2186   12.2712  -28.6118 C.ar    1  UNL1        0.1319
     11 N          46.7520   11.0352  -28.8111 N.ar    1  UNL1       -0.1969
     12 C          45.4458   13.2641  -32.1856 C.2     1  UNL1        0.3383
     13 O          45.9914   14.3628  -32.4774 O.2     1  UNL1       -0.2451
     14 O          44.4098   12.7846  -32.9831 O.3     1  UNL1       -0.4771
     15 H          44.0911   13.3060  -33.7911 H       1  UNL1        0.2954
     16 C          48.4934    8.7309  -29.4007 C.3     1  UNL1        0.2542
     17 O          47.4405    9.2229  -30.2217 O.3     1  UNL1       -0.4561
     18 C          45.1212   13.7530  -24.7175 C.3     1  UNL1        0.1429
     19 N          46.4026   14.4165  -24.4484 N.ar    1  UNL1       -0.3243
     20 C          47.2640   14.1838  -23.4238 C.ar    1  UNL1        0.0600
     21 C          47.1496   13.2423  -22.3947 C.ar    1  UNL1        0.0177
     22 C          48.1688   13.1905  -21.4268 C.ar    1  UNL1        0.0082
     23 C          49.2732   14.0686  -21.4959 C.ar    1  UNL1        0.0347
     24 BR         50.6422   13.9799  -20.1679 Br      1  UNL1       -0.0490
     25 C          49.3688   15.0112  -22.5350 C.ar    1  UNL1        0.0082
     26 C          48.3462   15.0407  -23.4810 C.ar    1  UNL1        0.0177
     27 C          48.1498   15.8419  -24.5822 C.ar    1  UNL1        0.0177
     28 C          48.9098   16.8822  -25.1132 C.ar    1  UNL1        0.0082
     29 C          48.4244   17.5265  -26.2654 C.ar    1  UNL1        0.0347
     30 BR         49.4200   18.9595  -27.0406 Br      1  UNL1       -0.0490
     31 C          47.2041   17.1209  -26.8509 C.ar    1  UNL1        0.0082
     32 C          46.4564   16.0682  -26.2928 C.ar    1  UNL1        0.0177
     33 C          46.9566   15.4393  -25.1483 C.ar    1  UNL1        0.0600
@<TRIPOS>BOND
     1    16    17    1
     2    17     6    1
     3     6     7   ar
     4     7     8   ar
     5     8    12    1
     6    12    13    2
     7    12    14    1
     8     8     9   ar
     9     9    10   ar
    10    10     4    1
    11     4     3    1
    12     3     1    1
    13     1     2    1
    14     1    18    1
    15    18    19    1
    16    19    20   ar
    17    20    21   ar
    18    21    22   ar
    19    22    23   ar
    20    23    24    1
    21    23    25   ar
    22    25    26   ar
    23    26    27   ar
    24    27    28   ar
    25    28    29   ar
    26    29    30    1
    27    29    31   ar
    28    31    32   ar
    29    32    33   ar
    30    10    11   ar
    31    11     6   ar
    32    33    19   ar
    33    26    20   ar
    34    33    27   ar
    35    14    15    1
    36     4     5    1
@<TRIPOS>MOLECULE
*****
 33 36 0 0 0
SMALL
GASTEIGER

@<TRIPOS>ATOM
      1 C          45.4930   12.7221  -24.9230 C.3     1  UNL1        0.2027
      2 F          44.1738   12.3893  -25.1780 F       1  UNL1       -0.2334
      3 C          46.0230   11.8903  -23.7463 C.3     1  UNL1        0.1259
      4 N          46.3314   12.7508  -22.6048 N.pl3   1  UNL1       -0.3157
      5 H          45.7158   12.6872  -21.7621 H       1  UNL1        0.1483
      6 C          48.1734   15.9226  -23.0127 C.ar    1  UNL1        0.2263
      7 C          49.4715   15.5640  -22.6414 C.ar    1  UNL1        0.0642
      8 C          49.7448   14.2448  -22.2471 C.ar    1  UNL1        0.0829
      9 C          48.6973   13.3084  -22.2359 C.ar    1  UNL1        0.0407
     10 C          47.4073   13.7015  -22.6157 C.ar    1  UNL1        0.1319
     11 N          47.1820   14.9907  -22.9888 N.ar    1  UNL1       -0.1969
     12 C          51.1151   13.8515  -21.8512 C.2     1  UNL1        0.3383
     13 O          51.3285   12.7293  -21.3172 O.2     1  UNL1       -0.2451
     14 O          52.1835   14.7186  -22.0652 O.3     1  UNL1       -0.4771
     15 H          53.1257   14.4593  -21.7979 H       1  UNL1        0.2954
     16 C          46.6070   17.8098  -23.3423 C.3     1  UNL1        0.2542
     17 O          47.9080   17.2373  -23.4062 O.3     1  UNL1       -0.4561
     18 C          46.3094   12.4941  -26.2032 C.3     1  UNL1        0.1429
     19 N          47.5810   13.2265  -26.1648 N.ar    1  UNL1       -0.3243
     20 C          48.8073   12.7520  -25.8226 C.ar    1  UNL1        0.0600
     21 C          49.1572   11.4497  -25.4483 C.ar    1  UNL1        0.0177
     22 C          50.5008   11.1917  -25.1216 C.ar    1  UNL1        0.0082
     23 C          51.4646   12.2234  -25.1696 C.ar    1  UNL1        0.0347
     24 BR         53.2815   11.8478  -24.7186 Br      1  UNL1       -0.0490
     25 C          51.0934   13.5271  -25.5437 C.ar    1  UNL1        0.0082
     26 C          49.7565   13.7551  -25.8631 C.ar    1  UNL1        0.0177
     27 C          49.0953   14.9008  -26.2417 C.ar    1  UNL1        0.0177
     28 C          49.5461   16.2055  -26.4326 C.ar    1  UNL1        0.0082
     29 C          48.6023   17.1754  -26.8159 C.ar    1  UNL1        0.0347
     30 BR         49.1579   18.9810  -27.0929 Br      1  UNL1       -0.0490
     31 C          47.2460   16.8218  -26.9952 C.ar    1  UNL1        0.0082
     32 C          46.8184   15.4968  -26.7942 C.ar    1  UNL1        0.0177
     33 C          47.7720   14.5470  -26.4150 C.ar    1  UNL1        0.0600
@<TRIPOS>BOND
     1    16    17    1
     2    17     6    1
     3     6     7   ar
     4     7     8   ar
     5     8    12    1
     6    12    13    2
     7    12    14    1
     8     8     9   ar
     9     9    10   ar
    10    10     4    1
    11     4     3    1
    12     3     1    1
    13     1     2    1
    14     1    18    1
    15    18    19    1
    16    19    20   ar
    17    20    21   ar
    18    21    22   ar
    19    22    23   ar
    20    23    24    1
    21    23    25   ar
    22    25    26   ar
    23    26    27   ar
    24    27    28   ar
    25    28    29   ar
    26    29    30    1
    27    29    31   ar
    28    31    32   ar
    29    32    33   ar
    30    10    11   ar
    31    11     6   ar
    32    33    19   ar
    33    26    20   ar
    34    33    27   ar
    35    14    15    1
    36     4     5    1
@<TRIPOS>MOLECULE
*****
 33 36 0 0 0
SMALL
GASTEIGER

@<TRIPOS>ATOM
      1 C          46.6616   12.2280  -20.2898 C.3     1  UNL1        0.2027
      2 F          45.6505   12.2666  -19.3453 F       1  UNL1       -0.2334
      3 C          48.0238   12.1085  -19.5914 C.3     1  UNL1        0.1259
      4 N          48.8217   13.3146  -19.8088 N.pl3   1  UNL1       -0.3157
      5 H          48.9779   13.9527  -18.9955 H       1  UNL1        0.1483
      6 C          49.1289   14.8755  -23.1388 C.ar    1  UNL1        0.2263
      7 C          50.3616   14.3912  -23.5831 C.ar    1  UNL1        0.0642
      8 C          51.1087   13.5298  -22.7643 C.ar    1  UNL1        0.0829
      9 C          50.5938   13.1716  -21.5070 C.ar    1  UNL1        0.0407
     10 C          49.3534   13.6745  -21.0932 C.ar    1  UNL1        0.1319
     11 N          48.6607   14.5095  -21.9146 N.ar    1  UNL1       -0.1969
     12 C          52.4159   13.0097  -23.2224 C.2     1  UNL1        0.3383
     13 O          52.5786   12.6581  -24.4224 O.2     1  UNL1       -0.2451
     14 O          53.4804   12.9037  -22.3309 O.3     1  UNL1       -0.4771
     15 H          54.3796   12.5489  -22.6340 H       1  UNL1        0.2954
     16 C          47.3302   16.5434  -23.4654 C.3     1  UNL1        0.2542
     17 O          48.3889   15.7313  -23.9596 O.3     1  UNL1       -0.4561
     18 C          46.3965   11.0515  -21.2399 C.3     1  UNL1        0.1429
     19 N          47.0896   11.2314  -22.5213 N.ar    1  UNL1       -0.3243
     20 C          48.2651   10.6782  -22.9192 C.ar    1  UNL1        0.0600
     21 C          49.0840    9.7879  -22.2154 C.ar    1  UNL1        0.0177
     22 C          50.2731    9.3539  -22.8287 C.ar    1  UNL1        0.0082
     23 C          50.6262    9.8097  -24.1183 C.ar    1  UNL1        0.0347
     24 BR         52.2473    9.2078  -24.9278 Br      1  UNL1       -0.0490
     25 C          49.7930   10.7079  -24.8085 C.ar    1  UNL1        0.0082
     26 C          48.6208   11.1210  -24.1786 C.ar    1  UNL1        0.0177
     27 C          47.6302   11.9874  -24.5801 C.ar    1  UNL1        0.0177
     28 C          47.4733   12.7315  -25.7478 C.ar    1  UNL1        0.0082
     29 C          46.3346   13.5501  -25.8551 C.ar    1  UNL1        0.0347
     30 BR         46.0630   14.5943  -27.4304 Br      1  UNL1       -0.0490
     31 C          45.3921   13.6057  -24.8038 C.ar    1  UNL1        0.0082
     32 C          45.5766   12.8445  -23.6352 C.ar    1  UNL1        0.0177
     33 C          46.7140   12.0357  -23.5483 C.ar    1  UNL1        0.0600
@<TRIPOS>BOND
     1    16    17    1
     2    17     6    1
     3     6     7   ar
     4     7     8   ar
     5     8    12    1
     6    12    13    2
     7    12    14    1
     8     8     9   ar
     9     9    10   ar
    10    10     4    1
    11     4     3    1
    12     3     1    1
    13     1     2    1
    14     1    18    1
    15    18    19    1
    16    19    20   ar
    17    20    21   ar
    18    21    22   ar
    19    22    23   ar
    20    23    24    1
    21    23    25   ar
    22    25    26   ar
    23    26    27   ar
    24    27    28   ar
    25    28    29   ar
    26    29    30    1
    27    29    31   ar
    28    31    32   ar
    29    32    33   ar
    30    10    11   ar
    31    11     6   ar
    32    33    19   ar
    33    26    20   ar
    34    33    27   ar
    35    14    15    1
    36     4     5    1
@<TRIPOS>MOLECULE
*****
 33 36 0 0 0
SMALL
GASTEIGER

@<TRIPOS>ATOM
      1 C          47.3481   11.1232  -22.4158 C.3     1  UNL1        0.2027
      2 F          47.1404   10.1091  -21.4968 F       1  UNL1       -0.2334
      3 C          46.2456   12.1833  -22.2812 C.3     1  UNL1        0.1259
      4 N          45.4555   12.2635  -23.5091 N.pl3   1  UNL1       -0.3157
      5 H          44.4447   12.0010  -23.4601 H       1  UNL1        0.1483
      6 C          47.0201   12.0045  -26.8415 C.ar    1  UNL1        0.2263
      7 C          47.1142   13.3424  -27.2321 C.ar    1  UNL1        0.0642
      8 C          46.6501   14.3532  -26.3758 C.ar    1  UNL1        0.0829
      9 C          46.0981   13.9919  -25.1352 C.ar    1  UNL1        0.0407
     10 C          46.0203   12.6405  -24.7743 C.ar    1  UNL1        0.1319
     11 N          46.4783   11.6898  -25.6335 N.ar    1  UNL1       -0.1969
     12 C          46.7435   15.7743  -26.7771 C.2     1  UNL1        0.3383
     13 O          46.3667   16.6859  -25.9916 O.2     1  UNL1       -0.2451
     14 O          47.2493   16.1185  -28.0280 O.3     1  UNL1       -0.4771
     15 H          47.3176   17.0883  -28.3128 H       1  UNL1        0.2954
     16 C          46.8430   10.6833  -28.9265 C.3     1  UNL1        0.2542
     17 O          47.4857   11.0027  -27.6978 O.3     1  UNL1       -0.4561
     18 C          48.7461   11.7134  -22.1826 C.3     1  UNL1        0.1429
     19 N          49.3440   12.1857  -23.4374 N.ar    1  UNL1       -0.3243
     20 C          49.9105   11.4423  -24.4236 C.ar    1  UNL1        0.0600
     21 C          50.0389   10.0505  -24.4923 C.ar    1  UNL1        0.0177
     22 C          50.6797    9.4980  -25.6159 C.ar    1  UNL1        0.0082
     23 C          51.1794   10.3307  -26.6419 C.ar    1  UNL1        0.0347
     24 BR         52.0478    9.5560  -28.1556 Br      1  UNL1       -0.0490
     25 C          51.0451   11.7276  -26.5534 C.ar    1  UNL1        0.0082
     26 C          50.4056   12.2486  -25.4304 C.ar    1  UNL1        0.0177
     27 C          50.1411   13.5456  -25.0553 C.ar    1  UNL1        0.0177
     28 C          50.4225   14.7610  -25.6762 C.ar    1  UNL1        0.0082
     29 C          50.0253   15.9398  -25.0197 C.ar    1  UNL1        0.0347
     30 BR         50.3825   17.6364  -25.8193 Br      1  UNL1       -0.0490
     31 C          49.3657   15.8756  -23.7717 C.ar    1  UNL1        0.0082
     32 C          49.0955   14.6346  -23.1670 C.ar    1  UNL1        0.0177
     33 C          49.4968   13.4742  -23.8362 C.ar    1  UNL1        0.0600
@<TRIPOS>BOND
     1    16    17    1
     2    17     6    1
     3     6     7   ar
     4     7     8   ar
     5     8    12    1
     6    12    13    2
     7    12    14    1
     8     8     9   ar
     9     9    10   ar
    10    10     4    1
    11     4     3    1
    12     3     1    1
    13     1     2    1
    14     1    18    1
    15    18    19    1
    16    19    20   ar
    17    20    21   ar
    18    21    22   ar
    19    22    23   ar
    20    23    24    1
    21    23    25   ar
    22    25    26   ar
    23    26    27   ar
    24    27    28   ar
    25    28    29   ar
    26    29    30    1
    27    29    31   ar
    28    31    32   ar
    29    32    33   ar
    30    10    11   ar
    31    11     6   ar
    32    33    19   ar
    33    26    20   ar
    34    33    27   ar
    35    14    15    1
    36     4     5    1
@<TRIPOS>MOLECULE
*****
 33 36 0 0 0
SMALL
GASTEIGER

@<TRIPOS>ATOM
      1 C          46.6651   12.0973  -20.2554 C.3     1  UNL1        0.2027
      2 F          45.6677   12.0061  -19.3000 F       1  UNL1       -0.2334
      3 C          48.0423   12.0428  -19.5789 C.3     1  UNL1        0.1259
      4 N          48.7703   13.2933  -19.7910 N.pl3   1  UNL1       -0.3157
      5 H          48.8557   13.9539  -18.9852 H       1  UNL1        0.1483
      6 C          49.1342   14.8745  -23.1057 C.ar    1  UNL1        0.2263
      7 C          50.3794   14.4018  -23.5270 C.ar    1  UNL1        0.0642
      8 C          51.1160   13.5416  -22.6975 C.ar    1  UNL1        0.0829
      9 C          50.5780   13.1728  -21.4530 C.ar    1  UNL1        0.0407
     10 C          49.3255   13.6641  -21.0622 C.ar    1  UNL1        0.1319
     11 N          48.6436   14.4984  -21.8934 N.ar    1  UNL1       -0.1969
     12 C          52.4363   13.0338  -23.1312 C.2     1  UNL1        0.3383
     13 O          52.6239   12.6822  -24.3275 O.2     1  UNL1       -0.2451
     14 O          53.4856   12.9396  -22.2206 O.3     1  UNL1       -0.4771
     15 H          54.3935   12.5933  -22.5070 H       1  UNL1        0.2954
     16 C          47.3862   16.5929  -23.4459 C.3     1  UNL1        0.2542
     17 O          48.4048   15.7292  -23.9371 O.3     1  UNL1       -0.4561
     18 C          46.4756   10.9589  -21.2681 C.3     1  UNL1        0.1429
     19 N          47.1692   11.2439  -22.5301 N.ar    1  UNL1       -0.3243
     20 C          46.7630   12.0560  -23.5408 C.ar    1  UNL1        0.0600
     21 C          45.6010   12.8325  -23.6124 C.ar    1  UNL1        0.0177
     22 C          45.3816   13.5924  -24.7756 C.ar    1  UNL1        0.0082
     23 C          46.3111   13.5661  -25.8391 C.ar    1  UNL1        0.0347
     24 BR         45.9886   14.6046  -27.4085 Br      1  UNL1       -0.0490
     25 C          47.4711   12.7762  -25.7509 C.ar    1  UNL1        0.0082
     26 C          47.6645   12.0341  -24.5876 C.ar    1  UNL1        0.0177
     27 C          48.6701   11.1714  -24.2167 C.ar    1  UNL1        0.0177
     28 C          49.8245   10.7608  -24.8804 C.ar    1  UNL1        0.0082
     29 C          50.6639    9.8406  -24.2269 C.ar    1  UNL1        0.0347
     30 BR         52.2604    9.2393  -25.0843 Br      1  UNL1       -0.0490
     31 C          50.3316    9.3574  -22.9413 C.ar    1  UNL1        0.0082
     32 C          49.1587    9.7881  -22.2950 C.ar    1  UNL1        0.0177
     33 C          48.3382   10.7044  -22.9604 C.ar    1  UNL1        0.0600
@<TRIPOS>BOND
     1    16    17    1
     2    17     6    1
     3     6     7   ar
     4     7     8   ar
     5     8    12    1
     6    12    13    2
     7    12    14    1
     8     8     9   ar
     9     9    10   ar
    10    10     4    1
    11     4     3    1
    12     3     1    1
    13     1     2    1
    14     1    18    1
    15    18    19    1
    16    19    20   ar
    17    20    21   ar
    18    21    22   ar
    19    22    23   ar
    20    23    24    1
    21    23    25   ar
    22    25    26   ar
    23    26    27   ar
    24    27    28   ar
    25    28    29   ar
    26    29    30    1
    27    29    31   ar
    28    31    32   ar
    29    32    33   ar
    30    10    11   ar
    31    11     6   ar
    32    33    19   ar
    33    26    20   ar
    34    33    27   ar
    35    14    15    1
    36     4     5    1
