@<TRIPOS>MOLECULE
*****
 55 62 0 0 0
SMALL
GASTEIGER

@<TRIPOS>ATOM
      1 C          58.7256   81.6223    7.6758 C.ar    1  UNL1        0.0642
      2 N          59.3413   82.6613    7.0567 N.ar    1  UNL1       -0.2493
      3 C          59.7022   83.7960    7.6959 C.ar    1  UNL1        0.0866
      4 C          60.2626   84.8412    6.9545 C.ar    1  UNL1        0.0193
      5 C          60.5420   86.0646    7.5606 C.ar    1  UNL1        0.0016
      6 C          60.1975   86.2819    8.9020 C.ar    1  UNL1        0.0018
      7 C          59.6103   85.2335    9.6315 C.ar    1  UNL1        0.0075
      8 C          59.4660   83.9391    9.0806 C.ar    1  UNL1        0.0810
      9 C          59.0306   82.7921    9.8253 C.ar    1  UNL1        0.2293
     10 C          58.5616   81.6618    9.0879 C.ar    1  UNL1        0.0773
     11 C          57.9730   80.5982    9.7930 C.2     1  UNL1        0.0169
     12 C          57.8964   80.6272   11.1740 C.2     1  UNL1        0.1157
     13 C          58.4902   81.6661   11.8770 C.2     1  UNL1        0.4229
     14 O          58.4990   81.6078   13.1385 O.2     1  UNL1       -0.2135
     15 N          59.0904   82.7100   11.2148 N.am    1  UNL1       -0.0906
     16 C          60.4778   87.5880    9.5555 C.ar    1  UNL1        0.0192
     17 C          59.4920   88.2451   10.3143 C.ar    1  UNL1        0.0988
     18 N          59.7785   89.4039   10.9640 N.ar    1  UNL1       -0.2438
     19 C          61.0107   89.9728   10.9069 C.ar    1  UNL1        0.0813
     20 C          61.2729   91.1538   11.6108 C.ar    1  UNL1        0.0191
     21 C          62.5463   91.7294   11.5610 C.ar    1  UNL1        0.0015
     22 C          63.5601   91.1291   10.8072 C.ar    1  UNL1        0.0001
     23 C          63.3070   89.9486   10.1009 C.ar    1  UNL1        0.0015
     24 C          62.0320   89.3643   10.1462 C.ar    1  UNL1        0.0177
     25 C          61.7548   88.1694    9.4705 C.ar    1  UNL1        0.0030
     26 C          59.9455   83.5752   11.9975 C.ar    1  UNL1        0.2270
     27 C          59.4014   84.6432   12.7234 C.ar    1  UNL1        0.0691
     28 C          60.2391   85.5748   13.3332 C.ar    1  UNL1        0.0060
     29 C          61.6355   85.4454   13.2534 C.ar    1  UNL1        0.0043
     30 C          62.1972   84.2982   12.6277 C.ar    1  UNL1        0.0773
     31 C          61.3357   83.3898   11.9844 C.ar    1  UNL1        0.0729
     32 C          62.4620   86.5626   13.7635 C.ar    1  UNL1       -0.0000
     33 C          63.1022   87.4309   12.8689 C.ar    1  UNL1        0.0001
     34 C          63.8391   88.5181   13.3418 C.ar    1  UNL1        0.0045
     35 C          63.9304   88.7727   14.7206 C.ar    1  UNL1        0.0534
     36 C          63.2893   87.8983   15.6173 C.ar    1  UNL1        0.0045
     37 C          62.5556   86.8070   15.1413 C.ar    1  UNL1        0.0001
     38 C          64.7036   89.9410   15.2038 C.2     1  UNL1        0.2458
     39 O          64.3552   90.5099   16.2748 O.2     1  UNL1       -0.2701
     40 N          65.8548   90.4193   14.4874 N.am    1  UNL1       -0.3024
     41 H          66.2127   89.8721   13.6728 H       1  UNL1        0.1497
     42 C          66.5836   91.6221   14.9050 C.3     1  UNL1        0.0746
     43 C          66.2841   92.7873   13.9539 C.3     1  UNL1        0.0369
     44 C          67.0116   94.0675   14.4104 C.3     1  UNL1        0.0738
     45 N          68.3873   93.8346   14.9244 N.3     1  UNL1       -0.2714
     46 C          68.4887   94.0537   16.3774 C.3     1  UNL1        0.0896
     47 C          68.9629   92.5351   14.5210 C.3     1  UNL1        0.0738
     48 C          68.1017   91.3367   14.9689 C.3     1  UNL1        0.0369
     49 C          63.6923   84.0484   12.5630 C.3     1  UNL1        0.4188
     50 F          64.1942   84.5521   11.3778 F       1  UNL1       -0.1659
     51 F          63.9631   82.6915   12.6139 F       1  UNL1       -0.1659
     52 F          64.3460   84.6418   13.6281 F       1  UNL1       -0.1659
     53 C          57.2480   80.7756    5.7932 C.3     1  UNL1        0.0063
     54 C          58.3317   80.4212    6.8241 C.3     1  UNL1        0.0405
     55 C          59.5645   79.8484    6.1154 C.3     1  UNL1        0.0063
@<TRIPOS>BOND
     1    53    54    1
     2    54    55    1
     3    54     1    1
     4     1     2   ar
     5     2     3   ar
     6     3     4   ar
     7     4     5   ar
     8     5     6   ar
     9     6    16    1
    10    16    17   ar
    11    17    18   ar
    12    18    19   ar
    13    19    20   ar
    14    20    21   ar
    15    21    22   ar
    16    22    23   ar
    17    23    24   ar
    18    24    25   ar
    19     6     7   ar
    20     7     8   ar
    21     8     9   ar
    22     9    10   ar
    23    10    11    1
    24    11    12    2
    25    12    13    1
    26    13    14    2
    27    13    15    1
    28    15    26    1
    29    26    27   ar
    30    27    28   ar
    31    28    29   ar
    32    29    32    1
    33    32    33   ar
    34    33    34   ar
    35    34    35   ar
    36    35    38    1
    37    38    39    2
    38    38    40   am
    39    40    42    1
    40    42    43    1
    41    43    44    1
    42    44    45    1
    43    45    46    1
    44    45    47    1
    45    47    48    1
    46    35    36   ar
    47    36    37   ar
    48    29    30   ar
    49    30    49    1
    50    49    50    1
    51    49    51    1
    52    49    52    1
    53    30    31   ar
    54    10     1   ar
    55    31    26   ar
    56     8     3   ar
    57    15     9    1
    58    37    32   ar
    59    25    16   ar
    60    48    42    1
    61    24    19   ar
    62    40    41    1
