@<TRIPOS>MOLECULE
*****
 39 42 0 0 0
SMALL
GASTEIGER

@<TRIPOS>ATOM
      1 N         -26.5367   -8.3612  -12.3514 N.3     1  UNL1       -0.2921
      2 H         -27.3718   -8.6780  -12.8986 H       1  UNL1        0.1234
      3 C         -27.0144   -7.8760  -11.0481 C.3     1  UNL1        0.1166
      4 C         -26.7286   -8.8996   -9.9505 C.3     1  UNL1        0.2224
      5 O         -25.6104   -8.4749   -9.1746 O.3     1  UNL1       -0.4739
      6 C         -19.0346   -9.8459   -9.9756 C.3     1  UNL1        0.0540
      7 C         -20.4543  -10.1934  -10.2856 C.ar    1  UNL1        0.0803
      8 N         -20.7896  -11.1376  -11.1966 N.ar    1  UNL1       -0.1770
      9 N         -22.1109  -11.1732  -11.2937 N.ar    1  UNL1       -0.2759
     10 C         -22.6255  -10.2595  -10.4575 C.ar    1  UNL1        0.0782
     11 C         -23.9663   -9.9275  -10.2967 C.ar    1  UNL1        0.0554
     12 C         -24.2885   -8.8860   -9.3982 C.ar    1  UNL1        0.1403
     13 C         -23.2575   -8.2288   -8.6911 C.ar    1  UNL1        0.0435
     14 C         -21.9018   -8.5950   -8.8519 C.ar    1  UNL1        0.0811
     15 C         -21.6195   -9.6212   -9.7761 C.ar    1  UNL1        0.0387
     16 H         -22.6401  -11.8012  -11.9386 H       1  UNL1        0.1889
     17 C         -20.8784   -7.9196   -8.0329 C.2     1  UNL1        0.3382
     18 O         -20.4337   -8.4604   -6.9868 O.2     1  UNL1       -0.2451
     19 O         -20.4545   -6.6387   -8.3756 O.3     1  UNL1       -0.4771
     20 H         -19.7718   -6.1483   -7.8103 H       1  UNL1        0.2954
     21 C         -25.8842   -7.2920  -13.1196 C.3     1  UNL1        0.1029
     22 C         -25.2686   -6.2547  -12.1675 C.3     1  UNL1        0.1484
     23 O         -25.6046   -4.9543  -12.5820 O.3     1  UNL1       -0.3786
     24 H         -26.5306   -4.7786  -12.2698 H       1  UNL1        0.2108
     25 C         -23.7643   -6.4024  -12.1429 C.ar    1  UNL1        0.0069
     26 C         -22.9740   -5.4677  -11.4550 C.ar    1  UNL1       -0.0018
     27 C         -21.5879   -5.6245  -11.3964 C.ar    1  UNL1        0.0011
     28 C         -20.9756   -6.7134  -12.0208 C.ar    1  UNL1        0.0158
     29 C         -21.7471   -7.6559  -12.7204 C.ar    1  UNL1        0.0642
     30 C         -23.1422   -7.5048  -12.7568 C.ar    1  UNL1        0.0139
     31 N         -21.1496   -8.8028  -13.3455 N.pl3   1  UNL1       -0.2188
     32 H         -20.2003   -9.1016  -13.0279 H       1  UNL1        0.1734
     33 S         -22.0274   -9.9523  -14.3077 S.O2    1  UNL1        0.0522
     34 O         -21.3788  -11.2990  -14.1561 O.2     1  UNL1       -0.1545
     35 O         -23.4561  -10.0582  -13.8505 O.2     1  UNL1       -0.1545
     36 C         -21.9546   -9.4632  -16.0320 C.3     1  UNL1        0.1488
     37 C         -20.9382   -8.3631  -16.3192 C.3     1  UNL1        0.0255
     38 C         -22.0690   -7.4284  -16.7264 C.3     1  UNL1        0.0036
     39 C         -23.0860   -8.5245  -16.4393 C.3     1  UNL1        0.0255
@<TRIPOS>BOND
     1     6     7    1
     2     7     8   ar
     3     8     9   ar
     4     9    10   ar
     5    10    11   ar
     6    11    12   ar
     7    12     5    1
     8     5     4    1
     9     4     3    1
    10     3     1    1
    11     1    21    1
    12    21    22    1
    13    22    23    1
    14    22    25    1
    15    25    26   ar
    16    26    27   ar
    17    27    28   ar
    18    28    29   ar
    19    29    31    1
    20    31    33    1
    21    33    34    2
    22    33    35    2
    23    33    36    1
    24    36    37    1
    25    37    38    1
    26    38    39    1
    27    29    30   ar
    28    12    13   ar
    29    13    14   ar
    30    14    17    1
    31    17    18    2
    32    17    19    1
    33    14    15   ar
    34    15     7   ar
    35    15    10   ar
    36    30    25   ar
    37    39    36    1
    38     9    16    1
    39     1     2    1
    40    23    24    1
    41    31    32    1
    42    19    20    1
@<TRIPOS>MOLECULE
*****
 39 42 0 0 0
SMALL
GASTEIGER

@<TRIPOS>ATOM
      1 N         -26.5005   -8.4121  -12.0326 N.3     1  UNL1       -0.2921
      2 H         -27.2369   -8.9388  -12.5593 H       1  UNL1        0.1234
      3 C         -27.1185   -7.8851  -10.8068 C.3     1  UNL1        0.1166
      4 C         -26.6018   -8.6288   -9.5762 C.3     1  UNL1        0.2224
      5 O         -25.6821   -9.6421   -9.9762 O.3     1  UNL1       -0.4739
      6 C         -18.9200   -9.7340   -9.8071 C.3     1  UNL1        0.0540
      7 C         -20.1958   -9.0944   -9.3648 C.ar    1  UNL1        0.0803
      8 N         -20.2327   -8.1165   -8.4288 N.ar    1  UNL1       -0.1770
      9 N         -21.5001   -7.7988   -8.2068 N.ar    1  UNL1       -0.2759
     10 C         -22.2757   -8.5653   -8.9877 C.ar    1  UNL1        0.0782
     11 C         -23.6656   -8.5978   -9.0195 C.ar    1  UNL1        0.0554
     12 C         -24.2877   -9.5293   -9.8803 C.ar    1  UNL1        0.1403
     13 C         -23.4936  -10.3806  -10.6802 C.ar    1  UNL1        0.0435
     14 C         -22.0819  -10.3179  -10.6499 C.ar    1  UNL1        0.0811
     15 C         -21.4995   -9.3931   -9.7597 C.ar    1  UNL1        0.0387
     16 H         -21.8185   -7.0831   -7.5164 H       1  UNL1        0.1889
     17 C         -21.3096  -11.1833  -11.5604 C.2     1  UNL1        0.3382
     18 O         -21.2293  -10.9144  -12.7875 O.2     1  UNL1       -0.2451
     19 O         -20.7269  -12.3506  -11.0751 O.3     1  UNL1       -0.4771
     20 H         -20.2150  -12.9711  -11.6908 H       1  UNL1        0.2954
     21 C         -26.0219   -7.3301  -12.9042 C.3     1  UNL1        0.1029
     22 C         -25.2511   -6.2870  -12.0802 C.3     1  UNL1        0.1484
     23 O         -25.5777   -4.9893  -12.5104 O.3     1  UNL1       -0.3786
     24 H         -26.4506   -4.7563  -12.0985 H       1  UNL1        0.2108
     25 C         -23.7627   -6.5067  -12.2281 C.ar    1  UNL1        0.0069
     26 C         -22.8614   -5.8183  -11.4003 C.ar    1  UNL1       -0.0018
     27 C         -21.4887   -6.0501  -11.5072 C.ar    1  UNL1        0.0011
     28 C         -21.0004   -6.9697  -12.4381 C.ar    1  UNL1        0.0158
     29 C         -21.8845   -7.6635  -13.2807 C.ar    1  UNL1        0.0642
     30 C         -23.2647   -7.4426  -13.1531 C.ar    1  UNL1        0.0139
     31 N         -21.4149   -8.6382  -14.2256 N.pl3   1  UNL1       -0.2188
     32 H         -21.1551   -9.5861  -13.8715 H       1  UNL1        0.1734
     33 S         -21.6062   -8.4941  -15.9461 S.O2    1  UNL1        0.0522
     34 O         -22.3221   -7.2069  -16.2426 O.2     1  UNL1       -0.1545
     35 O         -20.2705   -8.4655  -16.6363 O.2     1  UNL1       -0.1545
     36 C         -22.5963   -9.8622  -16.5509 C.3     1  UNL1        0.1488
     37 C         -23.6298  -10.3664  -15.5493 C.3     1  UNL1        0.0255
     38 C         -22.9079  -11.7055  -15.4828 C.3     1  UNL1        0.0036
     39 C         -21.8742  -11.2041  -16.4818 C.3     1  UNL1        0.0255
@<TRIPOS>BOND
     1     6     7    1
     2     7     8   ar
     3     8     9   ar
     4     9    10   ar
     5    10    11   ar
     6    11    12   ar
     7    12     5    1
     8     5     4    1
     9     4     3    1
    10     3     1    1
    11     1    21    1
    12    21    22    1
    13    22    23    1
    14    22    25    1
    15    25    26   ar
    16    26    27   ar
    17    27    28   ar
    18    28    29   ar
    19    29    31    1
    20    31    33    1
    21    33    34    2
    22    33    35    2
    23    33    36    1
    24    36    37    1
    25    37    38    1
    26    38    39    1
    27    29    30   ar
    28    12    13   ar
    29    13    14   ar
    30    14    17    1
    31    17    18    2
    32    17    19    1
    33    14    15   ar
    34    15     7   ar
    35    15    10   ar
    36    30    25   ar
    37    39    36    1
    38     9    16    1
    39     1     2    1
    40    23    24    1
    41    31    32    1
    42    19    20    1
@<TRIPOS>MOLECULE
*****
 39 42 0 0 0
SMALL
GASTEIGER

@<TRIPOS>ATOM
      1 N         -22.6572   -7.9760   -8.3240 N.3     1  UNL1       -0.2921
      2 H         -23.4427   -7.2907   -8.4262 H       1  UNL1        0.1234
      3 C         -21.5226   -7.4764   -9.1146 C.3     1  UNL1        0.1166
      4 C         -22.0107   -6.6243  -10.2851 C.3     1  UNL1        0.2224
      5 O         -21.1449   -6.8012  -11.4041 O.3     1  UNL1       -0.4739
      6 C         -22.0461  -11.2579  -16.4129 C.3     1  UNL1        0.0540
      7 C         -21.7406  -11.0068  -14.9720 C.ar    1  UNL1        0.0803
      8 N         -21.6522  -12.0062  -14.0626 N.ar    1  UNL1       -0.1770
      9 N         -21.4346  -11.4683  -12.8710 N.ar    1  UNL1       -0.2759
     10 C         -21.3863  -10.1348  -13.0068 C.ar    1  UNL1        0.0782
     11 C         -21.2407   -9.1914  -11.9956 C.ar    1  UNL1        0.0554
     12 C         -21.2756   -7.8251  -12.3531 C.ar    1  UNL1        0.1403
     13 C         -21.4437   -7.4610  -13.7075 C.ar    1  UNL1        0.0435
     14 C         -21.5686   -8.4349  -14.7242 C.ar    1  UNL1        0.0811
     15 C         -21.5541   -9.7863  -14.3237 C.ar    1  UNL1        0.0387
     16 H         -21.3425  -12.0118  -11.9843 H       1  UNL1        0.1889
     17 C         -21.6701   -7.9926  -16.1272 C.2     1  UNL1        0.3382
     18 O         -22.7941   -7.8506  -16.6759 O.2     1  UNL1       -0.2451
     19 O         -20.5127   -7.8037  -16.8771 O.3     1  UNL1       -0.4771
     20 H         -20.5630   -7.5255  -17.8499 H       1  UNL1        0.2954
     21 C         -23.1341   -9.2730   -8.8238 C.3     1  UNL1        0.1029
     22 C         -24.6168   -9.1776   -9.2161 C.3     1  UNL1        0.1484
     23 O         -25.3766  -10.0981   -8.4738 O.3     1  UNL1       -0.3786
     24 H         -25.5268   -9.6973   -7.5778 H       1  UNL1        0.2108
     25 C         -24.7818   -9.4625  -10.6915 C.ar    1  UNL1        0.0069
     26 C         -25.0952   -8.4223  -11.5811 C.ar    1  UNL1       -0.0018
     27 C         -25.2078   -8.6755  -12.9495 C.ar    1  UNL1        0.0011
     28 C         -25.0086   -9.9658  -13.4454 C.ar    1  UNL1        0.0158
     29 C         -24.7014  -11.0219  -12.5718 C.ar    1  UNL1        0.0642
     30 C         -24.5676  -10.7567  -11.2000 C.ar    1  UNL1        0.0139
     31 N         -24.4599  -12.3528  -13.0554 N.pl3   1  UNL1       -0.2188
     32 H         -23.8997  -13.0023  -12.4591 H       1  UNL1        0.1734
     33 S         -25.3386  -13.0858  -14.3624 S.O2    1  UNL1        0.0522
     34 O         -26.7801  -13.2135  -13.9587 O.2     1  UNL1       -0.1545
     35 O         -25.2652  -12.2390  -15.6028 O.2     1  UNL1       -0.1545
     36 C         -24.6769  -14.7227  -14.6795 C.3     1  UNL1        0.1488
     37 C         -23.1556  -14.7986  -14.6055 C.3     1  UNL1        0.0255
     38 C         -23.1038  -15.1486  -16.0864 C.3     1  UNL1        0.0036
     39 C         -24.6225  -15.0724  -16.1633 C.3     1  UNL1        0.0255
@<TRIPOS>BOND
     1     6     7    1
     2     7     8   ar
     3     8     9   ar
     4     9    10   ar
     5    10    11   ar
     6    11    12   ar
     7    12     5    1
     8     5     4    1
     9     4     3    1
    10     3     1    1
    11     1    21    1
    12    21    22    1
    13    22    23    1
    14    22    25    1
    15    25    26   ar
    16    26    27   ar
    17    27    28   ar
    18    28    29   ar
    19    29    31    1
    20    31    33    1
    21    33    34    2
    22    33    35    2
    23    33    36    1
    24    36    37    1
    25    37    38    1
    26    38    39    1
    27    29    30   ar
    28    12    13   ar
    29    13    14   ar
    30    14    17    1
    31    17    18    2
    32    17    19    1
    33    14    15   ar
    34    15     7   ar
    35    15    10   ar
    36    30    25   ar
    37    39    36    1
    38     9    16    1
    39     1     2    1
    40    23    24    1
    41    31    32    1
    42    19    20    1
@<TRIPOS>MOLECULE
*****
 39 42 0 0 0
SMALL
GASTEIGER

@<TRIPOS>ATOM
      1 N         -26.7958   -6.2971  -11.8067 N.3     1  UNL1       -0.2921
      2 H         -26.5182   -5.8852  -10.8845 H       1  UNL1        0.1234
      3 C         -27.1108   -7.7163  -11.5856 C.3     1  UNL1        0.1166
      4 C         -27.0176   -8.0675  -10.1016 C.3     1  UNL1        0.2224
      5 O         -26.3579   -9.3216   -9.9435 O.3     1  UNL1       -0.4739
      6 C         -19.6119   -9.6470  -10.3289 C.3     1  UNL1        0.0540
      7 C         -20.9390  -10.1695  -10.7742 C.ar    1  UNL1        0.0803
      8 N         -21.0667  -11.0705  -11.7769 N.ar    1  UNL1       -0.1770
      9 N         -22.3580  -11.2896  -11.9795 N.ar    1  UNL1       -0.2759
     10 C         -23.0591  -10.5358  -11.1197 C.ar    1  UNL1        0.0782
     11 C         -24.4423  -10.4175  -11.0397 C.ar    1  UNL1        0.0554
     12 C         -24.9772   -9.5152  -10.0934 C.ar    1  UNL1        0.1403
     13 C         -24.1065   -8.7781   -9.2605 C.ar    1  UNL1        0.0435
     14 C         -22.7034   -8.9279   -9.3419 C.ar    1  UNL1        0.0811
     15 C         -22.2086   -9.8189  -10.3157 C.ar    1  UNL1        0.0387
     16 H         -22.7422  -11.9301  -12.7091 H       1  UNL1        0.1889
     17 C         -21.8505   -8.1838   -8.3969 C.2     1  UNL1        0.3382
     18 O         -21.5622   -8.6702   -7.2723 O.2     1  UNL1       -0.2451
     19 O         -21.4220   -6.8989   -8.7181 O.3     1  UNL1       -0.4771
     20 H         -20.8575   -6.3620   -8.0706 H       1  UNL1        0.2954
     21 C         -25.6599   -6.1327  -12.7244 C.3     1  UNL1        0.1029
     22 C         -24.3376   -6.3763  -11.9805 C.3     1  UNL1        0.1484
     23 O         -23.7418   -5.1513  -11.6337 O.3     1  UNL1       -0.3786
     24 H         -24.2064   -4.8204  -10.8210 H       1  UNL1        0.2108
     25 C         -23.3902   -7.1677  -12.8531 C.ar    1  UNL1        0.0069
     26 C         -22.0053   -7.1050  -12.6303 C.ar    1  UNL1       -0.0018
     27 C         -21.1313   -7.8666  -13.4083 C.ar    1  UNL1        0.0011
     28 C         -21.6274   -8.6982  -14.4147 C.ar    1  UNL1        0.0158
     29 C         -23.0087   -8.7700  -14.6589 C.ar    1  UNL1        0.0642
     30 C         -23.8838   -8.0190  -13.8586 C.ar    1  UNL1        0.0139
     31 N         -23.5510   -9.6398  -15.6653 N.pl3   1  UNL1       -0.2188
     32 H         -23.9415   -9.2097  -16.5335 H       1  UNL1        0.1734
     33 S         -23.2648  -11.3521  -15.7260 S.O2    1  UNL1        0.0522
     34 O         -22.6424  -11.6874  -17.0518 O.2     1  UNL1       -0.1545
     35 O         -22.3215  -11.7798  -14.6359 O.2     1  UNL1       -0.1545
     36 C         -24.8271  -12.2217  -15.5813 C.3     1  UNL1        0.1488
     37 C         -25.4178  -12.1998  -14.1755 C.3     1  UNL1        0.0255
     38 C         -25.2577  -13.7114  -14.0877 C.3     1  UNL1        0.0036
     39 C         -24.6665  -13.7359  -15.4906 C.3     1  UNL1        0.0255
@<TRIPOS>BOND
     1     6     7    1
     2     7     8   ar
     3     8     9   ar
     4     9    10   ar
     5    10    11   ar
     6    11    12   ar
     7    12     5    1
     8     5     4    1
     9     4     3    1
    10     3     1    1
    11     1    21    1
    12    21    22    1
    13    22    23    1
    14    22    25    1
    15    25    26   ar
    16    26    27   ar
    17    27    28   ar
    18    28    29   ar
    19    29    31    1
    20    31    33    1
    21    33    34    2
    22    33    35    2
    23    33    36    1
    24    36    37    1
    25    37    38    1
    26    38    39    1
    27    29    30   ar
    28    12    13   ar
    29    13    14   ar
    30    14    17    1
    31    17    18    2
    32    17    19    1
    33    14    15   ar
    34    15     7   ar
    35    15    10   ar
    36    30    25   ar
    37    39    36    1
    38     9    16    1
    39     1     2    1
    40    23    24    1
    41    31    32    1
    42    19    20    1
@<TRIPOS>MOLECULE
*****
 39 42 0 0 0
SMALL
GASTEIGER

@<TRIPOS>ATOM
      1 N         -27.6395   -7.7194  -11.4723 N.3     1  UNL1       -0.2921
      2 H         -28.6627   -7.5241  -11.5822 H       1  UNL1        0.1234
      3 C         -27.3091   -7.5829  -10.0460 C.3     1  UNL1        0.1166
      4 C         -26.6770   -8.8668   -9.5106 C.3     1  UNL1        0.2224
      5 O         -25.8794   -9.4712  -10.5261 O.3     1  UNL1       -0.4739
      6 C         -19.1442   -9.5284   -9.8967 C.3     1  UNL1        0.0540
      7 C         -20.3716  -10.1313  -10.4988 C.ar    1  UNL1        0.0803
      8 N         -20.3175  -11.0917  -11.4520 N.ar    1  UNL1       -0.1770
      9 N         -21.5560  -11.3768  -11.8279 N.ar    1  UNL1       -0.2759
     10 C         -22.4027  -10.6068  -11.1285 C.ar    1  UNL1        0.0782
     11 C         -23.7856  -10.5436  -11.2598 C.ar    1  UNL1        0.0554
     12 C         -24.4860   -9.6136  -10.4596 C.ar    1  UNL1        0.1403
     13 C         -23.7748   -8.7945   -9.5549 C.ar    1  UNL1        0.0435
     14 C         -22.3710   -8.8884   -9.4202 C.ar    1  UNL1        0.0811
     15 C         -21.7065   -9.8104  -10.2541 C.ar    1  UNL1        0.0387
     16 H         -21.8051  -12.0730  -12.5652 H       1  UNL1        0.1889
     17 C         -21.6942   -8.0567   -8.4080 C.2     1  UNL1        0.3382
     18 O         -21.3785   -6.8651   -8.6629 O.2     1  UNL1       -0.2451
     19 O         -21.3312   -8.6154   -7.1857 O.3     1  UNL1       -0.4771
     20 H         -20.8423   -8.0672   -6.4882 H       1  UNL1        0.2954
     21 C         -26.9119   -6.7400  -12.2913 C.3     1  UNL1        0.1029
     22 C         -26.0241   -7.4616  -13.3171 C.3     1  UNL1        0.1484
     23 O         -26.2488   -8.8482  -13.2648 O.3     1  UNL1       -0.3786
     24 H         -27.0831   -9.0280  -13.7721 H       1  UNL1        0.2108
     25 C         -24.5670   -7.1766  -13.0329 C.ar    1  UNL1        0.0069
     26 C         -24.2080   -6.2918  -12.0034 C.ar    1  UNL1       -0.0018
     27 C         -22.8627   -6.0585  -11.7121 C.ar    1  UNL1        0.0011
     28 C         -21.8621   -6.7042  -12.4418 C.ar    1  UNL1        0.0158
     29 C         -22.1996   -7.5875  -13.4805 C.ar    1  UNL1        0.0642
     30 C         -23.5539   -7.8350  -13.7538 C.ar    1  UNL1        0.0139
     31 N         -21.1939   -8.2904  -14.2275 N.pl3   1  UNL1       -0.2188
     32 H         -20.5453   -8.9248  -13.7096 H       1  UNL1        0.1734
     33 S         -21.2132   -8.4668  -15.9555 S.O2    1  UNL1        0.0522
     34 O         -22.2171   -7.5046  -16.5244 O.2     1  UNL1       -0.1545
     35 O         -19.8658   -8.1520  -16.5443 O.2     1  UNL1       -0.1545
     36 C         -21.7075  -10.1389  -16.3770 C.3     1  UNL1        0.1488
     37 C         -23.1720  -10.2657  -16.7831 C.3     1  UNL1        0.0255
     38 C         -23.4314  -11.1405  -15.5640 C.3     1  UNL1        0.0036
     39 C         -21.9700  -11.0144  -15.1558 C.3     1  UNL1        0.0255
@<TRIPOS>BOND
     1     6     7    1
     2     7     8   ar
     3     8     9   ar
     4     9    10   ar
     5    10    11   ar
     6    11    12   ar
     7    12     5    1
     8     5     4    1
     9     4     3    1
    10     3     1    1
    11     1    21    1
    12    21    22    1
    13    22    23    1
    14    22    25    1
    15    25    26   ar
    16    26    27   ar
    17    27    28   ar
    18    28    29   ar
    19    29    31    1
    20    31    33    1
    21    33    34    2
    22    33    35    2
    23    33    36    1
    24    36    37    1
    25    37    38    1
    26    38    39    1
    27    29    30   ar
    28    12    13   ar
    29    13    14   ar
    30    14    17    1
    31    17    18    2
    32    17    19    1
    33    14    15   ar
    34    15     7   ar
    35    15    10   ar
    36    30    25   ar
    37    39    36    1
    38     9    16    1
    39     1     2    1
    40    23    24    1
    41    31    32    1
    42    19    20    1
@<TRIPOS>MOLECULE
*****
 39 42 0 0 0
SMALL
GASTEIGER

@<TRIPOS>ATOM
      1 N         -23.8945  -10.7945  -15.0483 N.3     1  UNL1       -0.2921
      2 H         -24.2627  -11.2952  -15.8914 H       1  UNL1        0.1234
      3 C         -24.9644  -10.7710  -14.0399 C.3     1  UNL1        0.1166
      4 C         -24.5450  -11.5377  -12.7866 C.3     1  UNL1        0.2224
      5 O         -23.1226  -11.6023  -12.7143 O.3     1  UNL1       -0.4739
      6 C         -19.9250   -8.1825   -7.8314 C.3     1  UNL1        0.0540
      7 C         -19.8646   -9.2085   -8.9159 C.ar    1  UNL1        0.0803
      8 N         -18.7013   -9.7711   -9.3207 N.ar    1  UNL1       -0.1770
      9 N         -18.9623  -10.5889  -10.3305 N.ar    1  UNL1       -0.2759
     10 C         -20.2798  -10.5534  -10.5793 C.ar    1  UNL1        0.0782
     11 C         -20.9615  -11.2129  -11.5962 C.ar    1  UNL1        0.0554
     12 C         -22.3510  -10.9888  -11.7170 C.ar    1  UNL1        0.1403
     13 C         -23.0011  -10.1234  -10.8094 C.ar    1  UNL1        0.0435
     14 C         -22.2947   -9.4785   -9.7688 C.ar    1  UNL1        0.0811
     15 C         -20.9058   -9.7083   -9.6975 C.ar    1  UNL1        0.0387
     16 H         -18.2416  -11.1411  -10.8462 H       1  UNL1        0.1889
     17 C         -23.0418   -8.6434   -8.8103 C.2     1  UNL1        0.3382
     18 O         -22.7480   -7.4297   -8.6512 O.2     1  UNL1       -0.2451
     19 O         -24.0307   -9.2187   -8.0174 O.3     1  UNL1       -0.4771
     20 H         -24.5364   -8.6669   -7.3349 H       1  UNL1        0.2954
     21 C         -23.5188   -9.4376  -15.4687 C.3     1  UNL1        0.1029
     22 C         -22.0661   -9.1405  -15.0653 C.3     1  UNL1        0.1484
     23 O         -21.3967  -10.3340  -14.7441 O.3     1  UNL1       -0.3786
     24 H         -21.1337  -10.7609  -15.6011 H       1  UNL1        0.2108
     25 C         -22.0391   -8.2115  -13.8730 C.ar    1  UNL1        0.0069
     26 C         -20.8202   -7.8934  -13.2529 C.ar    1  UNL1       -0.0018
     27 C         -20.7880   -7.0037  -12.1774 C.ar    1  UNL1        0.0011
     28 C         -21.9682   -6.4217  -11.7096 C.ar    1  UNL1        0.0158
     29 C         -23.1990   -6.7320  -12.3111 C.ar    1  UNL1        0.0642
     30 C         -23.2221   -7.6098  -13.4062 C.ar    1  UNL1        0.0139
     31 N         -24.4251   -6.1253  -11.8730 N.pl3   1  UNL1       -0.2188
     32 H         -24.4394   -5.0920  -11.7200 H       1  UNL1        0.1734
     33 S         -25.9754   -6.9057  -11.9461 S.O2    1  UNL1        0.0522
     34 O         -25.8304   -8.3091  -11.4296 O.2     1  UNL1       -0.1545
     35 O         -26.9818   -6.1859  -11.0915 O.2     1  UNL1       -0.1545
     36 C         -26.5297   -6.9684  -13.6509 C.3     1  UNL1        0.1488
     37 C         -26.5268   -5.6137  -14.3512 C.3     1  UNL1        0.0255
     38 C         -28.0417   -5.6841  -14.4877 C.3     1  UNL1        0.0036
     39 C         -28.0475   -7.0362  -13.7877 C.3     1  UNL1        0.0255
@<TRIPOS>BOND
     1     6     7    1
     2     7     8   ar
     3     8     9   ar
     4     9    10   ar
     5    10    11   ar
     6    11    12   ar
     7    12     5    1
     8     5     4    1
     9     4     3    1
    10     3     1    1
    11     1    21    1
    12    21    22    1
    13    22    23    1
    14    22    25    1
    15    25    26   ar
    16    26    27   ar
    17    27    28   ar
    18    28    29   ar
    19    29    31    1
    20    31    33    1
    21    33    34    2
    22    33    35    2
    23    33    36    1
    24    36    37    1
    25    37    38    1
    26    38    39    1
    27    29    30   ar
    28    12    13   ar
    29    13    14   ar
    30    14    17    1
    31    17    18    2
    32    17    19    1
    33    14    15   ar
    34    15     7   ar
    35    15    10   ar
    36    30    25   ar
    37    39    36    1
    38     9    16    1
    39     1     2    1
    40    23    24    1
    41    31    32    1
    42    19    20    1
@<TRIPOS>MOLECULE
*****
 39 42 0 0 0
SMALL
GASTEIGER

@<TRIPOS>ATOM
      1 N         -22.5402   -7.4400   -8.2877 N.3     1  UNL1       -0.2921
      2 H         -23.2372   -7.0522   -8.9666 H       1  UNL1        0.1234
      3 C         -21.2033   -7.0139   -8.7274 C.3     1  UNL1        0.1166
      4 C         -21.2703   -5.6600   -9.4323 C.3     1  UNL1        0.2224
      5 O         -22.3934   -5.6286  -10.3102 O.3     1  UNL1       -0.4739
      6 C         -23.4725   -9.1989  -15.9539 C.3     1  UNL1        0.0540
      7 C         -22.4988   -8.5499  -15.0249 C.ar    1  UNL1        0.0803
      8 N         -21.1594   -8.7044  -15.1511 N.ar    1  UNL1       -0.1770
      9 N         -20.5693   -8.0646  -14.1516 N.ar    1  UNL1       -0.2759
     10 C         -21.5165   -7.5049  -13.3844 C.ar    1  UNL1        0.0782
     11 C         -21.3311   -6.7988  -12.2008 C.ar    1  UNL1        0.0554
     12 C         -22.4782   -6.3423  -11.5142 C.ar    1  UNL1        0.1403
     13 C         -23.7608   -6.6020  -12.0461 C.ar    1  UNL1        0.0435
     14 C         -23.9282   -7.3030  -13.2619 C.ar    1  UNL1        0.0811
     15 C         -22.7605   -7.7635  -13.9032 C.ar    1  UNL1        0.0387
     16 H         -19.5374   -8.0348  -13.9953 H       1  UNL1        0.1889
     17 C         -25.2889   -7.4806  -13.8015 C.2     1  UNL1        0.3382
     18 O         -25.8674   -6.5404  -14.4065 O.2     1  UNL1       -0.2451
     19 O         -25.9718   -8.6720  -13.5742 O.3     1  UNL1       -0.4771
     20 H         -26.9171   -8.8027  -13.9143 H       1  UNL1        0.2954
     21 C         -22.6733   -8.9033   -8.3045 C.3     1  UNL1        0.1029
     22 C         -23.9050   -9.3144   -9.1262 C.3     1  UNL1        0.1484
     23 O         -24.7140  -10.1922   -8.3840 O.3     1  UNL1       -0.3786
     24 H         -25.2454   -9.6378   -7.7547 H       1  UNL1        0.2108
     25 C         -23.4715   -9.9906  -10.4069 C.ar    1  UNL1        0.0069
     26 C         -22.1162  -10.2839  -10.6271 C.ar    1  UNL1       -0.0018
     27 C         -21.7184  -10.9450  -11.7907 C.ar    1  UNL1        0.0011
     28 C         -22.6658  -11.3213  -12.7454 C.ar    1  UNL1        0.0158
     29 C         -24.0258  -11.0309  -12.5480 C.ar    1  UNL1        0.0642
     30 C         -24.4220  -10.3860  -11.3659 C.ar    1  UNL1        0.0139
     31 N         -25.0268  -11.4332  -13.4965 N.pl3   1  UNL1       -0.2188
     32 H         -25.4270  -10.7071  -14.1320 H       1  UNL1        0.1734
     33 S         -25.3454  -13.0846  -13.9310 S.O2    1  UNL1        0.0522
     34 O         -24.9404  -13.9683  -12.7854 O.2     1  UNL1       -0.1545
     35 O         -26.8092  -13.2977  -14.2017 O.2     1  UNL1       -0.1545
     36 C         -24.3704  -13.5190  -15.3726 C.3     1  UNL1        0.1488
     37 C         -24.7141  -14.8828  -15.9622 C.3     1  UNL1        0.0255
     38 C         -23.3181  -15.3817  -15.6148 C.3     1  UNL1        0.0036
     39 C         -22.9728  -14.0214  -15.0245 C.3     1  UNL1        0.0255
@<TRIPOS>BOND
     1     6     7    1
     2     7     8   ar
     3     8     9   ar
     4     9    10   ar
     5    10    11   ar
     6    11    12   ar
     7    12     5    1
     8     5     4    1
     9     4     3    1
    10     3     1    1
    11     1    21    1
    12    21    22    1
    13    22    23    1
    14    22    25    1
    15    25    26   ar
    16    26    27   ar
    17    27    28   ar
    18    28    29   ar
    19    29    31    1
    20    31    33    1
    21    33    34    2
    22    33    35    2
    23    33    36    1
    24    36    37    1
    25    37    38    1
    26    38    39    1
    27    29    30   ar
    28    12    13   ar
    29    13    14   ar
    30    14    17    1
    31    17    18    2
    32    17    19    1
    33    14    15   ar
    34    15     7   ar
    35    15    10   ar
    36    30    25   ar
    37    39    36    1
    38     9    16    1
    39     1     2    1
    40    23    24    1
    41    31    32    1
    42    19    20    1
@<TRIPOS>MOLECULE
*****
 39 42 0 0 0
SMALL
GASTEIGER

@<TRIPOS>ATOM
      1 N         -23.4792   -4.8122  -11.4096 N.3     1  UNL1       -0.2921
      2 H         -23.9939   -4.6896  -10.5057 H       1  UNL1        0.1234
      3 C         -24.1657   -5.8629  -12.1757 C.3     1  UNL1        0.1166
      4 C         -25.6778   -5.6443  -12.1613 C.3     1  UNL1        0.2224
      5 O         -26.2559   -6.1954  -13.3423 O.3     1  UNL1       -0.4739
      6 C         -30.1403   -2.9958  -17.8630 C.3     1  UNL1        0.0540
      7 C         -28.7744   -3.2562  -17.3161 C.ar    1  UNL1        0.0803
      8 N         -27.6508   -2.7982  -17.9173 N.ar    1  UNL1       -0.1770
      9 N         -26.6032   -3.2404  -17.2366 N.ar    1  UNL1       -0.2759
     10 C         -27.0435   -3.9798  -16.2078 C.ar    1  UNL1        0.0782
     11 C         -26.2737   -4.6798  -15.2852 C.ar    1  UNL1        0.0554
     12 C         -26.9451   -5.4499  -14.3095 C.ar    1  UNL1        0.1403
     13 C         -28.3571   -5.4783  -14.2915 C.ar    1  UNL1        0.0435
     14 C         -29.1228   -4.7428  -15.2246 C.ar    1  UNL1        0.0811
     15 C         -28.4156   -4.0074  -16.1973 C.ar    1  UNL1        0.0387
     16 H         -25.6087   -3.0505  -17.4917 H       1  UNL1        0.1889
     17 C         -30.5928   -4.7565  -15.1099 C.2     1  UNL1        0.3382
     18 O         -31.2086   -3.7686  -14.6309 O.2     1  UNL1       -0.2451
     19 O         -31.3022   -5.9011  -15.4624 O.3     1  UNL1       -0.4771
     20 H         -32.3099   -5.9387  -15.3657 H       1  UNL1        0.2954
     21 C         -22.0986   -5.1960  -11.0840 C.3     1  UNL1        0.1029
     22 C         -22.0625   -5.9716   -9.7580 C.3     1  UNL1        0.1484
     23 O         -21.6310   -5.1331   -8.7156 O.3     1  UNL1       -0.3786
     24 H         -22.4112   -4.5836   -8.4412 H       1  UNL1        0.2108
     25 C         -21.1264   -7.1529   -9.8740 C.ar    1  UNL1        0.0069
     26 C         -20.9315   -7.7806  -11.1147 C.ar    1  UNL1       -0.0018
     27 C         -20.0365   -8.8457  -11.2326 C.ar    1  UNL1        0.0011
     28 C         -19.3265   -9.2953  -10.1172 C.ar    1  UNL1        0.0158
     29 C         -19.5121   -8.6861   -8.8653 C.ar    1  UNL1        0.0642
     30 C         -20.3965   -7.6014   -8.7579 C.ar    1  UNL1        0.0139
     31 N         -18.7730   -9.1053   -7.7071 N.pl3   1  UNL1       -0.2188
     32 H         -17.9340   -9.7116   -7.8477 H       1  UNL1        0.1734
     33 S         -18.9332   -8.3790   -6.1372 S.O2    1  UNL1        0.0522
     34 O         -18.4564   -6.9564   -6.2164 O.2     1  UNL1       -0.1545
     35 O         -20.3686   -8.3754   -5.6891 O.2     1  UNL1       -0.1545
     36 C         -17.9110   -9.2698   -4.9628 C.3     1  UNL1        0.1488
     37 C         -18.4285   -9.2168   -3.5293 C.3     1  UNL1        0.0255
     38 C         -17.1836   -8.4461   -3.1113 C.3     1  UNL1        0.0036
     39 C         -16.6652   -8.4966   -4.5420 C.3     1  UNL1        0.0255
@<TRIPOS>BOND
     1     6     7    1
     2     7     8   ar
     3     8     9   ar
     4     9    10   ar
     5    10    11   ar
     6    11    12   ar
     7    12     5    1
     8     5     4    1
     9     4     3    1
    10     3     1    1
    11     1    21    1
    12    21    22    1
    13    22    23    1
    14    22    25    1
    15    25    26   ar
    16    26    27   ar
    17    27    28   ar
    18    28    29   ar
    19    29    31    1
    20    31    33    1
    21    33    34    2
    22    33    35    2
    23    33    36    1
    24    36    37    1
    25    37    38    1
    26    38    39    1
    27    29    30   ar
    28    12    13   ar
    29    13    14   ar
    30    14    17    1
    31    17    18    2
    32    17    19    1
    33    14    15   ar
    34    15     7   ar
    35    15    10   ar
    36    30    25   ar
    37    39    36    1
    38     9    16    1
    39     1     2    1
    40    23    24    1
    41    31    32    1
    42    19    20    1
@<TRIPOS>MOLECULE
*****
 39 42 0 0 0
SMALL
GASTEIGER

@<TRIPOS>ATOM
      1 N         -21.5474   -8.9562   -9.4417 N.3     1  UNL1       -0.2921
      2 H         -21.8889   -8.6251  -10.3749 H       1  UNL1        0.1234
      3 C         -22.7236   -9.3283   -8.6416 C.3     1  UNL1        0.1166
      4 C         -23.7903   -9.9831   -9.5179 C.3     1  UNL1        0.2224
      5 O         -23.4835   -9.7670  -10.8934 O.3     1  UNL1       -0.4739
      6 C         -23.1899  -14.8428  -15.3556 C.3     1  UNL1        0.0540
      7 C         -22.4637  -13.8738  -14.4804 C.ar    1  UNL1        0.0803
      8 N         -21.1246  -13.9305  -14.2872 N.ar    1  UNL1       -0.1770
      9 N         -20.7877  -12.9868  -13.4197 N.ar    1  UNL1       -0.2759
     10 C         -21.8970  -12.3286  -13.0523 C.ar    1  UNL1        0.0782
     11 C         -21.9971  -11.3087  -12.1123 C.ar    1  UNL1        0.0554
     12 C         -23.2807  -10.7902  -11.8304 C.ar    1  UNL1        0.1403
     13 C         -24.4074  -11.3062  -12.5082 C.ar    1  UNL1        0.0435
     14 C         -24.2829  -12.3284  -13.4763 C.ar    1  UNL1        0.0811
     15 C         -22.9890  -12.8363  -13.7106 C.ar    1  UNL1        0.0387
     16 H         -19.8160  -12.8181  -13.0766 H       1  UNL1        0.1889
     17 C         -25.4870  -12.7754  -14.2008 C.2     1  UNL1        0.3382
     18 O         -26.1525  -13.7626  -13.7922 O.2     1  UNL1       -0.2451
     19 O         -25.8494  -12.1495  -15.3901 O.3     1  UNL1       -0.4771
     20 H         -26.6581  -12.4596  -15.9155 H       1  UNL1        0.2954
     21 C         -20.8030   -7.8494   -8.8250 C.3     1  UNL1        0.1029
     22 C         -21.1408   -6.5259   -9.5290 C.3     1  UNL1        0.1484
     23 O         -22.0547   -5.7853   -8.7596 O.3     1  UNL1       -0.3786
     24 H         -21.5361   -5.3387   -8.0402 H       1  UNL1        0.2108
     25 C         -21.7359   -6.8007  -10.8912 C.ar    1  UNL1        0.0069
     26 C         -23.1101   -6.6157  -11.1120 C.ar    1  UNL1       -0.0018
     27 C         -23.6550   -6.8294  -12.3796 C.ar    1  UNL1        0.0011
     28 C         -22.8373   -7.2281  -13.4393 C.ar    1  UNL1        0.0158
     29 C         -21.4613   -7.4258  -13.2381 C.ar    1  UNL1        0.0642
     30 C         -20.9158   -7.1878  -11.9668 C.ar    1  UNL1        0.0139
     31 N         -20.5898   -7.8047  -14.3152 N.pl3   1  UNL1       -0.2188
     32 H         -19.5822   -7.9768  -14.0999 H       1  UNL1        0.1734
     33 S         -21.1452   -8.3692  -15.8614 S.O2    1  UNL1        0.0522
     34 O         -22.0878   -7.3488  -16.4338 O.2     1  UNL1       -0.1545
     35 O         -19.9963   -8.5437  -16.8157 O.2     1  UNL1       -0.1545
     36 C         -22.0251   -9.9178  -15.6481 C.3     1  UNL1        0.1488
     37 C         -21.5871  -11.0145  -16.6129 C.3     1  UNL1        0.0255
     38 C         -22.9731  -11.0093  -17.2435 C.3     1  UNL1        0.0036
     39 C         -23.4125   -9.9135  -16.2821 C.3     1  UNL1        0.0255
@<TRIPOS>BOND
     1     6     7    1
     2     7     8   ar
     3     8     9   ar
     4     9    10   ar
     5    10    11   ar
     6    11    12   ar
     7    12     5    1
     8     5     4    1
     9     4     3    1
    10     3     1    1
    11     1    21    1
    12    21    22    1
    13    22    23    1
    14    22    25    1
    15    25    26   ar
    16    26    27   ar
    17    27    28   ar
    18    28    29   ar
    19    29    31    1
    20    31    33    1
    21    33    34    2
    22    33    35    2
    23    33    36    1
    24    36    37    1
    25    37    38    1
    26    38    39    1
    27    29    30   ar
    28    12    13   ar
    29    13    14   ar
    30    14    17    1
    31    17    18    2
    32    17    19    1
    33    14    15   ar
    34    15     7   ar
    35    15    10   ar
    36    30    25   ar
    37    39    36    1
    38     9    16    1
    39     1     2    1
    40    23    24    1
    41    31    32    1
    42    19    20    1
