@<TRIPOS>MOLECULE
*****
 42 46 0 0 0
SMALL
GASTEIGER

@<TRIPOS>ATOM
      1 C          49.1067    6.8908  -31.8125 C.3     1  UNL1        0.0323
      2 C          49.9627    7.5012  -30.7367 C.ar    1  UNL1       -0.0083
      3 C          51.3632    7.4129  -30.8281 C.ar    1  UNL1       -0.0018
      4 C          52.1773    8.0076  -29.8605 C.ar    1  UNL1        0.0144
      5 C          51.6026    8.6648  -28.7665 C.ar    1  UNL1        0.0518
      6 C          50.2118    8.7138  -28.6439 C.ar    1  UNL1        0.0290
      7 C          49.3808    8.1801  -29.6425 C.ar    1  UNL1        0.0477
      8 N          52.4131    9.3252  -27.7891 N.am    1  UNL1       -0.2803
      9 C          52.3898   10.7542  -27.6816 C.2     1  UNL1        0.2495
     10 O          52.6412   11.4573  -28.6976 O.2     1  UNL1       -0.2698
     11 H          52.6788    8.7773  -26.9399 H       1  UNL1        0.1552
     12 C          52.0435   11.4109  -26.3973 C.ar    1  UNL1        0.0537
     13 C          53.0386   11.7008  -25.4461 C.ar    1  UNL1        0.0042
     14 C          52.7037   12.2885  -24.2244 C.ar    1  UNL1       -0.0028
     15 C          51.3693   12.6040  -23.9282 C.ar    1  UNL1       -0.0061
     16 C          50.3705   12.2875  -24.8625 C.ar    1  UNL1       -0.0028
     17 C          50.7041   11.7012  -26.0864 C.ar    1  UNL1        0.0042
     18 C          51.0053   13.2333  -22.6026 C.3     1  UNL1        0.0992
     19 N          49.8243   12.6111  -21.9599 N.3     1  UNL1       -0.2677
     20 C          48.9420   13.5542  -21.2365 C.3     1  UNL1        0.0899
     21 C          49.1605   13.5347  -19.7223 C.3     1  UNL1        0.0897
     22 N          49.0727   12.1576  -19.2194 N.3     1  UNL1       -0.2692
     23 C          49.1584   12.1518  -17.7509 C.3     1  UNL1        0.0897
     24 C          50.1690   11.3594  -19.7902 C.3     1  UNL1        0.0883
     25 C          50.0618   11.2820  -21.3322 C.3     1  UNL1        0.0737
     26 C          49.0299   10.2321  -21.8614 C.3     1  UNL1        0.0160
     27 C          49.6664    9.2924  -22.9001 C.3     1  UNL1        0.0014
     28 C          48.3434    9.3944  -20.7689 C.3     1  UNL1        0.0014
     29 N          47.9545    8.3515  -29.5525 N.pl3   1  UNL1       -0.2827
     30 H          47.3364    7.5106  -29.5974 H       1  UNL1        0.1551
     31 C          47.3337    9.6457  -29.5233 C.ar    1  UNL1        0.2207
     32 N          46.9707   10.2501  -30.6845 N.ar    1  UNL1       -0.2120
     33 C          46.3959   11.4805  -30.6794 C.ar    1  UNL1        0.1034
     34 C          46.1701   12.1440  -29.4723 C.ar    1  UNL1        0.0400
     35 C          46.5479   11.5144  -28.2753 C.ar    1  UNL1        0.0872
     36 N          47.1309   10.2877  -28.3410 N.ar    1  UNL1       -0.2135
     37 C          46.3481   12.1484  -26.9448 C.ar    1  UNL1        0.0370
     38 C          45.2800   11.7415  -26.1246 C.ar    1  UNL1        0.0046
     39 C          45.0833   12.3339  -24.8765 C.ar    1  UNL1        0.0207
     40 C          45.9492   13.3414  -24.4544 C.ar    1  UNL1        0.0989
     41 N          46.9661   13.7448  -25.2597 N.ar    1  UNL1       -0.2423
     42 C          47.1836   13.1818  -26.4785 C.ar    1  UNL1        0.1003
@<TRIPOS>BOND
     1     1     2    1
     2     2     3   ar
     3     3     4   ar
     4     4     5   ar
     5     5     8    1
     6     8     9   am
     7     9    10    2
     8     9    12    1
     9    12    13   ar
    10    13    14   ar
    11    14    15   ar
    12    15    18    1
    13    18    19    1
    14    19    20    1
    15    20    21    1
    16    21    22    1
    17    22    23    1
    18    22    24    1
    19    24    25    1
    20    25    26    1
    21    26    27    1
    22    26    28    1
    23    15    16   ar
    24    16    17   ar
    25     5     6   ar
    26     6     7   ar
    27     7    29    1
    28    29    31    1
    29    31    32   ar
    30    32    33   ar
    31    33    34   ar
    32    34    35   ar
    33    35    37    1
    34    37    38   ar
    35    38    39   ar
    36    39    40   ar
    37    40    41   ar
    38    41    42   ar
    39    35    36   ar
    40     7     2   ar
    41    36    31   ar
    42    17    12   ar
    43    42    37   ar
    44    25    19    1
    45     8    11    1
    46    29    30    1
@<TRIPOS>MOLECULE
*****
 42 46 0 0 0
SMALL
GASTEIGER

@<TRIPOS>ATOM
      1 C          46.0310   12.0494  -31.7194 C.3     1  UNL1        0.0323
      2 C          46.1111   12.4247  -30.2650 C.ar    1  UNL1       -0.0083
      3 C          45.8448   13.7486  -29.8724 C.ar    1  UNL1       -0.0018
      4 C          45.8745   14.1091  -28.5228 C.ar    1  UNL1        0.0144
      5 C          46.2098   13.1606  -27.5496 C.ar    1  UNL1        0.0518
      6 C          46.5233   11.8556  -27.9373 C.ar    1  UNL1        0.0290
      7 C          46.4318   11.4614  -29.2822 C.ar    1  UNL1        0.0477
      8 N          46.1981   13.4913  -26.1572 N.am    1  UNL1       -0.2803
      9 C          45.6676   12.5640  -25.2017 C.2     1  UNL1        0.2495
     10 O          44.4913   12.1325  -25.3426 O.2     1  UNL1       -0.2698
     11 H          46.9097   14.1801  -25.8239 H       1  UNL1        0.1552
     12 C          46.4984   12.0854  -24.0698 C.ar    1  UNL1        0.0537
     13 C          47.7984   11.5945  -24.2884 C.ar    1  UNL1        0.0042
     14 C          48.5645   11.1139  -23.2244 C.ar    1  UNL1       -0.0028
     15 C          48.0512   11.1174  -21.9189 C.ar    1  UNL1       -0.0061
     16 C          46.7428   11.5776  -21.7022 C.ar    1  UNL1       -0.0028
     17 C          45.9755   12.0609  -22.7656 C.ar    1  UNL1        0.0042
     18 C          48.8773   10.5899  -20.7676 C.3     1  UNL1        0.0992
     19 N          49.6260   11.6462  -20.0475 N.3     1  UNL1       -0.2677
     20 C          50.4261   11.1665  -18.8982 C.3     1  UNL1        0.0899
     21 C          49.7464   11.4181  -17.5507 C.3     1  UNL1        0.0897
     22 N          49.3603   12.8307  -17.4385 N.3     1  UNL1       -0.2692
     23 C          48.8206   13.0996  -16.0967 C.3     1  UNL1        0.0897
     24 C          48.3476   13.1418  -18.4595 C.3     1  UNL1        0.0883
     25 C          48.9114   12.9426  -19.8870 C.3     1  UNL1        0.0737
     26 C          49.7930   14.1244  -20.4098 C.3     1  UNL1        0.0160
     27 C          51.2663   13.7055  -20.5544 C.3     1  UNL1        0.0014
     28 C          49.3106   14.7558  -21.7271 C.3     1  UNL1        0.0014
     29 N          46.6408   10.0827  -29.6388 N.pl3   1  UNL1       -0.2827
     30 H          45.8324    9.5170  -29.9821 H       1  UNL1        0.1551
     31 C          47.8936    9.4134  -29.4295 C.ar    1  UNL1        0.2207
     32 N          48.3049    8.4562  -30.3013 N.ar    1  UNL1       -0.2120
     33 C          49.4794    7.8008  -30.1130 C.ar    1  UNL1        0.1034
     34 C          50.2835    8.1045  -29.0133 C.ar    1  UNL1        0.0400
     35 C          49.8528    9.0945  -28.1154 C.ar    1  UNL1        0.0872
     36 N          48.6621    9.7094  -28.3465 N.ar    1  UNL1       -0.2135
     37 C          50.6434    9.4801  -26.9160 C.ar    1  UNL1        0.0370
     38 C          50.5214    8.7410  -25.7252 C.ar    1  UNL1        0.0046
     39 C          51.2567    9.0983  -24.5944 C.ar    1  UNL1        0.0207
     40 C          52.1058   10.2023  -24.6524 C.ar    1  UNL1        0.0989
     41 N          52.2035   10.9249  -25.7985 N.ar    1  UNL1       -0.2423
     42 C          51.5020   10.5964  -26.9165 C.ar    1  UNL1        0.1003
@<TRIPOS>BOND
     1     1     2    1
     2     2     3   ar
     3     3     4   ar
     4     4     5   ar
     5     5     8    1
     6     8     9   am
     7     9    10    2
     8     9    12    1
     9    12    13   ar
    10    13    14   ar
    11    14    15   ar
    12    15    18    1
    13    18    19    1
    14    19    20    1
    15    20    21    1
    16    21    22    1
    17    22    23    1
    18    22    24    1
    19    24    25    1
    20    25    26    1
    21    26    27    1
    22    26    28    1
    23    15    16   ar
    24    16    17   ar
    25     5     6   ar
    26     6     7   ar
    27     7    29    1
    28    29    31    1
    29    31    32   ar
    30    32    33   ar
    31    33    34   ar
    32    34    35   ar
    33    35    37    1
    34    37    38   ar
    35    38    39   ar
    36    39    40   ar
    37    40    41   ar
    38    41    42   ar
    39    35    36   ar
    40     7     2   ar
    41    36    31   ar
    42    17    12   ar
    43    42    37   ar
    44    25    19    1
    45     8    11    1
    46    29    30    1
@<TRIPOS>MOLECULE
*****
 42 46 0 0 0
SMALL
GASTEIGER

@<TRIPOS>ATOM
      1 C          48.9088    6.9430  -31.9392 C.3     1  UNL1        0.0323
      2 C          49.7429    7.4955  -30.8161 C.ar    1  UNL1       -0.0083
      3 C          51.1403    7.3410  -30.8460 C.ar    1  UNL1       -0.0018
      4 C          51.9369    7.8814  -29.8331 C.ar    1  UNL1        0.0144
      5 C          51.3448    8.5495  -28.7550 C.ar    1  UNL1        0.0518
      6 C          49.9538    8.6639  -28.6941 C.ar    1  UNL1        0.0290
      7 C          49.1447    8.1856  -29.7378 C.ar    1  UNL1        0.0477
      8 N          52.1404    9.1555  -27.7313 N.am    1  UNL1       -0.2803
      9 C          52.2142   10.5832  -27.6278 C.2     1  UNL1        0.2495
     10 O          52.5768   11.2601  -28.6278 O.2     1  UNL1       -0.2698
     11 H          52.3140    8.5951  -26.8667 H       1  UNL1        0.1552
     12 C          51.8394   11.2709  -26.3680 C.ar    1  UNL1        0.0537
     13 C          50.4912   11.5369  -26.0670 C.ar    1  UNL1        0.0042
     14 C          50.1451   12.2143  -24.8960 C.ar    1  UNL1       -0.0028
     15 C          51.1369   12.6363  -23.9980 C.ar    1  UNL1       -0.0061
     16 C          52.4848   12.4000  -24.3109 C.ar    1  UNL1       -0.0028
     17 C          52.8328   11.7203  -25.4813 C.ar    1  UNL1        0.0042
     18 C          50.7632   13.3766  -22.7338 C.3     1  UNL1        0.0992
     19 N          50.7483   12.5145  -21.5291 N.3     1  UNL1       -0.2677
     20 C          49.8422   11.3468  -21.6122 C.3     1  UNL1        0.0899
     21 C          48.5212   11.5619  -20.8710 C.3     1  UNL1        0.0897
     22 N          48.7831   11.9950  -19.4922 N.3     1  UNL1       -0.2692
     23 C          47.5198   12.0815  -18.7435 C.3     1  UNL1        0.0897
     24 C          49.4472   13.3077  -19.5114 C.3     1  UNL1        0.0883
     25 C          50.8178   13.2320  -20.2263 C.3     1  UNL1        0.0737
     26 C          51.9802   12.6634  -19.3472 C.3     1  UNL1        0.0160
     27 C          53.3318   13.2928  -19.7270 C.3     1  UNL1        0.0014
     28 C          51.7652   12.7944  -17.8296 C.3     1  UNL1        0.0014
     29 N          47.7256    8.4245  -29.7090 N.pl3   1  UNL1       -0.2827
     30 H          47.0709    7.6130  -29.7747 H       1  UNL1        0.1551
     31 C          47.1659    9.7465  -29.7139 C.ar    1  UNL1        0.2207
     32 N          46.9047   10.3679  -30.8933 N.ar    1  UNL1       -0.2120
     33 C          46.3893   11.6242  -30.9197 C.ar    1  UNL1        0.1034
     34 C          46.1203   12.2970  -29.7267 C.ar    1  UNL1        0.0400
     35 C          46.3929   11.6496  -28.5107 C.ar    1  UNL1        0.0872
     36 N          46.9204   10.3968  -28.5443 N.ar    1  UNL1       -0.2135
     37 C          46.1408   12.2917  -27.1930 C.ar    1  UNL1        0.0370
     38 C          46.6780   13.5617  -26.9146 C.ar    1  UNL1        0.0046
     39 C          46.4494   14.1694  -25.6794 C.ar    1  UNL1        0.0207
     40 C          45.6923   13.5007  -24.7188 C.ar    1  UNL1        0.0989
     41 N          45.1939   12.2655  -24.9856 N.ar    1  UNL1       -0.2423
     42 C          45.3974   11.6520  -26.1823 C.ar    1  UNL1        0.1003
@<TRIPOS>BOND
     1     1     2    1
     2     2     3   ar
     3     3     4   ar
     4     4     5   ar
     5     5     8    1
     6     8     9   am
     7     9    10    2
     8     9    12    1
     9    12    13   ar
    10    13    14   ar
    11    14    15   ar
    12    15    18    1
    13    18    19    1
    14    19    20    1
    15    20    21    1
    16    21    22    1
    17    22    23    1
    18    22    24    1
    19    24    25    1
    20    25    26    1
    21    26    27    1
    22    26    28    1
    23    15    16   ar
    24    16    17   ar
    25     5     6   ar
    26     6     7   ar
    27     7    29    1
    28    29    31    1
    29    31    32   ar
    30    32    33   ar
    31    33    34   ar
    32    34    35   ar
    33    35    37    1
    34    37    38   ar
    35    38    39   ar
    36    39    40   ar
    37    40    41   ar
    38    41    42   ar
    39    35    36   ar
    40     7     2   ar
    41    36    31   ar
    42    17    12   ar
    43    42    37   ar
    44    25    19    1
    45     8    11    1
    46    29    30    1
@<TRIPOS>MOLECULE
*****
 42 46 0 0 0
SMALL
GASTEIGER

@<TRIPOS>ATOM
      1 C          46.1207   11.9998  -31.6615 C.3     1  UNL1        0.0323
      2 C          46.1432   12.3731  -30.2046 C.ar    1  UNL1       -0.0083
      3 C          45.8693   13.6982  -29.8215 C.ar    1  UNL1       -0.0018
      4 C          45.8458   14.0571  -28.4713 C.ar    1  UNL1        0.0144
      5 C          46.1350   13.1055  -27.4864 C.ar    1  UNL1        0.0518
      6 C          46.4561   11.7990  -27.8626 C.ar    1  UNL1        0.0290
      7 C          46.4175   11.4068  -29.2107 C.ar    1  UNL1        0.0477
      8 N          46.0682   13.4348  -26.0952 N.am    1  UNL1       -0.2803
      9 C          45.5450   12.4873  -25.1558 C.2     1  UNL1        0.2495
     10 O          44.3909   12.0109  -25.3321 O.2     1  UNL1       -0.2698
     11 H          46.7423   14.1503  -25.7409 H       1  UNL1        0.1552
     12 C          46.3586   12.0404  -23.9987 C.ar    1  UNL1        0.0537
     13 C          45.8726   12.1687  -22.6849 C.ar    1  UNL1        0.0042
     14 C          46.6554   11.7778  -21.5965 C.ar    1  UNL1       -0.0028
     15 C          47.9380   11.2459  -21.7967 C.ar    1  UNL1       -0.0061
     16 C          48.4378   11.1457  -23.1046 C.ar    1  UNL1       -0.0028
     17 C          47.6549   11.5345  -24.1950 C.ar    1  UNL1        0.0042
     18 C          48.7889   10.8297  -20.6183 C.3     1  UNL1        0.0992
     19 N          49.1258   11.9507  -19.7101 N.3     1  UNL1       -0.2677
     20 C          49.1142   13.2884  -20.3439 C.3     1  UNL1        0.0899
     21 C          50.5149   13.7971  -20.6906 C.3     1  UNL1        0.0897
     22 N          51.3834   13.7236  -19.5085 N.3     1  UNL1       -0.2692
     23 C          52.6913   14.3272  -19.8068 C.3     1  UNL1        0.0897
     24 C          51.5566   12.3158  -19.1176 C.3     1  UNL1        0.0883
     25 C          50.2050   11.6736  -18.7225 C.3     1  UNL1        0.0737
     26 C          49.7230   12.0105  -17.2729 C.3     1  UNL1        0.0160
     27 C          50.8908   12.4772  -16.3865 C.3     1  UNL1        0.0014
     28 C          48.5812   13.0384  -17.1949 C.3     1  UNL1        0.0014
     29 N          46.6324   10.0272  -29.5602 N.pl3   1  UNL1       -0.2827
     30 H          45.8181    9.4438  -29.8566 H       1  UNL1        0.1551
     31 C          47.9052    9.3815  -29.4043 C.ar    1  UNL1        0.2207
     32 N          48.3137    8.4592  -30.3143 N.ar    1  UNL1       -0.2120
     33 C          49.5073    7.8262  -30.1768 C.ar    1  UNL1        0.1034
     34 C          50.3345    8.1171  -29.0908 C.ar    1  UNL1        0.0400
     35 C          49.9066    9.0709  -28.1533 C.ar    1  UNL1        0.0872
     36 N          48.6965    9.6643  -28.3343 N.ar    1  UNL1       -0.2135
     37 C          50.7212    9.4405  -26.9649 C.ar    1  UNL1        0.0370
     38 C          50.4793    8.8206  -25.7254 C.ar    1  UNL1        0.0046
     39 C          51.2365    9.1642  -24.6048 C.ar    1  UNL1        0.0207
     40 C          52.2283   10.1366  -24.7226 C.ar    1  UNL1        0.0989
     41 N          52.4431   10.7469  -25.9170 N.ar    1  UNL1       -0.2423
     42 C          51.7232   10.4281  -27.0261 C.ar    1  UNL1        0.1003
@<TRIPOS>BOND
     1     1     2    1
     2     2     3   ar
     3     3     4   ar
     4     4     5   ar
     5     5     8    1
     6     8     9   am
     7     9    10    2
     8     9    12    1
     9    12    13   ar
    10    13    14   ar
    11    14    15   ar
    12    15    18    1
    13    18    19    1
    14    19    20    1
    15    20    21    1
    16    21    22    1
    17    22    23    1
    18    22    24    1
    19    24    25    1
    20    25    26    1
    21    26    27    1
    22    26    28    1
    23    15    16   ar
    24    16    17   ar
    25     5     6   ar
    26     6     7   ar
    27     7    29    1
    28    29    31    1
    29    31    32   ar
    30    32    33   ar
    31    33    34   ar
    32    34    35   ar
    33    35    37    1
    34    37    38   ar
    35    38    39   ar
    36    39    40   ar
    37    40    41   ar
    38    41    42   ar
    39    35    36   ar
    40     7     2   ar
    41    36    31   ar
    42    17    12   ar
    43    42    37   ar
    44    25    19    1
    45     8    11    1
    46    29    30    1
@<TRIPOS>MOLECULE
*****
 42 46 0 0 0
SMALL
GASTEIGER

@<TRIPOS>ATOM
      1 C          50.1467    7.2124  -31.2890 C.3     1  UNL1        0.0323
      2 C          50.6951    7.9257  -30.0836 C.ar    1  UNL1       -0.0083
      3 C          52.0851    8.0858  -29.9425 C.ar    1  UNL1       -0.0018
      4 C          52.6132    8.7800  -28.8508 C.ar    1  UNL1        0.0144
      5 C          51.7616    9.2897  -27.8639 C.ar    1  UNL1        0.0518
      6 C          50.3830    9.0917  -27.9728 C.ar    1  UNL1        0.0290
      7 C          49.8327    8.4556  -29.0976 C.ar    1  UNL1        0.0477
      8 N          52.2730   10.0476  -26.7628 N.am    1  UNL1       -0.2803
      9 C          51.9249   11.4304  -26.6176 C.2     1  UNL1        0.2495
     10 O          52.1484   12.2297  -27.5668 O.2     1  UNL1       -0.2698
     11 H          52.5377    9.5191  -25.9011 H       1  UNL1        0.1552
     12 C          51.2781   11.9216  -25.3763 C.ar    1  UNL1        0.0537
     13 C          49.8837   12.0960  -25.3121 C.ar    1  UNL1        0.0042
     14 C          49.2823   12.5904  -24.1528 C.ar    1  UNL1       -0.0028
     15 C          50.0594   12.9166  -23.0313 C.ar    1  UNL1       -0.0061
     16 C          51.4539   12.7731  -23.1032 C.ar    1  UNL1       -0.0028
     17 C          52.0572   12.2764  -24.2619 C.ar    1  UNL1        0.0042
     18 C          49.4096   13.4593  -21.7786 C.3     1  UNL1        0.0992
     19 N          48.7488   12.4168  -20.9590 N.3     1  UNL1       -0.2677
     20 C          47.9355   12.9334  -19.8352 C.3     1  UNL1        0.0899
     21 C          48.6528   12.8411  -18.4869 C.3     1  UNL1        0.0897
     22 N          49.1393   11.4725  -18.2689 N.3     1  UNL1       -0.2692
     23 C          49.7181   11.3529  -16.9218 C.3     1  UNL1        0.0897
     24 C          50.1548   11.1488  -19.2832 C.3     1  UNL1        0.0883
     25 C          49.5554   11.1905  -20.7095 C.3     1  UNL1        0.0737
     26 C          48.7510    9.9116  -21.1154 C.3     1  UNL1        0.0160
     27 C          47.3556   10.2726  -21.6535 C.3     1  UNL1        0.0014
     28 C          49.4641    8.9932  -22.1227 C.3     1  UNL1        0.0014
     29 N          48.4032    8.3729  -29.2440 N.pl3   1  UNL1       -0.2827
     30 H          47.9517    7.4335  -29.3148 H       1  UNL1        0.1551
     31 C          47.5774    9.5344  -29.4176 C.ar    1  UNL1        0.2207
     32 N          47.1251    9.8660  -30.6549 N.ar    1  UNL1       -0.2120
     33 C          46.3552   10.9690  -30.8427 C.ar    1  UNL1        0.1034
     34 C          46.0175   11.7813  -29.7590 C.ar    1  UNL1        0.0400
     35 C          46.4885   11.4337  -28.4826 C.ar    1  UNL1        0.0872
     36 N          47.2660   10.3254  -28.3553 N.ar    1  UNL1       -0.2135
     37 C          46.1808   12.2425  -27.2729 C.ar    1  UNL1        0.0370
     38 C          45.9325   11.6042  -26.0440 C.ar    1  UNL1        0.0046
     39 C          45.6393   12.3555  -24.9052 C.ar    1  UNL1        0.0207
     40 C          45.5837   13.7452  -24.9992 C.ar    1  UNL1        0.0989
     41 N          45.8035   14.3547  -26.1931 N.ar    1  UNL1       -0.2423
     42 C          46.0957   13.6475  -27.3175 C.ar    1  UNL1        0.1003
@<TRIPOS>BOND
     1     1     2    1
     2     2     3   ar
     3     3     4   ar
     4     4     5   ar
     5     5     8    1
     6     8     9   am
     7     9    10    2
     8     9    12    1
     9    12    13   ar
    10    13    14   ar
    11    14    15   ar
    12    15    18    1
    13    18    19    1
    14    19    20    1
    15    20    21    1
    16    21    22    1
    17    22    23    1
    18    22    24    1
    19    24    25    1
    20    25    26    1
    21    26    27    1
    22    26    28    1
    23    15    16   ar
    24    16    17   ar
    25     5     6   ar
    26     6     7   ar
    27     7    29    1
    28    29    31    1
    29    31    32   ar
    30    32    33   ar
    31    33    34   ar
    32    34    35   ar
    33    35    37    1
    34    37    38   ar
    35    38    39   ar
    36    39    40   ar
    37    40    41   ar
    38    41    42   ar
    39    35    36   ar
    40     7     2   ar
    41    36    31   ar
    42    17    12   ar
    43    42    37   ar
    44    25    19    1
    45     8    11    1
    46    29    30    1
@<TRIPOS>MOLECULE
*****
 42 46 0 0 0
SMALL
GASTEIGER

@<TRIPOS>ATOM
      1 C          49.3999    7.0051  -31.7510 C.3     1  UNL1        0.0323
      2 C          49.9531    7.6243  -30.4968 C.ar    1  UNL1       -0.0083
      3 C          51.3220    7.4944  -30.2019 C.ar    1  UNL1       -0.0018
      4 C          51.8637    8.0957  -29.0629 C.ar    1  UNL1        0.0144
      5 C          51.0374    8.8022  -28.1812 C.ar    1  UNL1        0.0518
      6 C          49.6681    8.8935  -28.4425 C.ar    1  UNL1        0.0290
      7 C          49.1207    8.3526  -29.6174 C.ar    1  UNL1        0.0477
      8 N          51.5752    9.4695  -27.0351 N.am    1  UNL1       -0.2803
      9 C          51.8969   10.8647  -27.0999 C.2     1  UNL1        0.2495
     10 O          52.6832   11.2796  -27.9941 O.2     1  UNL1       -0.2698
     11 H          51.3524    9.0643  -26.0980 H       1  UNL1        0.1552
     12 C          51.2908   11.8262  -26.1465 C.ar    1  UNL1        0.0537
     13 C          49.8936   11.9489  -26.0390 C.ar    1  UNL1        0.0042
     14 C          49.3274   12.8789  -25.1646 C.ar    1  UNL1       -0.0028
     15 C          50.1437   13.7026  -24.3752 C.ar    1  UNL1       -0.0061
     16 C          51.5382   13.6042  -24.5032 C.ar    1  UNL1       -0.0028
     17 C          52.1064   12.6726  -25.3763 C.ar    1  UNL1        0.0042
     18 C          49.5313   14.7150  -23.4340 C.3     1  UNL1        0.0992
     19 N          49.4381   16.0758  -24.0124 N.3     1  UNL1       -0.2677
     20 C          48.4158   16.9466  -23.3896 C.3     1  UNL1        0.0899
     21 C          47.1304   17.0425  -24.2139 C.3     1  UNL1        0.0897
     22 N          47.4474   17.4196  -25.5975 N.3     1  UNL1       -0.2692
     23 C          46.2063   17.6333  -26.3577 C.3     1  UNL1        0.0897
     24 C          48.2431   16.3520  -26.2235 C.3     1  UNL1        0.0883
     25 C          49.5924   16.1559  -25.4911 C.3     1  UNL1        0.0737
     26 C          50.6976   17.1952  -25.8728 C.3     1  UNL1        0.0160
     27 C          50.1086   18.3785  -26.6602 C.3     1  UNL1        0.0014
     28 C          51.5181   17.7299  -24.6865 C.3     1  UNL1        0.0014
     29 N          47.7303    8.5663  -29.9225 N.pl3   1  UNL1       -0.2827
     30 H          47.1474    7.7581  -30.2360 H       1  UNL1        0.1551
     31 C          47.1343    9.8724  -29.9294 C.ar    1  UNL1        0.2207
     32 N          46.8914   10.5006  -31.1091 N.ar    1  UNL1       -0.2120
     33 C          46.3421   11.7424  -31.1369 C.ar    1  UNL1        0.1034
     34 C          46.0188   12.3930  -29.9451 C.ar    1  UNL1        0.0400
     35 C          46.2727   11.7387  -28.7288 C.ar    1  UNL1        0.0872
     36 N          46.8357   10.5014  -28.7605 N.ar    1  UNL1       -0.2135
     37 C          45.9633   12.3575  -27.4122 C.ar    1  UNL1        0.0370
     38 C          45.6497   11.5437  -26.3083 C.ar    1  UNL1        0.0046
     39 C          45.3546   12.1164  -25.0705 C.ar    1  UNL1        0.0207
     40 C          45.3624   13.5043  -24.9407 C.ar    1  UNL1        0.0989
     41 N          45.6452   14.2857  -26.0153 N.ar    1  UNL1       -0.2423
     42 C          45.9408   13.7541  -27.2319 C.ar    1  UNL1        0.1003
@<TRIPOS>BOND
     1     1     2    1
     2     2     3   ar
     3     3     4   ar
     4     4     5   ar
     5     5     8    1
     6     8     9   am
     7     9    10    2
     8     9    12    1
     9    12    13   ar
    10    13    14   ar
    11    14    15   ar
    12    15    18    1
    13    18    19    1
    14    19    20    1
    15    20    21    1
    16    21    22    1
    17    22    23    1
    18    22    24    1
    19    24    25    1
    20    25    26    1
    21    26    27    1
    22    26    28    1
    23    15    16   ar
    24    16    17   ar
    25     5     6   ar
    26     6     7   ar
    27     7    29    1
    28    29    31    1
    29    31    32   ar
    30    32    33   ar
    31    33    34   ar
    32    34    35   ar
    33    35    37    1
    34    37    38   ar
    35    38    39   ar
    36    39    40   ar
    37    40    41   ar
    38    41    42   ar
    39    35    36   ar
    40     7     2   ar
    41    36    31   ar
    42    17    12   ar
    43    42    37   ar
    44    25    19    1
    45     8    11    1
    46    29    30    1
@<TRIPOS>MOLECULE
*****
 42 46 0 0 0
SMALL
GASTEIGER

@<TRIPOS>ATOM
      1 C          47.2353   17.0059  -23.1793 C.3     1  UNL1        0.0323
      2 C          48.2521   15.9203  -23.4031 C.ar    1  UNL1       -0.0083
      3 C          48.6502   15.1073  -22.3270 C.ar    1  UNL1       -0.0018
      4 C          49.5633   14.0676  -22.5216 C.ar    1  UNL1        0.0144
      5 C          50.1218   13.8509  -23.7867 C.ar    1  UNL1        0.0518
      6 C          49.7678   14.6859  -24.8492 C.ar    1  UNL1        0.0290
      7 C          48.8011   15.6914  -24.6849 C.ar    1  UNL1        0.0477
      8 N          51.0200   12.7623  -24.0238 N.am    1  UNL1       -0.2803
      9 C          50.5475   11.5628  -24.6501 C.2     1  UNL1        0.2495
     10 O          49.5690   10.9450  -24.1492 O.2     1  UNL1       -0.2698
     11 H          52.0352   12.9920  -24.1155 H       1  UNL1        0.1552
     12 C          51.1777   11.0606  -25.8955 C.ar    1  UNL1        0.0537
     13 C          52.2403   11.7594  -26.4967 C.ar    1  UNL1        0.0042
     14 C          52.8086   11.3012  -27.6871 C.ar    1  UNL1       -0.0028
     15 C          52.3316   10.1330  -28.3002 C.ar    1  UNL1       -0.0061
     16 C          51.2509    9.4509  -27.7194 C.ar    1  UNL1       -0.0028
     17 C          50.6825    9.9069  -26.5269 C.ar    1  UNL1        0.0042
     18 C          52.9414    9.6407  -29.5932 C.3     1  UNL1        0.0992
     19 N          52.5734    8.2442  -29.9236 N.3     1  UNL1       -0.2677
     20 C          53.6599    7.2557  -29.7399 C.3     1  UNL1        0.0899
     21 C          54.3414    6.8661  -31.0532 C.3     1  UNL1        0.0897
     22 N          53.3347    6.4446  -32.0362 N.3     1  UNL1       -0.2692
     23 C          53.9963    5.9526  -33.2544 C.3     1  UNL1        0.0897
     24 C          52.4643    7.5851  -32.3622 C.3     1  UNL1        0.0883
     25 C          51.6939    8.0772  -31.1133 C.3     1  UNL1        0.0737
     26 C          50.4326    7.2264  -30.7492 C.3     1  UNL1        0.0160
     27 C          49.3722    8.0745  -30.0257 C.3     1  UNL1        0.0014
     28 C          49.7801    6.4986  -31.9370 C.3     1  UNL1        0.0014
     29 N          48.3650   16.4568  -25.8233 N.pl3   1  UNL1       -0.2827
     30 H          48.7939   17.3922  -26.0029 H       1  UNL1        0.1551
     31 C          47.2754   16.0410  -26.6605 C.ar    1  UNL1        0.2207
     32 N          46.2068   16.8604  -26.8394 N.ar    1  UNL1       -0.2120
     33 C          45.1591   16.4796  -27.6153 C.ar    1  UNL1        0.1034
     34 C          45.1675   15.2326  -28.2422 C.ar    1  UNL1        0.0400
     35 C          46.2747   14.3898  -28.0531 C.ar    1  UNL1        0.0872
     36 N          47.2897   14.8175  -27.2556 N.ar    1  UNL1       -0.2135
     37 C          46.3669   13.0438  -28.6794 C.ar    1  UNL1        0.0370
     38 C          46.8188   11.9459  -27.9247 C.ar    1  UNL1        0.0046
     39 C          46.9118   10.6806  -28.5058 C.ar    1  UNL1        0.0207
     40 C          46.5632   10.5168  -29.8455 C.ar    1  UNL1        0.0989
     41 N          46.1477   11.5848  -30.5749 N.ar    1  UNL1       -0.2423
     42 C          46.0433   12.8278  -30.0329 C.ar    1  UNL1        0.1003
@<TRIPOS>BOND
     1     1     2    1
     2     2     3   ar
     3     3     4   ar
     4     4     5   ar
     5     5     8    1
     6     8     9   am
     7     9    10    2
     8     9    12    1
     9    12    13   ar
    10    13    14   ar
    11    14    15   ar
    12    15    18    1
    13    18    19    1
    14    19    20    1
    15    20    21    1
    16    21    22    1
    17    22    23    1
    18    22    24    1
    19    24    25    1
    20    25    26    1
    21    26    27    1
    22    26    28    1
    23    15    16   ar
    24    16    17   ar
    25     5     6   ar
    26     6     7   ar
    27     7    29    1
    28    29    31    1
    29    31    32   ar
    30    32    33   ar
    31    33    34   ar
    32    34    35   ar
    33    35    37    1
    34    37    38   ar
    35    38    39   ar
    36    39    40   ar
    37    40    41   ar
    38    41    42   ar
    39    35    36   ar
    40     7     2   ar
    41    36    31   ar
    42    17    12   ar
    43    42    37   ar
    44    25    19    1
    45     8    11    1
    46    29    30    1
@<TRIPOS>MOLECULE
*****
 42 46 0 0 0
SMALL
GASTEIGER

@<TRIPOS>ATOM
      1 C          45.4394   12.9736  -32.1364 C.3     1  UNL1        0.0323
      2 C          45.9457   12.3842  -30.8484 C.ar    1  UNL1       -0.0083
      3 C          46.3391   11.0347  -30.8080 C.ar    1  UNL1       -0.0018
      4 C          46.8496   10.4783  -29.6323 C.ar    1  UNL1        0.0144
      5 C          46.9371   11.2521  -28.4693 C.ar    1  UNL1        0.0518
      6 C          46.5022   12.5795  -28.4895 C.ar    1  UNL1        0.0290
      7 C          46.0503   13.1720  -29.6801 C.ar    1  UNL1        0.0477
      8 N          47.5028   10.7213  -27.2666 N.am    1  UNL1       -0.2803
      9 C          48.9128   10.4790  -27.1804 C.2     1  UNL1        0.2495
     10 O          49.4694    9.7412  -28.0382 O.2     1  UNL1       -0.2698
     11 H          46.9836   10.8961  -26.3768 H       1  UNL1        0.1552
     12 C          49.7255   11.1114  -26.1126 C.ar    1  UNL1        0.0537
     13 C          49.7749   12.5110  -25.9795 C.ar    1  UNL1        0.0042
     14 C          50.5675   13.1032  -24.9941 C.ar    1  UNL1       -0.0028
     15 C          51.3239   12.3111  -24.1176 C.ar    1  UNL1       -0.0061
     16 C          51.3009   10.9156  -24.2680 C.ar    1  UNL1       -0.0028
     17 C          50.5065   10.3211  -25.2523 C.ar    1  UNL1        0.0042
     18 C          52.1883   12.9520  -23.0555 C.3     1  UNL1        0.0992
     19 N          51.4098   13.6283  -21.9917 N.3     1  UNL1       -0.2677
     20 C          52.2267   14.3121  -20.9639 C.3     1  UNL1        0.0899
     21 C          52.3581   13.5047  -19.6709 C.3     1  UNL1        0.0897
     22 N          51.0285   13.1110  -19.1868 N.3     1  UNL1       -0.2692
     23 C          51.1458   12.4436  -17.8812 C.3     1  UNL1        0.0897
     24 C          50.4040   12.2030  -20.1615 C.3     1  UNL1        0.0883
     25 C          50.1958   12.9029  -21.5261 C.3     1  UNL1        0.0737
     26 C          48.9396   13.8325  -21.5962 C.3     1  UNL1        0.0160
     27 C          49.2412   15.1276  -22.3701 C.3     1  UNL1        0.0014
     28 C          47.6792   13.1714  -22.1800 C.3     1  UNL1        0.0014
     29 N          45.7241   14.5738  -29.7019 N.pl3   1  UNL1       -0.2827
     30 H          45.4348   15.0156  -30.6032 H       1  UNL1        0.1551
     31 C          45.8944   15.4231  -28.5570 C.ar    1  UNL1        0.2207
     32 N          44.8147   15.7918  -27.8196 N.ar    1  UNL1       -0.2120
     33 C          44.9525   16.6066  -26.7418 C.ar    1  UNL1        0.1034
     34 C          46.2141   17.0790  -26.3766 C.ar    1  UNL1        0.0400
     35 C          47.3263   16.6948  -27.1430 C.ar    1  UNL1        0.0872
     36 N          47.1278   15.8874  -28.2190 N.ar    1  UNL1       -0.2135
     37 C          48.7062   17.1527  -26.8289 C.ar    1  UNL1        0.0370
     38 C          49.5653   16.3326  -26.0749 C.ar    1  UNL1        0.0046
     39 C          50.8600   16.7564  -25.7727 C.ar    1  UNL1        0.0207
     40 C          51.2908   18.0059  -26.2158 C.ar    1  UNL1        0.0989
     41 N          50.4496   18.8022  -26.9253 N.ar    1  UNL1       -0.2423
     42 C          49.1845   18.4125  -27.2379 C.ar    1  UNL1        0.1003
@<TRIPOS>BOND
     1     1     2    1
     2     2     3   ar
     3     3     4   ar
     4     4     5   ar
     5     5     8    1
     6     8     9   am
     7     9    10    2
     8     9    12    1
     9    12    13   ar
    10    13    14   ar
    11    14    15   ar
    12    15    18    1
    13    18    19    1
    14    19    20    1
    15    20    21    1
    16    21    22    1
    17    22    23    1
    18    22    24    1
    19    24    25    1
    20    25    26    1
    21    26    27    1
    22    26    28    1
    23    15    16   ar
    24    16    17   ar
    25     5     6   ar
    26     6     7   ar
    27     7    29    1
    28    29    31    1
    29    31    32   ar
    30    32    33   ar
    31    33    34   ar
    32    34    35   ar
    33    35    37    1
    34    37    38   ar
    35    38    39   ar
    36    39    40   ar
    37    40    41   ar
    38    41    42   ar
    39    35    36   ar
    40     7     2   ar
    41    36    31   ar
    42    17    12   ar
    43    42    37   ar
    44    25    19    1
    45     8    11    1
    46    29    30    1
@<TRIPOS>MOLECULE
*****
 42 46 0 0 0
SMALL
GASTEIGER

@<TRIPOS>ATOM
      1 C          45.5317   12.0043  -20.3070 C.3     1  UNL1        0.0323
      2 C          46.8290   11.6699  -20.9908 C.ar    1  UNL1       -0.0083
      3 C          47.9502   11.3139  -20.2203 C.ar    1  UNL1       -0.0018
      4 C          49.1533   10.9610  -20.8371 C.ar    1  UNL1        0.0144
      5 C          49.2647   10.9973  -22.2319 C.ar    1  UNL1        0.0518
      6 C          48.1693   11.3973  -23.0012 C.ar    1  UNL1        0.0290
      7 C          46.9341   11.6894  -22.3999 C.ar    1  UNL1        0.0477
      8 N          50.4692   10.5923  -22.8901 N.am    1  UNL1       -0.2803
      9 C          50.5040    9.3712  -23.6398 C.2     1  UNL1        0.2495
     10 O          50.1763    8.2898  -23.0804 O.2     1  UNL1       -0.2698
     11 H          51.1463   11.3439  -23.1520 H       1  UNL1        0.1552
     12 C          50.8913    9.3732  -25.0718 C.ar    1  UNL1        0.0537
     13 C          50.0670    8.7730  -26.0409 C.ar    1  UNL1        0.0042
     14 C          50.4514    8.7476  -27.3832 C.ar    1  UNL1       -0.0028
     15 C          51.6642    9.3251  -27.7874 C.ar    1  UNL1       -0.0061
     16 C          52.5033    9.8971  -26.8182 C.ar    1  UNL1       -0.0028
     17 C          52.1192    9.9252  -25.4748 C.ar    1  UNL1        0.0042
     18 C          52.0845    9.2911  -29.2394 C.3     1  UNL1        0.0992
     19 N          51.9577    7.9508  -29.8579 N.3     1  UNL1       -0.2677
     20 C          53.0914    7.0359  -29.5953 C.3     1  UNL1        0.0899
     21 C          54.0681    6.9427  -30.7693 C.3     1  UNL1        0.0897
     22 N          53.3403    6.6237  -32.0045 N.3     1  UNL1       -0.2692
     23 C          54.2901    6.4115  -33.1076 C.3     1  UNL1        0.0897
     24 C          52.4279    7.7304  -32.3324 C.3     1  UNL1        0.0883
     25 C          51.3660    7.9284  -31.2240 C.3     1  UNL1        0.0737
     26 C          50.1652    6.9279  -31.2864 C.3     1  UNL1        0.0160
     27 C          48.8593    7.5864  -30.8087 C.3     1  UNL1        0.0014
     28 C          49.9357    6.2799  -32.6627 C.3     1  UNL1        0.0014
     29 N          45.7894   11.9798  -23.2227 N.pl3   1  UNL1       -0.2827
     30 H          44.8719   11.5357  -22.9943 H       1  UNL1        0.1551
     31 C          45.8806   12.7642  -24.4216 C.ar    1  UNL1        0.2207
     32 N          45.7906   14.1181  -24.3547 N.ar    1  UNL1       -0.2120
     33 C          45.8594   14.8773  -25.4787 C.ar    1  UNL1        0.1034
     34 C          46.0240   14.2713  -26.7253 C.ar    1  UNL1        0.0400
     35 C          46.1159   12.8715  -26.7881 C.ar    1  UNL1        0.0872
     36 N          46.0280   12.1608  -25.6322 N.ar    1  UNL1       -0.2135
     37 C          46.2887   12.1418  -28.0727 C.ar    1  UNL1        0.0370
     38 C          46.7483   10.8122  -28.0705 C.ar    1  UNL1        0.0046
     39 C          46.9167   10.1218  -29.2715 C.ar    1  UNL1        0.0207
     40 C          46.6357   10.7663  -30.4751 C.ar    1  UNL1        0.0989
     41 N          46.2125   12.0571  -30.4720 N.ar    1  UNL1       -0.2423
     42 C          46.0353   12.7520  -29.3164 C.ar    1  UNL1        0.1003
@<TRIPOS>BOND
     1     1     2    1
     2     2     3   ar
     3     3     4   ar
     4     4     5   ar
     5     5     8    1
     6     8     9   am
     7     9    10    2
     8     9    12    1
     9    12    13   ar
    10    13    14   ar
    11    14    15   ar
    12    15    18    1
    13    18    19    1
    14    19    20    1
    15    20    21    1
    16    21    22    1
    17    22    23    1
    18    22    24    1
    19    24    25    1
    20    25    26    1
    21    26    27    1
    22    26    28    1
    23    15    16   ar
    24    16    17   ar
    25     5     6   ar
    26     6     7   ar
    27     7    29    1
    28    29    31    1
    29    31    32   ar
    30    32    33   ar
    31    33    34   ar
    32    34    35   ar
    33    35    37    1
    34    37    38   ar
    35    38    39   ar
    36    39    40   ar
    37    40    41   ar
    38    41    42   ar
    39    35    36   ar
    40     7     2   ar
    41    36    31   ar
    42    17    12   ar
    43    42    37   ar
    44    25    19    1
    45     8    11    1
    46    29    30    1
