@<TRIPOS>MOLECULE
*****
 45 50 0 0 0
SMALL
GASTEIGER

@<TRIPOS>ATOM
      1 C          59.1628   91.0151    5.7423 C.ar    1  UNL1        0.0702
      2 C          57.9812   91.4620    5.1303 C.ar    1  UNL1        0.0191
      3 C          58.0345   92.1206    3.9008 C.ar    1  UNL1        0.0356
      4 C          59.2738   92.3107    3.2694 C.ar    1  UNL1        0.1318
      5 N          60.4060   91.8633    3.8801 N.ar    1  UNL1       -0.2279
      6 C          60.3781   91.2200    5.0771 C.ar    1  UNL1        0.1149
      7 N          59.3709   93.0049    2.0113 N.pl3   1  UNL1       -0.2932
      8 C          58.9577   92.3127    0.7814 C.3     1  UNL1        0.0923
      9 C          59.3736   93.0939   -0.4747 C.3     1  UNL1        0.0252
     10 C          60.7912   93.6679   -0.2958 C.3     1  UNL1        0.0472
     11 C          60.8645   94.6441    0.9105 C.3     1  UNL1        0.0252
     12 C          59.7469   94.4241    1.9439 C.3     1  UNL1        0.0923
     13 C          61.2690   94.3437   -1.5951 C.3     1  UNL1        0.2054
     14 O          62.6860   94.2330   -1.7410 O.3     1  UNL1       -0.4755
     15 C          63.6115   94.1386   -0.6886 C.ar    1  UNL1        0.1388
     16 C          64.8001   94.8923   -0.6494 C.ar    1  UNL1        0.0369
     17 C          65.6837   94.7546    0.4228 C.ar    1  UNL1        0.0033
     18 C          65.3939   93.8721    1.4654 C.ar    1  UNL1        0.0066
     19 C          64.2093   93.1156    1.4471 C.ar    1  UNL1        0.0785
     20 C          63.3244   93.2600    0.3638 C.ar    1  UNL1        0.0433
     21 C          63.8948   92.1798    2.5492 C.2     1  UNL1        0.3381
     22 O          62.9563   92.4317    3.3529 O.2     1  UNL1       -0.2451
     23 O          64.6335   91.0102    2.7097 O.3     1  UNL1       -0.4771
     24 H          64.4265   90.3629    3.4609 H       1  UNL1        0.2954
     25 C          59.4399   88.9117    7.1368 C.2     1  UNL1        0.2839
     26 O          59.4755   88.1658    6.1214 O.2     1  UNL1       -0.2665
     27 N          59.1477   90.3116    6.9963 N.am    1  UNL1       -0.2766
     28 H          58.8231   90.8320    7.8426 H       1  UNL1        0.1553
     29 C          61.1721   90.1858    9.5136 C.3     1  UNL1        0.0345
     30 C          60.4125   88.8933    9.5198 C.ar    1  UNL1        0.0202
     31 C          59.6578   88.3401    8.4792 C.ar    1  UNL1        0.1946
     32 O          59.1349   87.1890    8.8626 O.2     1  UNL1       -0.4492
     33 C          59.5120   86.9667   10.0979 C.ar    1  UNL1        0.1452
     34 C          59.1914   85.8729   10.8943 C.ar    1  UNL1        0.0375
     35 C          59.7052   85.8352   12.2021 C.ar    1  UNL1        0.0031
     36 C          60.5277   86.8854   12.6922 C.ar    1  UNL1        0.0002
     37 C          60.8305   87.9810   11.8484 C.ar    1  UNL1        0.0028
     38 C          60.3036   87.9855   10.5558 C.ar    1  UNL1        0.0337
     39 C          61.0646   86.8348   14.0757 C.ar    1  UNL1        0.0000
     40 C          61.3120   88.0214   14.7912 C.ar    1  UNL1        0.0005
     41 C          61.8185   87.9712   16.0935 C.ar    1  UNL1        0.0067
     42 C          62.0831   86.7387   16.6968 C.ar    1  UNL1        0.0346
     43 BR         62.7744   86.6735   18.4759 Br      1  UNL1       -0.0490
     44 C          61.8411   85.5539   15.9961 C.ar    1  UNL1        0.0067
     45 C          61.3355   85.5992   14.6933 C.ar    1  UNL1        0.0005
@<TRIPOS>BOND
     1    29    30    1
     2    30    31   ar
     3    31    25    1
     4    25    26    2
     5    25    27   am
     6    27     1    1
     7     1     2   ar
     8     2     3   ar
     9     3     4   ar
    10     4     7    1
    11     7     8    1
    12     8     9    1
    13     9    10    1
    14    10    13    1
    15    13    14    1
    16    14    15    1
    17    15    16   ar
    18    16    17   ar
    19    17    18   ar
    20    18    19   ar
    21    19    21    1
    22    21    22    2
    23    21    23    1
    24    19    20   ar
    25    10    11    1
    26    11    12    1
    27     4     5   ar
    28     5     6   ar
    29    31    32   ar
    30    32    33   ar
    31    33    34   ar
    32    34    35   ar
    33    35    36   ar
    34    36    39    1
    35    39    40   ar
    36    40    41   ar
    37    41    42   ar
    38    42    43    1
    39    42    44   ar
    40    44    45   ar
    41    36    37   ar
    42    37    38   ar
    43    38    30   ar
    44     6     1   ar
    45    38    33   ar
    46    12     7    1
    47    45    39   ar
    48    20    15   ar
    49    27    28    1
    50    23    24    1
@<TRIPOS>MOLECULE
*****
 45 50 0 0 0
SMALL
GASTEIGER

@<TRIPOS>ATOM
      1 C          59.8365   90.9883    5.7883 C.ar    1  UNL1        0.0702
      2 C          58.5596   91.3768    5.3535 C.ar    1  UNL1        0.0191
      3 C          58.4054   92.0364    4.1331 C.ar    1  UNL1        0.0356
      4 C          59.5314   92.2862    3.3330 C.ar    1  UNL1        0.1318
      5 N          60.7594   91.8947    3.7735 N.ar    1  UNL1       -0.2279
      6 C          60.9334   91.2517    4.9582 C.ar    1  UNL1        0.1149
      7 N          59.4147   92.9834    2.0783 N.pl3   1  UNL1       -0.2932
      8 C          58.8907   92.2629    0.9083 C.3     1  UNL1        0.0923
      9 C          59.0837   93.0686   -0.3857 C.3     1  UNL1        0.0252
     10 C          60.4704   93.7379   -0.3908 C.3     1  UNL1        0.0472
     11 C          60.6361   94.7186    0.8026 C.3     1  UNL1        0.0252
     12 C          59.6819   94.4248    1.9725 C.3     1  UNL1        0.0923
     13 C          60.7260   94.4426   -1.7366 C.3     1  UNL1        0.2054
     14 O          62.1135   94.4141   -2.0763 O.3     1  UNL1       -0.4755
     15 C          63.1756   94.2825   -1.1666 C.ar    1  UNL1        0.1388
     16 C          64.4290   94.8922   -1.3652 C.ar    1  UNL1        0.0369
     17 C          65.4484   94.7239   -0.4262 C.ar    1  UNL1        0.0033
     18 C          65.2318   93.9535    0.7181 C.ar    1  UNL1        0.0066
     19 C          63.9853   93.3419    0.9370 C.ar    1  UNL1        0.0785
     20 C          62.9636   93.5162   -0.0134 C.ar    1  UNL1        0.0433
     21 C          63.7479   92.5256    2.1481 C.2     1  UNL1        0.3381
     22 O          63.2976   91.3519    2.0492 O.2     1  UNL1       -0.2451
     23 O          64.0200   93.0467    3.4105 O.3     1  UNL1       -0.4771
     24 H          63.8609   92.4963    4.2460 H       1  UNL1        0.2954
     25 C          59.5520   88.9568    7.2841 C.2     1  UNL1        0.2839
     26 O          58.7008   88.4312    6.5172 O.2     1  UNL1       -0.2665
     27 N          60.0342   90.2857    7.0272 N.am    1  UNL1       -0.2766
     28 H          60.4823   90.8056    7.8156 H       1  UNL1        0.1553
     29 C          60.6342   85.9413    7.3805 C.3     1  UNL1        0.0345
     30 C          60.4993   86.9069    8.5193 C.ar    1  UNL1        0.0202
     31 C          60.0254   88.2228    8.4730 C.ar    1  UNL1        0.1946
     32 O          60.0572   88.7574    9.6808 O.2     1  UNL1       -0.4492
     33 C          60.5266   87.8559   10.5082 C.ar    1  UNL1        0.1452
     34 C          60.7302   87.9914   11.8770 C.ar    1  UNL1        0.0375
     35 C          61.2494   86.8901   12.5794 C.ar    1  UNL1        0.0031
     36 C          61.5557   85.6760   11.9072 C.ar    1  UNL1        0.0002
     37 C          61.3330   85.5797   10.5125 C.ar    1  UNL1        0.0028
     38 C          60.8162   86.6926    9.8471 C.ar    1  UNL1        0.0337
     39 C          62.1040   84.5192   12.6598 C.ar    1  UNL1        0.0000
     40 C          61.3173   83.8497   13.6159 C.ar    1  UNL1        0.0005
     41 C          61.8360   82.7613   14.3238 C.ar    1  UNL1        0.0067
     42 C          63.1433   82.3281   14.0864 C.ar    1  UNL1        0.0346
     43 BR         63.8488   80.8408   15.0547 Br      1  UNL1       -0.0490
     44 C          63.9336   82.9850   13.1392 C.ar    1  UNL1        0.0067
     45 C          63.4195   84.0744   12.4295 C.ar    1  UNL1        0.0005
@<TRIPOS>BOND
     1    29    30    1
     2    30    31   ar
     3    31    25    1
     4    25    26    2
     5    25    27   am
     6    27     1    1
     7     1     2   ar
     8     2     3   ar
     9     3     4   ar
    10     4     7    1
    11     7     8    1
    12     8     9    1
    13     9    10    1
    14    10    13    1
    15    13    14    1
    16    14    15    1
    17    15    16   ar
    18    16    17   ar
    19    17    18   ar
    20    18    19   ar
    21    19    21    1
    22    21    22    2
    23    21    23    1
    24    19    20   ar
    25    10    11    1
    26    11    12    1
    27     4     5   ar
    28     5     6   ar
    29    31    32   ar
    30    32    33   ar
    31    33    34   ar
    32    34    35   ar
    33    35    36   ar
    34    36    39    1
    35    39    40   ar
    36    40    41   ar
    37    41    42   ar
    38    42    43    1
    39    42    44   ar
    40    44    45   ar
    41    36    37   ar
    42    37    38   ar
    43    38    30   ar
    44     6     1   ar
    45    38    33   ar
    46    12     7    1
    47    45    39   ar
    48    20    15   ar
    49    27    28    1
    50    23    24    1
