@<TRIPOS>MOLECULE
*****
 38 42 0 0 0
SMALL
GASTEIGER

@<TRIPOS>ATOM
      1 C         -21.6866   -8.9504  -12.4918 C.2     1  UNL1        0.2506
      2 O         -21.2986   -8.2068  -13.4337 O.2     1  UNL1       -0.2699
      3 N         -23.0991   -9.1071  -12.2328 N.am    1  UNL1       -0.2680
      4 C         -23.5872   -9.3298  -10.8692 C.3     1  UNL1        0.1412
      5 C         -23.4690   -8.0399  -10.0562 C.3     1  UNL1        0.2268
      6 O         -23.3626   -6.8858  -10.8914 O.3     1  UNL1       -0.4739
      7 C         -24.3268   -6.5102  -11.8352 C.ar    1  UNL1        0.1362
      8 C         -24.9040   -5.2443  -11.6960 C.ar    1  UNL1        0.0366
      9 C         -25.8711   -4.7965  -12.5948 C.ar    1  UNL1        0.0031
     10 C         -26.2730   -5.6053  -13.6676 C.ar    1  UNL1       -0.0000
     11 C         -25.6800   -6.8693  -13.8263 C.ar    1  UNL1        0.0004
     12 C         -24.7026   -7.3360  -12.9295 C.ar    1  UNL1        0.0317
     13 C         -24.0856   -8.6892  -13.2330 C.3     1  UNL1        0.1236
     14 C         -27.3026   -5.1282  -14.6252 C.ar    1  UNL1        0.0015
     15 C         -28.6699   -5.4825  -14.4496 C.ar    1  UNL1        0.0016
     16 C         -29.6530   -5.0345  -15.3517 C.ar    1  UNL1        0.0206
     17 C         -29.2420   -4.2380  -16.4151 C.ar    1  UNL1        0.0985
     18 N         -30.0037   -3.7027  -17.3859 N.ar    1  UNL1       -0.2241
     19 C         -29.0979   -3.0290  -18.1432 C.ar    1  UNL1        0.1750
     20 N         -27.8277   -3.1280  -17.6825 N.ar    1  UNL1       -0.3349
     21 C         -27.9375   -3.8953  -16.5919 C.ar    1  UNL1        0.0757
     22 C         -26.9328   -4.3159  -15.7250 C.ar    1  UNL1        0.0185
     23 H         -26.9647   -2.7024  -18.0877 H       1  UNL1        0.1675
     24 C         -20.6004  -11.0512  -11.6237 C.ar    1  UNL1        0.0462
     25 C         -20.6738   -9.6427  -11.6673 C.ar    1  UNL1        0.0664
     26 C         -19.8034   -8.8786  -10.8859 C.ar    1  UNL1        0.0070
     27 C         -18.8701   -9.4937  -10.0583 C.ar    1  UNL1        0.0182
     28 C         -18.7687  -10.8906  -10.0019 C.ar    1  UNL1        0.1029
     29 C         -19.6085  -11.6835  -10.8287 C.ar    1  UNL1        0.0085
     30 C         -19.4580  -13.1879  -10.8646 C.3     1  UNL1        0.0337
     31 S         -17.5740  -11.6170   -8.9053 S.O2    1  UNL1        0.0102
     32 C         -17.6949  -10.9742   -7.2470 C.3     1  UNL1        0.1816
     33 O         -16.1905  -11.3428   -9.4239 O.2     1  UNL1       -0.1686
     34 O         -17.7964  -13.1015   -8.8295 O.2     1  UNL1       -0.1686
     35 N         -21.5006  -11.8313  -12.4276 N.pl3   1  UNL1       -0.3327
     36 H         -22.0070  -12.6189  -11.9628 H       1  UNL1        0.1468
     37 C         -21.1824  -13.3613  -14.3149 C.3     1  UNL1        0.0229
     38 C         -21.3289  -11.9097  -13.8770 C.3     1  UNL1        0.0871
@<TRIPOS>BOND
     1    37    38    1
     2    38    35    1
     3    35    24    1
     4    24    25   ar
     5    25     1    1
     6     1     2    2
     7     1     3   am
     8     3     4    1
     9     4     5    1
    10     5     6    1
    11     6     7    1
    12     7     8   ar
    13     8     9   ar
    14     9    10   ar
    15    10    14    1
    16    14    15   ar
    17    15    16   ar
    18    16    17   ar
    19    17    18   ar
    20    18    19   ar
    21    19    20   ar
    22    20    21   ar
    23    21    22   ar
    24    10    11   ar
    25    11    12   ar
    26    12    13    1
    27    25    26   ar
    28    26    27   ar
    29    27    28   ar
    30    28    31    1
    31    31    32    1
    32    31    33    2
    33    31    34    2
    34    28    29   ar
    35    29    30    1
    36    29    24   ar
    37    13     3    1
    38    12     7   ar
    39    22    14   ar
    40    21    17   ar
    41    35    36    1
    42    20    23    1
@<TRIPOS>MOLECULE
*****
 38 42 0 0 0
SMALL
GASTEIGER

@<TRIPOS>ATOM
      1 C         -21.8138   -8.0596  -12.3170 C.2     1  UNL1        0.2506
      2 O         -21.4635   -6.9104  -12.7010 O.2     1  UNL1       -0.2699
      3 N         -23.0946   -8.5937  -12.7182 N.am    1  UNL1       -0.2680
      4 C         -23.8343   -9.5000  -11.8356 C.3     1  UNL1        0.1412
      5 C         -24.4065   -8.7213  -10.6503 C.3     1  UNL1        0.2268
      6 O         -24.4813   -7.3193  -10.9138 O.3     1  UNL1       -0.4739
      7 C         -25.2111   -6.7583  -11.9693 C.ar    1  UNL1        0.1362
      8 C         -26.2086   -5.8347  -11.6420 C.ar    1  UNL1        0.0366
      9 C         -26.9789   -5.2319  -12.6355 C.ar    1  UNL1        0.0031
     10 C         -26.7560   -5.5312  -13.9873 C.ar    1  UNL1       -0.0000
     11 C         -25.7396   -6.4412  -14.3240 C.ar    1  UNL1        0.0004
     12 C         -24.9530   -7.0575  -13.3348 C.ar    1  UNL1        0.0317
     13 C         -23.8434   -7.9750  -13.8157 C.3     1  UNL1        0.1236
     14 C         -27.5759   -4.8888  -15.0454 C.ar    1  UNL1        0.0015
     15 C         -28.9961   -4.8817  -14.9522 C.ar    1  UNL1        0.0016
     16 C         -29.7817   -4.2746  -15.9500 C.ar    1  UNL1        0.0206
     17 C         -29.1234   -3.6858  -17.0241 C.ar    1  UNL1        0.0985
     18 N         -29.6691   -3.0539  -18.0788 N.ar    1  UNL1       -0.2241
     19 C         -28.5811   -2.6824  -18.8041 C.ar    1  UNL1        0.1750
     20 N         -27.4051   -3.0559  -18.2447 N.ar    1  UNL1       -0.3349
     21 C         -27.7666   -3.6887  -17.1225 C.ar    1  UNL1        0.0757
     22 C         -26.9513   -4.2773  -16.1598 C.ar    1  UNL1        0.0185
     23 H         -26.4410   -2.8873  -18.6082 H       1  UNL1        0.1675
     24 C         -20.2458   -8.2349  -10.3529 C.ar    1  UNL1        0.0462
     25 C         -20.8964   -8.8325  -11.4533 C.ar    1  UNL1        0.0664
     26 C         -20.6420  -10.1701  -11.7664 C.ar    1  UNL1        0.0070
     27 C         -19.7464  -10.9165  -11.0081 C.ar    1  UNL1        0.0182
     28 C         -19.0929  -10.3516   -9.9043 C.ar    1  UNL1        0.1029
     29 C         -19.3787   -9.0093   -9.5380 C.ar    1  UNL1        0.0085
     30 C         -18.7658   -8.4009   -8.2966 C.3     1  UNL1        0.0337
     31 S         -17.9402  -11.3491   -8.9911 S.O2    1  UNL1        0.0102
     32 C         -18.0142  -13.0689   -9.4543 C.3     1  UNL1        0.1816
     33 O         -18.2386  -11.2369   -7.5226 O.2     1  UNL1       -0.1686
     34 O         -16.5399  -10.8718   -9.2564 O.2     1  UNL1       -0.1686
     35 N         -20.5097   -6.8577  -10.0382 N.pl3   1  UNL1       -0.3327
     36 H         -19.7007   -6.1956  -10.0438 H       1  UNL1        0.1468
     37 C         -22.0936   -5.0549   -9.5429 C.3     1  UNL1        0.0229
     38 C         -21.6724   -6.4860   -9.2344 C.3     1  UNL1        0.0871
@<TRIPOS>BOND
     1    37    38    1
     2    38    35    1
     3    35    24    1
     4    24    25   ar
     5    25     1    1
     6     1     2    2
     7     1     3   am
     8     3     4    1
     9     4     5    1
    10     5     6    1
    11     6     7    1
    12     7     8   ar
    13     8     9   ar
    14     9    10   ar
    15    10    14    1
    16    14    15   ar
    17    15    16   ar
    18    16    17   ar
    19    17    18   ar
    20    18    19   ar
    21    19    20   ar
    22    20    21   ar
    23    21    22   ar
    24    10    11   ar
    25    11    12   ar
    26    12    13    1
    27    25    26   ar
    28    26    27   ar
    29    27    28   ar
    30    28    31    1
    31    31    32    1
    32    31    33    2
    33    31    34    2
    34    28    29   ar
    35    29    30    1
    36    29    24   ar
    37    13     3    1
    38    12     7   ar
    39    22    14   ar
    40    21    17   ar
    41    35    36    1
    42    20    23    1
@<TRIPOS>MOLECULE
*****
 38 42 0 0 0
SMALL
GASTEIGER

@<TRIPOS>ATOM
      1 C         -22.2731   -9.3467  -11.0834 C.2     1  UNL1        0.2506
      2 O         -23.3016  -10.0621  -11.2293 O.2     1  UNL1       -0.2699
      3 N         -22.3172   -7.9439  -11.4257 N.am    1  UNL1       -0.2680
      4 C         -21.1243   -7.2630  -11.9363 C.3     1  UNL1        0.1412
      5 C         -20.8384   -7.7165  -13.3686 C.3     1  UNL1        0.2268
      6 O         -21.9880   -8.2942  -13.9892 O.3     1  UNL1       -0.4739
      7 C         -23.2032   -7.6212  -14.1679 C.ar    1  UNL1        0.1362
      8 C         -23.6792   -7.4898  -15.4761 C.ar    1  UNL1        0.0366
      9 C         -24.8811   -6.8333  -15.7372 C.ar    1  UNL1        0.0031
     10 C         -25.6445   -6.3039  -14.6867 C.ar    1  UNL1       -0.0000
     11 C         -25.1830   -6.4530  -13.3679 C.ar    1  UNL1        0.0004
     12 C         -23.9736   -7.1129  -13.0868 C.ar    1  UNL1        0.0317
     13 C         -23.6039   -7.2704  -11.6230 C.3     1  UNL1        0.1236
     14 C         -26.9249   -5.6053  -14.9646 C.ar    1  UNL1        0.0015
     15 C         -26.9350   -4.3790  -15.6872 C.ar    1  UNL1        0.0016
     16 C         -28.1437   -3.7098  -15.9560 C.ar    1  UNL1        0.0206
     17 C         -29.3209   -4.2869  -15.4923 C.ar    1  UNL1        0.0985
     18 N         -30.5764   -3.8261  -15.6357 N.ar    1  UNL1       -0.2241
     19 C         -31.3192   -4.7716  -15.0014 C.ar    1  UNL1        0.1750
     20 N         -30.5799   -5.7807  -14.4813 N.ar    1  UNL1       -0.3349
     21 C         -29.3211   -5.4578  -14.7999 C.ar    1  UNL1        0.0757
     22 C         -28.1499   -6.1528  -14.5114 C.ar    1  UNL1        0.0185
     23 H         -30.9179   -6.6162  -13.9540 H       1  UNL1        0.1675
     24 C         -20.6548  -11.2732  -10.9567 C.ar    1  UNL1        0.0462
     25 C         -21.0376   -9.9722  -10.5668 C.ar    1  UNL1        0.0664
     26 C         -20.2620   -9.2694   -9.6413 C.ar    1  UNL1        0.0070
     27 C         -19.1198   -9.8438   -9.0938 C.ar    1  UNL1        0.0182
     28 C         -18.7108  -11.1307   -9.4696 C.ar    1  UNL1        0.1029
     29 C         -19.4563  -11.8400  -10.4488 C.ar    1  UNL1        0.0085
     30 C         -18.9881  -13.1886  -10.9478 C.3     1  UNL1        0.0337
     31 S         -17.2571  -11.8198   -8.7149 S.O2    1  UNL1        0.0102
     32 C         -17.1194  -11.3918   -6.9899 C.3     1  UNL1        0.1816
     33 O         -16.0367  -11.3141   -9.4311 O.2     1  UNL1       -0.1686
     34 O         -17.3057  -13.3194   -8.8036 O.2     1  UNL1       -0.1686
     35 N         -21.4587  -11.9918  -11.9068 N.pl3   1  UNL1       -0.3327
     36 H         -21.8239  -12.9291  -11.6221 H       1  UNL1        0.1468
     37 C         -21.3030  -13.0404  -14.1159 C.3     1  UNL1        0.0229
     38 C         -21.3327  -11.7303  -13.3393 C.3     1  UNL1        0.0871
@<TRIPOS>BOND
     1    37    38    1
     2    38    35    1
     3    35    24    1
     4    24    25   ar
     5    25     1    1
     6     1     2    2
     7     1     3   am
     8     3     4    1
     9     4     5    1
    10     5     6    1
    11     6     7    1
    12     7     8   ar
    13     8     9   ar
    14     9    10   ar
    15    10    14    1
    16    14    15   ar
    17    15    16   ar
    18    16    17   ar
    19    17    18   ar
    20    18    19   ar
    21    19    20   ar
    22    20    21   ar
    23    21    22   ar
    24    10    11   ar
    25    11    12   ar
    26    12    13    1
    27    25    26   ar
    28    26    27   ar
    29    27    28   ar
    30    28    31    1
    31    31    32    1
    32    31    33    2
    33    31    34    2
    34    28    29   ar
    35    29    30    1
    36    29    24   ar
    37    13     3    1
    38    12     7   ar
    39    22    14   ar
    40    21    17   ar
    41    35    36    1
    42    20    23    1
@<TRIPOS>MOLECULE
*****
 38 42 0 0 0
SMALL
GASTEIGER

@<TRIPOS>ATOM
      1 C         -21.8709   -9.1789  -12.5305 C.2     1  UNL1        0.2506
      2 O         -21.4428   -8.0940  -13.0108 O.2     1  UNL1       -0.2699
      3 N         -23.2520   -9.5564  -12.7230 N.am    1  UNL1       -0.2680
      4 C         -23.9604  -10.3378  -11.7056 C.3     1  UNL1        0.1412
      5 C         -24.2550   -9.4616  -10.4873 C.3     1  UNL1        0.2268
      6 O         -24.1958   -8.0689  -10.7997 O.3     1  UNL1       -0.4739
      7 C         -24.9975   -7.4479  -11.7658 C.ar    1  UNL1        0.1362
      8 C         -25.8167   -6.3968  -11.3425 C.ar    1  UNL1        0.0366
      9 C         -26.6439   -5.7275  -12.2434 C.ar    1  UNL1        0.0031
     10 C         -26.6581   -6.0884  -13.5984 C.ar    1  UNL1       -0.0000
     11 C         -25.8200   -7.1287  -14.0342 C.ar    1  UNL1        0.0004
     12 C         -24.9790   -7.8135  -13.1393 C.ar    1  UNL1        0.0317
     13 C         -24.0713   -8.8769  -13.7305 C.3     1  UNL1        0.1236
     14 C         -27.5386   -5.3753  -14.5579 C.ar    1  UNL1        0.0015
     15 C         -28.9531   -5.5112  -14.4765 C.ar    1  UNL1        0.0016
     16 C         -29.7960   -4.8386  -15.3812 C.ar    1  UNL1        0.0206
     17 C         -29.1996   -4.0414  -16.3521 C.ar    1  UNL1        0.0985
     18 N         -29.8062   -3.3142  -17.3075 N.ar    1  UNL1       -0.2241
     19 C         -28.7604   -2.7431  -17.9616 C.ar    1  UNL1        0.1750
     20 N         -27.5523   -3.0858  -17.4531 N.ar    1  UNL1       -0.3349
     21 C         -27.8488   -3.9063  -16.4386 C.ar    1  UNL1        0.0757
     22 C         -26.9782   -4.5529  -15.5657 C.ar    1  UNL1        0.0185
     23 H         -26.6095   -2.7787  -17.7800 H       1  UNL1        0.1675
     24 C         -20.1262   -9.5134  -10.7443 C.ar    1  UNL1        0.0462
     25 C         -20.9389  -10.0389  -11.7712 C.ar    1  UNL1        0.0664
     26 C         -20.8369  -11.3895  -12.1135 C.ar    1  UNL1        0.0070
     27 C         -19.9351  -12.2200  -11.4566 C.ar    1  UNL1        0.0182
     28 C         -19.1221  -11.7274  -10.4266 C.ar    1  UNL1        0.1029
     29 C         -19.2492  -10.3699  -10.0282 C.ar    1  UNL1        0.0085
     30 C         -18.4581   -9.8322   -8.8569 C.3     1  UNL1        0.0337
     31 S         -17.9713  -12.8321   -9.6437 S.O2    1  UNL1        0.0102
     32 C         -16.4833  -12.0027   -9.1189 C.3     1  UNL1        0.1816
     33 O         -17.5955  -13.9236  -10.6059 O.2     1  UNL1       -0.1686
     34 O         -18.6043  -13.4364   -8.4217 O.2     1  UNL1       -0.1686
     35 N         -20.2340   -8.1225  -10.3993 N.pl3   1  UNL1       -0.3327
     36 H         -19.4468   -7.4923  -10.6752 H       1  UNL1        0.1468
     37 C         -21.5736   -6.2735   -9.5102 C.3     1  UNL1        0.0229
     38 C         -21.0733   -7.6941   -9.2820 C.3     1  UNL1        0.0871
@<TRIPOS>BOND
     1    37    38    1
     2    38    35    1
     3    35    24    1
     4    24    25   ar
     5    25     1    1
     6     1     2    2
     7     1     3   am
     8     3     4    1
     9     4     5    1
    10     5     6    1
    11     6     7    1
    12     7     8   ar
    13     8     9   ar
    14     9    10   ar
    15    10    14    1
    16    14    15   ar
    17    15    16   ar
    18    16    17   ar
    19    17    18   ar
    20    18    19   ar
    21    19    20   ar
    22    20    21   ar
    23    21    22   ar
    24    10    11   ar
    25    11    12   ar
    26    12    13    1
    27    25    26   ar
    28    26    27   ar
    29    27    28   ar
    30    28    31    1
    31    31    32    1
    32    31    33    2
    33    31    34    2
    34    28    29   ar
    35    29    30    1
    36    29    24   ar
    37    13     3    1
    38    12     7   ar
    39    22    14   ar
    40    21    17   ar
    41    35    36    1
    42    20    23    1
@<TRIPOS>MOLECULE
*****
 38 42 0 0 0
SMALL
GASTEIGER

@<TRIPOS>ATOM
      1 C         -25.5924   -6.1016  -14.5708 C.2     1  UNL1        0.2506
      2 O         -24.7170   -6.5110  -15.3812 O.2     1  UNL1       -0.2699
      3 N         -25.4141   -6.3094  -13.1524 N.am    1  UNL1       -0.2680
      4 C         -26.5717   -6.5127  -12.2771 C.3     1  UNL1        0.1412
      5 C         -27.1692   -7.8998  -12.5170 C.3     1  UNL1        0.2268
      6 O         -26.2412   -8.7830  -13.1489 O.3     1  UNL1       -0.4739
      7 C         -24.9953   -9.1270  -12.6096 C.ar    1  UNL1        0.1362
      8 C         -24.7467  -10.4836  -12.3791 C.ar    1  UNL1        0.0366
      9 C         -23.5308  -10.9071  -11.8445 C.ar    1  UNL1        0.0031
     10 C         -22.5257   -9.9775  -11.5408 C.ar    1  UNL1       -0.0000
     11 C         -22.7608   -8.6150  -11.7916 C.ar    1  UNL1        0.0004
     12 C         -23.9809   -8.1709  -12.3312 C.ar    1  UNL1        0.0317
     13 C         -24.1019   -6.6854  -12.6188 C.3     1  UNL1        0.1236
     14 C         -21.2305  -10.4286  -10.9720 C.ar    1  UNL1        0.0015
     15 C         -20.4487   -9.5482  -10.1721 C.ar    1  UNL1        0.0016
     16 C         -19.2200   -9.9669   -9.6281 C.ar    1  UNL1        0.0206
     17 C         -18.7999  -11.2646   -9.8993 C.ar    1  UNL1        0.0985
     18 N         -17.6721  -11.8690   -9.4845 N.ar    1  UNL1       -0.2241
     19 C         -17.7747  -13.1085  -10.0331 C.ar    1  UNL1        0.1750
     20 N         -18.9050  -13.2869  -10.7583 N.ar    1  UNL1       -0.3349
     21 C         -19.5395  -12.1127  -10.6636 C.ar    1  UNL1        0.0757
     22 C         -20.7594  -11.7407  -11.2215 C.ar    1  UNL1        0.0185
     23 H         -19.2079  -14.1443  -11.2715 H       1  UNL1        0.1675
     24 C         -26.7349   -4.6487  -16.2827 C.ar    1  UNL1        0.0462
     25 C         -26.7912   -5.4191  -15.1017 C.ar    1  UNL1        0.0664
     26 C         -27.9897   -5.5098  -14.3896 C.ar    1  UNL1        0.0070
     27 C         -29.1268   -4.8405  -14.8295 C.ar    1  UNL1        0.0182
     28 C         -29.1024   -4.0757  -16.0038 C.ar    1  UNL1        0.1029
     29 C         -27.9080   -4.0147  -16.7702 C.ar    1  UNL1        0.0085
     30 C         -27.8754   -3.2795  -18.0913 C.3     1  UNL1        0.0337
     31 S         -30.5806   -3.2231  -16.4992 S.O2    1  UNL1        0.0102
     32 C         -31.8385   -3.2546  -15.2365 C.3     1  UNL1        0.1816
     33 O         -31.1337   -3.8651  -17.7402 O.2     1  UNL1       -0.1686
     34 O         -30.2611   -1.7815  -16.7799 O.2     1  UNL1       -0.1686
     35 N         -25.4981   -4.5572  -17.0088 N.pl3   1  UNL1       -0.3327
     36 H         -24.7937   -3.8582  -16.6801 H       1  UNL1        0.1468
     37 C         -24.5959   -6.2519  -18.5313 C.3     1  UNL1        0.0229
     38 C         -25.4210   -4.9775  -18.4065 C.3     1  UNL1        0.0871
@<TRIPOS>BOND
     1    37    38    1
     2    38    35    1
     3    35    24    1
     4    24    25   ar
     5    25     1    1
     6     1     2    2
     7     1     3   am
     8     3     4    1
     9     4     5    1
    10     5     6    1
    11     6     7    1
    12     7     8   ar
    13     8     9   ar
    14     9    10   ar
    15    10    14    1
    16    14    15   ar
    17    15    16   ar
    18    16    17   ar
    19    17    18   ar
    20    18    19   ar
    21    19    20   ar
    22    20    21   ar
    23    21    22   ar
    24    10    11   ar
    25    11    12   ar
    26    12    13    1
    27    25    26   ar
    28    26    27   ar
    29    27    28   ar
    30    28    31    1
    31    31    32    1
    32    31    33    2
    33    31    34    2
    34    28    29   ar
    35    29    30    1
    36    29    24   ar
    37    13     3    1
    38    12     7   ar
    39    22    14   ar
    40    21    17   ar
    41    35    36    1
    42    20    23    1
@<TRIPOS>MOLECULE
*****
 38 42 0 0 0
SMALL
GASTEIGER

@<TRIPOS>ATOM
      1 C         -22.2608   -7.9633   -9.3680 C.2     1  UNL1        0.2506
      2 O         -23.3297   -8.6273   -9.2829 O.2     1  UNL1       -0.2699
      3 N         -22.2080   -6.7875  -10.2055 N.am    1  UNL1       -0.2680
      4 C         -20.9640   -6.4076  -10.8804 C.3     1  UNL1        0.1412
      5 C         -20.6789   -7.3744  -12.0305 C.3     1  UNL1        0.2268
      6 O         -21.8504   -8.0806  -12.4422 O.3     1  UNL1       -0.4739
      7 C         -23.0162   -7.4599  -12.9081 C.ar    1  UNL1        0.1362
      8 C         -23.4564   -7.7987  -14.1913 C.ar    1  UNL1        0.0366
      9 C         -24.6083   -7.2245  -14.7270 C.ar    1  UNL1        0.0031
     10 C         -25.3573   -6.3041  -13.9796 C.ar    1  UNL1       -0.0000
     11 C         -24.9329   -5.9769  -12.6807 C.ar    1  UNL1        0.0004
     12 C         -23.7741   -6.5473  -12.1248 C.ar    1  UNL1        0.0317
     13 C         -23.4448   -6.1694  -10.6920 C.3     1  UNL1        0.1236
     14 C         -26.5844   -5.6930  -14.5500 C.ar    1  UNL1        0.0015
     15 C         -26.4953   -4.5516  -15.3957 C.ar    1  UNL1        0.0016
     16 C         -27.6529   -3.9658  -15.9415 C.ar    1  UNL1        0.0206
     17 C         -28.8798   -4.5393  -15.6257 C.ar    1  UNL1        0.0985
     18 N         -30.1008   -4.1492  -16.0336 N.ar    1  UNL1       -0.2241
     19 C         -30.9217   -5.0523  -15.4351 C.ar    1  UNL1        0.1750
     20 N         -30.2626   -5.9690  -14.6863 N.ar    1  UNL1       -0.3349
     21 C         -28.9750   -5.6292  -14.8175 C.ar    1  UNL1        0.0757
     22 C         -27.8573   -6.2402  -14.2561 C.ar    1  UNL1        0.0185
     23 H         -30.6689   -6.7572  -14.1351 H       1  UNL1        0.1675
     24 C         -20.1888   -9.3766   -9.1309 C.ar    1  UNL1        0.0462
     25 C         -21.0784   -8.4157   -8.6050 C.ar    1  UNL1        0.0664
     26 C         -20.8696   -7.9072   -7.3206 C.ar    1  UNL1        0.0070
     27 C         -19.7970   -8.3457   -6.5514 C.ar    1  UNL1        0.0182
     28 C         -18.8924   -9.2923   -7.0517 C.ar    1  UNL1        0.1029
     29 C         -19.0572   -9.7814   -8.3750 C.ar    1  UNL1        0.0085
     30 C         -18.0449  -10.7283   -8.9794 C.3     1  UNL1        0.0337
     31 S         -17.5574   -9.8320   -6.0105 S.O2    1  UNL1        0.0102
     32 C         -18.1320  -10.5035   -4.4624 C.3     1  UNL1        0.1816
     33 O         -16.6514   -8.6690   -5.7194 O.2     1  UNL1       -0.1686
     34 O         -16.7791  -10.9121   -6.7080 O.2     1  UNL1       -0.1686
     35 N         -20.4111   -9.8979  -10.4515 N.pl3   1  UNL1       -0.3327
     36 H         -20.2843   -9.2450  -11.2581 H       1  UNL1        0.1468
     37 C         -21.2107  -11.5126  -12.1120 C.3     1  UNL1        0.0229
     38 C         -21.2760  -11.0576  -10.6597 C.3     1  UNL1        0.0871
@<TRIPOS>BOND
     1    37    38    1
     2    38    35    1
     3    35    24    1
     4    24    25   ar
     5    25     1    1
     6     1     2    2
     7     1     3   am
     8     3     4    1
     9     4     5    1
    10     5     6    1
    11     6     7    1
    12     7     8   ar
    13     8     9   ar
    14     9    10   ar
    15    10    14    1
    16    14    15   ar
    17    15    16   ar
    18    16    17   ar
    19    17    18   ar
    20    18    19   ar
    21    19    20   ar
    22    20    21   ar
    23    21    22   ar
    24    10    11   ar
    25    11    12   ar
    26    12    13    1
    27    25    26   ar
    28    26    27   ar
    29    27    28   ar
    30    28    31    1
    31    31    32    1
    32    31    33    2
    33    31    34    2
    34    28    29   ar
    35    29    30    1
    36    29    24   ar
    37    13     3    1
    38    12     7   ar
    39    22    14   ar
    40    21    17   ar
    41    35    36    1
    42    20    23    1
@<TRIPOS>MOLECULE
*****
 38 42 0 0 0
SMALL
GASTEIGER

@<TRIPOS>ATOM
      1 C         -19.2313   -9.4926   -8.9949 C.2     1  UNL1        0.2506
      2 O         -18.3231   -9.6143   -9.8617 O.2     1  UNL1       -0.2699
      3 N         -20.6166   -9.6375   -9.3780 N.am    1  UNL1       -0.2680
      4 C         -21.6640   -8.8773   -8.6906 C.3     1  UNL1        0.1412
      5 C         -21.5911   -7.4048   -9.0971 C.3     1  UNL1        0.2268
      6 O         -20.8771   -7.2194  -10.3204 O.3     1  UNL1       -0.4739
      7 C         -21.2432   -7.8069  -11.5380 C.ar    1  UNL1        0.1362
      8 C         -21.5074   -6.9507  -12.6114 C.ar    1  UNL1        0.0366
      9 C         -21.8776   -7.4576  -13.8562 C.ar    1  UNL1        0.0031
     10 C         -21.9776   -8.8417  -14.0588 C.ar    1  UNL1       -0.0000
     11 C         -21.6910   -9.7081  -12.9903 C.ar    1  UNL1        0.0004
     12 C         -21.3154   -9.2137  -11.7287 C.ar    1  UNL1        0.0317
     13 C         -20.9689  -10.2410  -10.6663 C.3     1  UNL1        0.1236
     14 C         -22.3713   -9.3816  -15.3847 C.ar    1  UNL1        0.0015
     15 C         -23.0106   -8.5454  -16.3427 C.ar    1  UNL1        0.0016
     16 C         -23.3869   -9.0481  -17.6024 C.ar    1  UNL1        0.0206
     17 C         -23.1132  -10.3840  -17.8751 C.ar    1  UNL1        0.0985
     18 N         -23.3806  -11.0661  -19.0031 N.ar    1  UNL1       -0.2241
     19 C         -22.9042  -12.3084  -18.7247 C.ar    1  UNL1        0.1750
     20 N         -22.3624  -12.4150  -17.4876 N.ar    1  UNL1       -0.3349
     21 C         -22.5037  -11.1912  -16.9654 C.ar    1  UNL1        0.0757
     22 C         -22.1151  -10.7365  -15.7084 C.ar    1  UNL1        0.0185
     23 H         -21.9342  -13.2590  -17.0466 H       1  UNL1        0.1675
     24 C         -18.1692  -10.1457   -6.8058 C.ar    1  UNL1        0.0462
     25 C         -18.8481   -9.1960   -7.5985 C.ar    1  UNL1        0.0664
     26 C         -19.2076   -7.9633   -7.0480 C.ar    1  UNL1        0.0070
     27 C         -18.9097   -7.6663   -5.7223 C.ar    1  UNL1        0.0182
     28 C         -18.2281   -8.5869   -4.9144 C.ar    1  UNL1        0.1029
     29 C         -17.8073   -9.8240   -5.4712 C.ar    1  UNL1        0.0085
     30 C         -16.9856  -10.7973   -4.6562 C.3     1  UNL1        0.0337
     31 S         -17.9000   -8.1591   -3.2212 S.O2    1  UNL1        0.0102
     32 C         -18.6227   -6.5951   -2.7634 C.3     1  UNL1        0.1816
     33 O         -16.4148   -8.0799   -3.0063 O.2     1  UNL1       -0.1686
     34 O         -18.4831   -9.2065   -2.3145 O.2     1  UNL1       -0.1686
     35 N         -17.8051  -11.4129   -7.3774 N.pl3   1  UNL1       -0.3327
     36 H         -18.4263  -12.2302   -7.1800 H       1  UNL1        0.1468
     37 C         -16.3427  -12.3092   -9.1274 C.3     1  UNL1        0.0229
     38 C         -16.4167  -11.6991   -7.7335 C.3     1  UNL1        0.0871
@<TRIPOS>BOND
     1    37    38    1
     2    38    35    1
     3    35    24    1
     4    24    25   ar
     5    25     1    1
     6     1     2    2
     7     1     3   am
     8     3     4    1
     9     4     5    1
    10     5     6    1
    11     6     7    1
    12     7     8   ar
    13     8     9   ar
    14     9    10   ar
    15    10    14    1
    16    14    15   ar
    17    15    16   ar
    18    16    17   ar
    19    17    18   ar
    20    18    19   ar
    21    19    20   ar
    22    20    21   ar
    23    21    22   ar
    24    10    11   ar
    25    11    12   ar
    26    12    13    1
    27    25    26   ar
    28    26    27   ar
    29    27    28   ar
    30    28    31    1
    31    31    32    1
    32    31    33    2
    33    31    34    2
    34    28    29   ar
    35    29    30    1
    36    29    24   ar
    37    13     3    1
    38    12     7   ar
    39    22    14   ar
    40    21    17   ar
    41    35    36    1
    42    20    23    1
@<TRIPOS>MOLECULE
*****
 38 42 0 0 0
SMALL
GASTEIGER

@<TRIPOS>ATOM
      1 C         -19.8889   -8.8190  -11.0867 C.2     1  UNL1        0.2506
      2 O         -19.4018   -7.8153  -11.6750 O.2     1  UNL1       -0.2699
      3 N         -20.9102   -9.6085  -11.7352 N.am    1  UNL1       -0.2680
      4 C         -21.9503  -10.2752  -10.9470 C.3     1  UNL1        0.1412
      5 C         -22.9382   -9.2404  -10.4065 C.3     1  UNL1        0.2268
      6 O         -22.8860   -8.0142  -11.1374 O.3     1  UNL1       -0.4739
      7 C         -23.1289   -7.9110  -12.5129 C.ar    1  UNL1        0.1362
      8 C         -24.1638   -7.0640  -12.9213 C.ar    1  UNL1        0.0366
      9 C         -24.4681   -6.9069  -14.2728 C.ar    1  UNL1        0.0031
     10 C         -23.7289   -7.5871  -15.2514 C.ar    1  UNL1       -0.0000
     11 C         -22.6728   -8.4219  -14.8485 C.ar    1  UNL1        0.0004
     12 C         -22.3520   -8.5909  -13.4900 C.ar    1  UNL1        0.0317
     13 C         -21.1532   -9.4666  -13.1736 C.3     1  UNL1        0.1236
     14 C         -24.0526   -7.4193  -16.6908 C.ar    1  UNL1        0.0015
     15 C         -24.5080   -6.1650  -17.1859 C.ar    1  UNL1        0.0016
     16 C         -24.8166   -5.9962  -18.5488 C.ar    1  UNL1        0.0206
     17 C         -24.6616   -7.0935  -19.3889 C.ar    1  UNL1        0.0985
     18 N         -24.8937   -7.1570  -20.7123 N.ar    1  UNL1       -0.2241
     19 C         -24.5794   -8.4450  -21.0124 C.ar    1  UNL1        0.1750
     20 N         -24.1693   -9.1652  -19.9407 N.ar    1  UNL1       -0.3349
     21 C         -24.2283   -8.2965  -18.9247 C.ar    1  UNL1        0.0757
     22 C         -23.9122   -8.5082  -17.5856 C.ar    1  UNL1        0.0185
     23 H         -23.8757  -10.1669  -19.9167 H       1  UNL1        0.1675
     24 C         -19.8727   -8.4799   -8.5904 C.ar    1  UNL1        0.0462
     25 C         -19.4000   -9.1585   -9.7337 C.ar    1  UNL1        0.0664
     26 C         -18.4186  -10.1437   -9.5989 C.ar    1  UNL1        0.0070
     27 C         -17.8966  -10.4563   -8.3482 C.ar    1  UNL1        0.0182
     28 C         -18.3539   -9.8049   -7.1945 C.ar    1  UNL1        0.1029
     29 C         -19.3889   -8.8384   -7.3047 C.ar    1  UNL1        0.0085
     30 C         -19.9726   -8.1886   -6.0701 C.3     1  UNL1        0.0337
     31 S         -17.6289  -10.2302   -5.6289 S.O2    1  UNL1        0.0102
     32 C         -16.9548   -8.8121   -4.7848 C.3     1  UNL1        0.1816
     33 O         -16.5247  -11.2262   -5.8454 O.2     1  UNL1       -0.1686
     34 O         -18.6772  -10.8297   -4.7341 O.2     1  UNL1       -0.1686
     35 N         -20.8801   -7.4655   -8.7365 N.pl3   1  UNL1       -0.3327
     36 H         -21.8245   -7.7647   -9.0705 H       1  UNL1        0.1468
     37 C         -21.5673   -5.3590   -9.7827 C.3     1  UNL1        0.0229
     38 C         -20.5065   -6.0689   -8.9513 C.3     1  UNL1        0.0871
@<TRIPOS>BOND
     1    37    38    1
     2    38    35    1
     3    35    24    1
     4    24    25   ar
     5    25     1    1
     6     1     2    2
     7     1     3   am
     8     3     4    1
     9     4     5    1
    10     5     6    1
    11     6     7    1
    12     7     8   ar
    13     8     9   ar
    14     9    10   ar
    15    10    14    1
    16    14    15   ar
    17    15    16   ar
    18    16    17   ar
    19    17    18   ar
    20    18    19   ar
    21    19    20   ar
    22    20    21   ar
    23    21    22   ar
    24    10    11   ar
    25    11    12   ar
    26    12    13    1
    27    25    26   ar
    28    26    27   ar
    29    27    28   ar
    30    28    31    1
    31    31    32    1
    32    31    33    2
    33    31    34    2
    34    28    29   ar
    35    29    30    1
    36    29    24   ar
    37    13     3    1
    38    12     7   ar
    39    22    14   ar
    40    21    17   ar
    41    35    36    1
    42    20    23    1
@<TRIPOS>MOLECULE
*****
 38 42 0 0 0
SMALL
GASTEIGER

@<TRIPOS>ATOM
      1 C         -25.2781   -5.6446  -12.9501 C.2     1  UNL1        0.2506
      2 O         -24.7066   -4.8082  -12.1987 O.2     1  UNL1       -0.2699
      3 N         -24.9656   -7.0500  -12.8323 N.am    1  UNL1       -0.2680
      4 C         -25.0094   -7.9249  -14.0071 C.3     1  UNL1        0.1412
      5 C         -23.8231   -7.6252  -14.9245 C.3     1  UNL1        0.2268
      6 O         -22.7713   -6.9444  -14.2383 O.3     1  UNL1       -0.4739
      7 C         -22.1084   -7.4561  -13.1157 C.ar    1  UNL1        0.1362
      8 C         -20.7228   -7.6204  -13.2066 C.ar    1  UNL1        0.0366
      9 C         -19.9903   -8.1239  -12.1325 C.ar    1  UNL1        0.0031
     10 C         -20.6310   -8.4622  -10.9318 C.ar    1  UNL1       -0.0000
     11 C         -22.0200   -8.2778  -10.8263 C.ar    1  UNL1        0.0004
     12 C         -22.7736   -7.7703  -11.8995 C.ar    1  UNL1        0.0317
     13 C         -24.2557   -7.5540  -11.6532 C.3     1  UNL1        0.1236
     14 C         -19.8509   -8.9980   -9.7876 C.ar    1  UNL1        0.0015
     15 C         -19.9539   -8.3982   -8.5010 C.ar    1  UNL1        0.0016
     16 C         -19.2189   -8.8994   -7.4102 C.ar    1  UNL1        0.0206
     17 C         -18.3928   -9.9954   -7.6345 C.ar    1  UNL1        0.0985
     18 N         -17.6100  -10.6326   -6.7453 N.ar    1  UNL1       -0.2241
     19 C         -17.0378  -11.6120   -7.4943 C.ar    1  UNL1        0.1750
     20 N         -17.4324  -11.6018   -8.7903 N.ar    1  UNL1       -0.3349
     21 C         -18.2868  -10.5745   -8.8608 C.ar    1  UNL1        0.0757
     22 C         -18.9945  -10.1118   -9.9667 C.ar    1  UNL1        0.0185
     23 H         -17.1361  -12.2481   -9.5550 H       1  UNL1        0.1675
     24 C         -27.6298   -5.4648  -13.8355 C.ar    1  UNL1        0.0462
     25 C         -26.2570   -5.1567  -13.9443 C.ar    1  UNL1        0.0664
     26 C         -25.7978   -4.4118  -15.0334 C.ar    1  UNL1        0.0070
     27 C         -26.6806   -3.9778  -16.0167 C.ar    1  UNL1        0.0182
     28 C         -28.0504   -4.2613  -15.9297 C.ar    1  UNL1        0.1029
     29 C         -28.5443   -4.9714  -14.8029 C.ar    1  UNL1        0.0085
     30 C         -30.0277   -5.2085  -14.6297 C.3     1  UNL1        0.0337
     31 S         -29.1232   -3.7018  -17.2311 S.O2    1  UNL1        0.0102
     32 C         -28.2195   -3.0757  -18.6344 C.3     1  UNL1        0.1816
     33 O         -30.0115   -2.6080  -16.7087 O.2     1  UNL1       -0.1686
     34 O         -29.9685   -4.8466  -17.7149 O.2     1  UNL1       -0.1686
     35 N         -28.0950   -6.2340  -12.7143 N.pl3   1  UNL1       -0.3327
     36 H         -27.9513   -5.8343  -11.7591 H       1  UNL1        0.1468
     37 C         -27.9718   -8.3412  -11.4698 C.3     1  UNL1        0.0229
     38 C         -28.2469   -7.6842  -12.8163 C.3     1  UNL1        0.0871
@<TRIPOS>BOND
     1    37    38    1
     2    38    35    1
     3    35    24    1
     4    24    25   ar
     5    25     1    1
     6     1     2    2
     7     1     3   am
     8     3     4    1
     9     4     5    1
    10     5     6    1
    11     6     7    1
    12     7     8   ar
    13     8     9   ar
    14     9    10   ar
    15    10    14    1
    16    14    15   ar
    17    15    16   ar
    18    16    17   ar
    19    17    18   ar
    20    18    19   ar
    21    19    20   ar
    22    20    21   ar
    23    21    22   ar
    24    10    11   ar
    25    11    12   ar
    26    12    13    1
    27    25    26   ar
    28    26    27   ar
    29    27    28   ar
    30    28    31    1
    31    31    32    1
    32    31    33    2
    33    31    34    2
    34    28    29   ar
    35    29    30    1
    36    29    24   ar
    37    13     3    1
    38    12     7   ar
    39    22    14   ar
    40    21    17   ar
    41    35    36    1
    42    20    23    1
