@<TRIPOS>MOLECULE
*****
 47 52 0 0 0
SMALL
GASTEIGER

@<TRIPOS>ATOM
      1 C          62.4744   83.7873   14.1705 C.ar    1  UNL1        0.0481
      2 C          62.8612   82.4707   14.4854 C.ar    1  UNL1        0.0176
      3 C          63.2901   81.6005   13.4828 C.ar    1  UNL1        0.0382
      4 C          63.3416   82.0319   12.1488 C.ar    1  UNL1        0.1388
      5 C          63.0977   83.3760   11.8533 C.ar    1  UNL1        0.0382
      6 C          62.6540   84.2461   12.8531 C.ar    1  UNL1        0.0176
      7 N          61.7259   87.2613   15.1640 N.pl3   1  UNL1       -0.3041
      8 C          60.5894   86.6492   14.4551 C.3     1  UNL1        0.1122
      9 C          60.4455   85.1664   14.8413 C.3     1  UNL1        0.1122
     10 N          61.7739   84.6073   15.1339 N.pl3   1  UNL1       -0.3041
     11 C          62.5377   85.2163   16.2416 C.3     1  UNL1        0.1122
     12 C          62.1331   86.6858   16.4499 C.3     1  UNL1        0.1122
     13 C          64.5494   89.6297   13.0390 C.ar    1  UNL1        0.0699
     14 C          64.4640   89.7049   14.4420 C.ar    1  UNL1        0.0190
     15 C          63.5320   88.9284   15.1391 C.ar    1  UNL1        0.0160
     16 C          62.6598   88.0822   14.4453 C.ar    1  UNL1        0.0480
     17 C          62.7370   88.0092   13.0480 C.ar    1  UNL1        0.0160
     18 C          63.6691   88.7778   12.3503 C.ar    1  UNL1        0.0190
     19 N          66.5555   91.6547   10.7938 N.ar    1  UNL1       -0.2024
     20 N          67.3810   91.5560   11.8258 N.ar    1  UNL1       -0.1442
     21 C          66.7494   90.7959   12.7459 C.ar    1  UNL1        0.2073
     22 N          65.5335   90.3914   12.3112 N.ar    1  UNL1       -0.2398
     23 C          65.4500   90.9471   11.0856 C.ar    1  UNL1        0.3522
     24 O          64.4500   90.8558   10.3237 O.2     1  UNL1       -0.2444
     25 C          66.8415   92.3764    9.5479 C.3     1  UNL1        0.1099
     26 C          66.4145   93.8477    9.6480 C.3     1  UNL1        0.0265
     27 C          68.6980   90.7945    8.7060 C.3     1  UNL1        0.0021
     28 C          68.3210   92.2126    9.1404 C.3     1  UNL1        0.0245
     29 O          63.5620   81.1366   11.0936 O.3     1  UNL1       -0.4727
     30 C          62.5136   80.4212   10.4320 C.3     1  UNL1        0.2374
     31 C          61.1375   80.9135   10.9149 C.3     1  UNL1        0.1909
     32 C          60.0580   79.8774   10.8337 C.3     1  UNL1        0.1783
     33 O          58.8836   80.5858   10.5825 O.3     1  UNL1       -0.3271
     34 C          59.2831   81.8655   10.1222 C.3     1  UNL1        0.2232
     35 O          60.6929   81.9604   10.1173 O.3     1  UNL1       -0.3258
     36 C          58.6903   82.9568   11.0226 C.ar    1  UNL1        0.0404
     37 C          57.9450   82.5903   12.1674 C.ar    1  UNL1        0.0021
     38 C          57.4390   83.5575   13.0369 C.ar    1  UNL1        0.0113
     39 C          57.6831   84.9084   12.8004 C.ar    1  UNL1        0.0585
     40 CL         57.0483   86.1188   13.8994 Cl      1  UNL1       -0.0822
     41 C          58.4326   85.2954   11.6892 C.ar    1  UNL1        0.0226
     42 C          58.9327   84.3392   10.7965 C.ar    1  UNL1        0.0591
     43 CL         59.8672   84.9391    9.4278 Cl      1  UNL1       -0.0824
     44 C          58.7824   82.0646    8.6781 C.3     1  UNL1        0.1338
     45 N          59.7672   81.5152    7.7147 N.3     1  UNL1       -0.2659
     46 C          59.1870   80.4167    6.9264 C.3     1  UNL1        0.0898
     47 C          60.2772   82.5605    6.8114 C.3     1  UNL1        0.0898
@<TRIPOS>BOND
     1    27    28    1
     2    28    25    1
     3    25    26    1
     4    25    19    1
     5    19    20   ar
     6    20    21   ar
     7    21    22   ar
     8    22    13    1
     9    13    14   ar
    10    14    15   ar
    11    15    16   ar
    12    16     7    1
    13     7     8    1
    14     8     9    1
    15     9    10    1
    16    10     1    1
    17     1     2   ar
    18     2     3   ar
    19     3     4   ar
    20     4    29    1
    21    29    30    1
    22    30    31    1
    23    31    32    1
    24    32    33    1
    25    33    34    1
    26    34    44    1
    27    44    45    1
    28    45    46    1
    29    45    47    1
    30    34    36    1
    31    36    37   ar
    32    37    38   ar
    33    38    39   ar
    34    39    40    1
    35    39    41   ar
    36    41    42   ar
    37    42    43    1
    38    34    35    1
    39     4     5   ar
    40     5     6   ar
    41    10    11    1
    42    11    12    1
    43    16    17   ar
    44    17    18   ar
    45    22    23   ar
    46    23    24    2
    47    23    19   ar
    48    18    13   ar
    49    12     7    1
    50     6     1   ar
    51    35    31    1
    52    42    36   ar
@<TRIPOS>MOLECULE
*****
 47 52 0 0 0
SMALL
GASTEIGER

@<TRIPOS>ATOM
      1 C          60.9322   81.9190    9.3762 C.ar    1  UNL1        0.0481
      2 C          62.3007   82.2482    9.3402 C.ar    1  UNL1        0.0176
      3 C          63.1615   81.8050   10.3447 C.ar    1  UNL1        0.0382
      4 C          62.6696   81.0237   11.4011 C.ar    1  UNL1        0.1388
      5 C          61.3463   80.5756   11.3638 C.ar    1  UNL1        0.0382
      6 C          60.4784   81.0296   10.3667 C.ar    1  UNL1        0.0176
      7 N          59.9945   85.1708    7.9057 N.pl3   1  UNL1       -0.3041
      8 C          60.6976   84.3227    6.9283 C.3     1  UNL1        0.1122
      9 C          60.2891   82.8486    7.0978 C.3     1  UNL1        0.1122
     10 N          59.9837   82.5865    8.5124 N.pl3   1  UNL1       -0.3041
     11 C          58.8831   83.3588    9.1236 C.3     1  UNL1        0.1122
     12 C          58.6987   84.7126    8.4169 C.3     1  UNL1        0.1122
     13 C          62.1303   88.0606   10.1829 C.ar    1  UNL1        0.0699
     14 C          60.7818   88.2739    9.8399 C.ar    1  UNL1        0.0190
     15 C          60.0820   87.3244    9.0874 C.ar    1  UNL1        0.0160
     16 C          60.7228   86.1598    8.6501 C.ar    1  UNL1        0.0480
     17 C          62.0671   85.9465    8.9837 C.ar    1  UNL1        0.0160
     18 C          62.7661   86.8886    9.7389 C.ar    1  UNL1        0.0190
     19 N          64.3207   90.5137   11.7158 N.ar    1  UNL1       -0.2024
     20 N          63.3487   90.4686   12.6154 N.ar    1  UNL1       -0.1442
     21 C          62.4564   89.5606   12.1651 C.ar    1  UNL1        0.2073
     22 N          62.8512   89.0096   10.9940 N.ar    1  UNL1       -0.2398
     23 C          64.0225   89.6300   10.7473 C.ar    1  UNL1        0.3522
     24 O          64.7307   89.4429    9.7214 O.2     1  UNL1       -0.2444
     25 C          65.5204   91.3545   11.8083 C.3     1  UNL1        0.1099
     26 C          66.4136   90.9205   12.9791 C.3     1  UNL1        0.0265
     27 C          66.5481   92.7991    9.9334 C.3     1  UNL1        0.0021
     28 C          66.2772   91.3893   10.4637 C.3     1  UNL1        0.0245
     29 O          63.4489   80.7377   12.5301 O.3     1  UNL1       -0.4727
     30 C          64.4229   81.6387   13.0670 C.3     1  UNL1        0.2374
     31 C          63.7365   82.7569   13.8719 C.3     1  UNL1        0.1909
     32 C          62.4589   82.3351   14.5315 C.3     1  UNL1        0.1783
     33 O          61.6595   83.4774   14.5534 O.3     1  UNL1       -0.3271
     34 C          62.2232   84.3741   13.6117 C.3     1  UNL1        0.2232
     35 O          63.3801   83.8054   13.0331 O.3     1  UNL1       -0.3258
     36 C          62.5806   85.6996   14.2963 C.ar    1  UNL1        0.0404
     37 C          63.5758   86.5316   13.7326 C.ar    1  UNL1        0.0021
     38 C          63.8858   87.7685   14.2997 C.ar    1  UNL1        0.0113
     39 C          63.1972   88.2154   15.4250 C.ar    1  UNL1        0.0585
     40 CL         63.5884   89.7728   16.1302 Cl      1  UNL1       -0.0822
     41 C          62.1970   87.4227   15.9884 C.ar    1  UNL1        0.0226
     42 C          61.8853   86.1710   15.4431 C.ar    1  UNL1        0.0591
     43 CL         60.6042   85.2543   16.2337 Cl      1  UNL1       -0.0824
     44 C          61.2024   84.6372   12.4871 C.3     1  UNL1        0.1338
     45 N          59.8477   84.8277   13.0600 N.3     1  UNL1       -0.2659
     46 C          59.2393   86.0807   12.5861 C.3     1  UNL1        0.0898
     47 C          58.9640   83.6936   12.7408 C.3     1  UNL1        0.0898
@<TRIPOS>BOND
     1    27    28    1
     2    28    25    1
     3    25    26    1
     4    25    19    1
     5    19    20   ar
     6    20    21   ar
     7    21    22   ar
     8    22    13    1
     9    13    14   ar
    10    14    15   ar
    11    15    16   ar
    12    16     7    1
    13     7     8    1
    14     8     9    1
    15     9    10    1
    16    10     1    1
    17     1     2   ar
    18     2     3   ar
    19     3     4   ar
    20     4    29    1
    21    29    30    1
    22    30    31    1
    23    31    32    1
    24    32    33    1
    25    33    34    1
    26    34    44    1
    27    44    45    1
    28    45    46    1
    29    45    47    1
    30    34    36    1
    31    36    37   ar
    32    37    38   ar
    33    38    39   ar
    34    39    40    1
    35    39    41   ar
    36    41    42   ar
    37    42    43    1
    38    34    35    1
    39     4     5   ar
    40     5     6   ar
    41    10    11    1
    42    11    12    1
    43    16    17   ar
    44    17    18   ar
    45    22    23   ar
    46    23    24    2
    47    23    19   ar
    48    18    13   ar
    49    12     7    1
    50     6     1   ar
    51    35    31    1
    52    42    36   ar
@<TRIPOS>MOLECULE
*****
 47 52 0 0 0
SMALL
GASTEIGER

@<TRIPOS>ATOM
      1 C          59.9882   84.8034   12.2638 C.ar    1  UNL1        0.0481
      2 C          61.1360   84.7797   11.4489 C.ar    1  UNL1        0.0176
      3 C          61.0506   84.3683   10.1185 C.ar    1  UNL1        0.0382
      4 C          59.8163   83.9756    9.5795 C.ar    1  UNL1        0.1388
      5 C          58.6545   84.1349   10.3399 C.ar    1  UNL1        0.0382
      6 C          58.7389   84.5329   11.6771 C.ar    1  UNL1        0.0176
      7 N          61.4333   86.8769   14.9524 N.pl3   1  UNL1       -0.3041
      8 C          60.0032   87.1701   14.7585 C.3     1  UNL1        0.1122
      9 C          59.2251   85.8817   14.4372 C.3     1  UNL1        0.1122
     10 N          60.0971   84.9567   13.6977 N.pl3   1  UNL1       -0.3041
     11 C          61.3285   84.4989   14.3725 C.3     1  UNL1        0.1122
     12 C          61.8115   85.5336   15.4032 C.3     1  UNL1        0.1122
     13 C          64.3172   89.3816   13.0797 C.ar    1  UNL1        0.0699
     14 C          63.4255   88.6145   12.3064 C.ar    1  UNL1        0.0190
     15 C          62.4804   87.7881   12.9238 C.ar    1  UNL1        0.0160
     16 C          62.4252   87.7003   14.3193 C.ar    1  UNL1        0.0480
     17 C          63.3154   88.4572   15.0929 C.ar    1  UNL1        0.0160
     18 C          64.2552   89.2867   14.4804 C.ar    1  UNL1        0.0190
     19 N          66.2893   91.6415   11.0377 N.ar    1  UNL1       -0.2024
     20 N          66.9676   91.6961   12.1749 N.ar    1  UNL1       -0.1442
     21 C          66.3354   90.8685   13.0343 C.ar    1  UNL1        0.2073
     22 N          65.2672   90.2700   12.4581 N.ar    1  UNL1       -0.2398
     23 C          65.2733   90.7776   11.2090 C.ar    1  UNL1        0.3522
     24 O          64.4150   90.5145   10.3241 O.2     1  UNL1       -0.2444
     25 C          66.6347   92.3699    9.8110 C.3     1  UNL1        0.1099
     26 C          66.2303   93.8477    9.9102 C.3     1  UNL1        0.0265
     27 C          68.4698   90.7990    8.9040 C.3     1  UNL1        0.0021
     28 C          68.1254   92.1835    9.4576 C.3     1  UNL1        0.0245
     29 O          59.7236   83.3611    8.3235 O.3     1  UNL1       -0.4727
     30 C          59.8006   81.9452    8.1288 C.3     1  UNL1        0.2374
     31 C          60.6353   81.2925    9.2452 C.3     1  UNL1        0.1909
     32 C          60.7154   79.7992    9.1508 C.3     1  UNL1        0.1783
     33 O          60.8119   79.3502   10.4674 O.3     1  UNL1       -0.3271
     34 C          60.3893   80.4273   11.2859 C.3     1  UNL1        0.2232
     35 O          60.0629   81.5451   10.4855 O.3     1  UNL1       -0.3258
     36 C          61.4991   80.8019   12.2765 C.ar    1  UNL1        0.0404
     37 C          61.2682   80.6746   13.6660 C.ar    1  UNL1        0.0021
     38 C          62.2745   80.9545   14.5916 C.ar    1  UNL1        0.0113
     39 C          63.5387   81.3439   14.1553 C.ar    1  UNL1        0.0585
     40 CL         64.8004   81.6898   15.3232 Cl      1  UNL1       -0.0822
     41 C          63.7984   81.4575   12.7893 C.ar    1  UNL1        0.0226
     42 C          62.7952   81.1979   11.8473 C.ar    1  UNL1        0.0591
     43 CL         63.2331   81.3710   10.1488 Cl      1  UNL1       -0.0824
     44 C          59.1271   80.0082   12.0648 C.3     1  UNL1        0.1338
     45 N          59.0770   78.5323   12.2022 N.3     1  UNL1       -0.2659
     46 C          58.7839   78.1349   13.5881 C.3     1  UNL1        0.0898
     47 C          58.0804   77.9407   11.2935 C.3     1  UNL1        0.0898
@<TRIPOS>BOND
     1    27    28    1
     2    28    25    1
     3    25    26    1
     4    25    19    1
     5    19    20   ar
     6    20    21   ar
     7    21    22   ar
     8    22    13    1
     9    13    14   ar
    10    14    15   ar
    11    15    16   ar
    12    16     7    1
    13     7     8    1
    14     8     9    1
    15     9    10    1
    16    10     1    1
    17     1     2   ar
    18     2     3   ar
    19     3     4   ar
    20     4    29    1
    21    29    30    1
    22    30    31    1
    23    31    32    1
    24    32    33    1
    25    33    34    1
    26    34    44    1
    27    44    45    1
    28    45    46    1
    29    45    47    1
    30    34    36    1
    31    36    37   ar
    32    37    38   ar
    33    38    39   ar
    34    39    40    1
    35    39    41   ar
    36    41    42   ar
    37    42    43    1
    38    34    35    1
    39     4     5   ar
    40     5     6   ar
    41    10    11    1
    42    11    12    1
    43    16    17   ar
    44    17    18   ar
    45    22    23   ar
    46    23    24    2
    47    23    19   ar
    48    18    13   ar
    49    12     7    1
    50     6     1   ar
    51    35    31    1
    52    42    36   ar
@<TRIPOS>MOLECULE
*****
 47 52 0 0 0
SMALL
GASTEIGER

@<TRIPOS>ATOM
      1 C          59.2354   79.6128    9.8616 C.ar    1  UNL1        0.0481
      2 C          58.1879   80.5533    9.8791 C.ar    1  UNL1        0.0176
      3 C          58.1527   81.5903    8.9465 C.ar    1  UNL1        0.0382
      4 C          59.1627   81.7037    7.9793 C.ar    1  UNL1        0.1388
      5 C          60.1217   80.6931    7.8681 C.ar    1  UNL1        0.0382
      6 C          60.1678   79.6612    8.8097 C.ar    1  UNL1        0.0176
      7 N          60.3213   79.3888   13.3811 N.pl3   1  UNL1       -0.3041
      8 C          58.8535   79.3466   13.2687 C.3     1  UNL1        0.1122
      9 C          58.4285   78.5461   12.0249 C.3     1  UNL1        0.1122
     10 N          59.4413   78.7081   10.9709 N.pl3   1  UNL1       -0.3041
     11 C          60.8121   78.2466   11.2700 C.3     1  UNL1        0.1122
     12 C          61.0950   78.2969   12.7812 C.3     1  UNL1        0.1122
     13 C          62.3269   83.0603   14.1525 C.ar    1  UNL1        0.0699
     14 C          62.7928   81.8579   14.7171 C.ar    1  UNL1        0.0190
     15 C          62.1296   80.6519   14.4658 C.ar    1  UNL1        0.0160
     16 C          60.9822   80.6319   13.6650 C.ar    1  UNL1        0.0480
     17 C          60.5111   81.8275   13.1063 C.ar    1  UNL1        0.0160
     18 C          61.1734   83.0310   13.3502 C.ar    1  UNL1        0.0190
     19 N          63.5023   86.4430   14.7367 N.ar    1  UNL1       -0.2024
     20 N          64.6391   85.7727   14.8575 N.ar    1  UNL1       -0.1442
     21 C          64.3389   84.4740   14.6416 C.ar    1  UNL1        0.2073
     22 N          63.0248   84.3032   14.3676 N.ar    1  UNL1       -0.2398
     23 C          62.5362   85.5581   14.4344 C.ar    1  UNL1        0.3522
     24 O          61.3235   85.8645   14.2778 O.2     1  UNL1       -0.2444
     25 C          63.3602   87.8981   14.8691 C.3     1  UNL1        0.1099
     26 C          62.9518   88.2884   16.2967 C.3     1  UNL1        0.0265
     27 C          64.6677   90.1181   14.7274 C.3     1  UNL1        0.0021
     28 C          64.6371   88.6243   14.3960 C.3     1  UNL1        0.0245
     29 O          59.2790   82.8390    7.1661 O.3     1  UNL1       -0.4727
     30 C          60.5311   83.4451    6.8294 C.3     1  UNL1        0.2374
     31 C          61.0816   84.2440    8.0243 C.3     1  UNL1        0.1909
     32 C          61.1972   83.4467    9.2876 C.3     1  UNL1        0.1783
     33 O          60.9810   84.3576   10.3209 O.3     1  UNL1       -0.3271
     34 C          60.3640   85.4886    9.7301 C.3     1  UNL1        0.2232
     35 O          60.2268   85.2935    8.3373 O.3     1  UNL1       -0.3258
     36 C          61.2010   86.7454   10.0003 C.ar    1  UNL1        0.0404
     37 C          62.0700   86.7803   11.1157 C.ar    1  UNL1        0.0021
     38 C          62.8854   87.8864   11.3585 C.ar    1  UNL1        0.0113
     39 C          62.8723   88.9715   10.4851 C.ar    1  UNL1        0.0585
     40 CL         63.9028   90.3567   10.7934 Cl      1  UNL1       -0.0822
     41 C          62.0391   88.9534    9.3664 C.ar    1  UNL1        0.0226
     42 C          61.2011   87.8594    9.1172 C.ar    1  UNL1        0.0591
     43 CL         60.1914   87.9415    7.6749 Cl      1  UNL1       -0.0824
     44 C          58.9565   85.6711   10.3313 C.3     1  UNL1        0.1338
     45 N          58.8834   85.0297   11.6666 N.3     1  UNL1       -0.2659
     46 C          58.6392   86.0238   12.7235 C.3     1  UNL1        0.0898
     47 C          57.8392   83.9920   11.7087 C.3     1  UNL1        0.0898
@<TRIPOS>BOND
     1    27    28    1
     2    28    25    1
     3    25    26    1
     4    25    19    1
     5    19    20   ar
     6    20    21   ar
     7    21    22   ar
     8    22    13    1
     9    13    14   ar
    10    14    15   ar
    11    15    16   ar
    12    16     7    1
    13     7     8    1
    14     8     9    1
    15     9    10    1
    16    10     1    1
    17     1     2   ar
    18     2     3   ar
    19     3     4   ar
    20     4    29    1
    21    29    30    1
    22    30    31    1
    23    31    32    1
    24    32    33    1
    25    33    34    1
    26    34    44    1
    27    44    45    1
    28    45    46    1
    29    45    47    1
    30    34    36    1
    31    36    37   ar
    32    37    38   ar
    33    38    39   ar
    34    39    40    1
    35    39    41   ar
    36    41    42   ar
    37    42    43    1
    38    34    35    1
    39     4     5   ar
    40     5     6   ar
    41    10    11    1
    42    11    12    1
    43    16    17   ar
    44    17    18   ar
    45    22    23   ar
    46    23    24    2
    47    23    19   ar
    48    18    13   ar
    49    12     7    1
    50     6     1   ar
    51    35    31    1
    52    42    36   ar
@<TRIPOS>MOLECULE
*****
 47 52 0 0 0
SMALL
GASTEIGER

@<TRIPOS>ATOM
      1 C          59.4097   80.5756    9.8449 C.ar    1  UNL1        0.0481
      2 C          60.7909   80.3022    9.8455 C.ar    1  UNL1        0.0176
      3 C          61.4305   79.8931   11.0159 C.ar    1  UNL1        0.0382
      4 C          60.7002   79.7483   12.2051 C.ar    1  UNL1        0.1388
      5 C          59.3090   79.8782   12.1752 C.ar    1  UNL1        0.0382
      6 C          58.6676   80.3019   11.0079 C.ar    1  UNL1        0.0176
      7 N          59.4106   83.6851    7.8582 N.pl3   1  UNL1       -0.3041
      8 C          60.1065   82.5965    7.1514 C.3     1  UNL1        0.1122
      9 C          59.3963   81.2528    7.3934 C.3     1  UNL1        0.1122
     10 N          58.7869   81.2572    8.7319 N.pl3   1  UNL1       -0.3041
     11 C          57.7619   82.2842    9.0076 C.3     1  UNL1        0.1122
     12 C          57.9783   83.5304    8.1322 C.3     1  UNL1        0.1122
     13 C          61.6160   86.4679   10.2012 C.ar    1  UNL1        0.0699
     14 C          60.2947   86.7523    9.8077 C.ar    1  UNL1        0.0190
     15 C          59.5721   85.8378    9.0336 C.ar    1  UNL1        0.0160
     16 C          60.1640   84.6374    8.6250 C.ar    1  UNL1        0.0480
     17 C          61.4815   84.3533    9.0090 C.ar    1  UNL1        0.0160
     18 C          62.2027   85.2604    9.7857 C.ar    1  UNL1        0.0190
     19 N          63.4885   89.1417   11.7856 N.ar    1  UNL1       -0.2024
     20 N          63.2139   88.3872   12.8400 N.ar    1  UNL1       -0.1442
     21 C          62.5192   87.3260   12.3769 C.ar    1  UNL1        0.2073
     22 N          62.3574   87.3811   11.0345 N.ar    1  UNL1       -0.2398
     23 C          62.9795   88.5301   10.7018 C.ar    1  UNL1        0.3522
     24 O          63.0421   88.9990    9.5334 O.2     1  UNL1       -0.2444
     25 C          64.2536   90.3940   11.8179 C.3     1  UNL1        0.1099
     26 C          65.2118   90.4285   13.0170 C.3     1  UNL1        0.0265
     27 C          66.3133   91.3649   10.6042 C.3     1  UNL1        0.0021
     28 C          64.9727   90.6383   10.4744 C.3     1  UNL1        0.0245
     29 O          61.3343   79.5463   13.4383 O.3     1  UNL1       -0.4727
     30 C          62.1370   80.5385   14.0862 C.3     1  UNL1        0.2374
     31 C          61.7175   81.9492   13.6357 C.3     1  UNL1        0.1909
     32 C          62.8033   82.7143   12.9423 C.3     1  UNL1        0.1783
     33 O          62.5716   84.0527   13.2572 O.3     1  UNL1       -0.3271
     34 C          61.7043   84.0521   14.3782 C.3     1  UNL1        0.2232
     35 O          61.3762   82.7251   14.7363 O.3     1  UNL1       -0.3258
     36 C          60.4259   84.8358   14.0544 C.ar    1  UNL1        0.0404
     37 C          60.0556   85.9348   14.8640 C.ar    1  UNL1        0.0021
     38 C          58.9291   86.7021   14.5645 C.ar    1  UNL1        0.0113
     39 C          58.1600   86.4083   13.4408 C.ar    1  UNL1        0.0585
     40 CL         56.7481   87.3792   13.0674 Cl      1  UNL1       -0.0822
     41 C          58.5154   85.3419   12.6145 C.ar    1  UNL1        0.0226
     42 C          59.6322   84.5504   12.9100 C.ar    1  UNL1        0.0591
     43 CL         59.9900   83.2306   11.7981 Cl      1  UNL1       -0.0824
     44 C          62.4199   84.7103   15.5741 C.3     1  UNL1        0.1338
     45 N          63.3624   85.7513   15.0967 N.3     1  UNL1       -0.2659
     46 C          63.2594   86.9759   15.9057 C.3     1  UNL1        0.0898
     47 C          64.7522   85.2641   15.1062 C.3     1  UNL1        0.0898
@<TRIPOS>BOND
     1    27    28    1
     2    28    25    1
     3    25    26    1
     4    25    19    1
     5    19    20   ar
     6    20    21   ar
     7    21    22   ar
     8    22    13    1
     9    13    14   ar
    10    14    15   ar
    11    15    16   ar
    12    16     7    1
    13     7     8    1
    14     8     9    1
    15     9    10    1
    16    10     1    1
    17     1     2   ar
    18     2     3   ar
    19     3     4   ar
    20     4    29    1
    21    29    30    1
    22    30    31    1
    23    31    32    1
    24    32    33    1
    25    33    34    1
    26    34    44    1
    27    44    45    1
    28    45    46    1
    29    45    47    1
    30    34    36    1
    31    36    37   ar
    32    37    38   ar
    33    38    39   ar
    34    39    40    1
    35    39    41   ar
    36    41    42   ar
    37    42    43    1
    38    34    35    1
    39     4     5   ar
    40     5     6   ar
    41    10    11    1
    42    11    12    1
    43    16    17   ar
    44    17    18   ar
    45    22    23   ar
    46    23    24    2
    47    23    19   ar
    48    18    13   ar
    49    12     7    1
    50     6     1   ar
    51    35    31    1
    52    42    36   ar
@<TRIPOS>MOLECULE
*****
 47 52 0 0 0
SMALL
GASTEIGER

@<TRIPOS>ATOM
      1 C          61.2066   84.5883    9.1461 C.ar    1  UNL1        0.0481
      2 C          62.5467   84.9579    8.9229 C.ar    1  UNL1        0.0176
      3 C          63.5750   84.0322    9.1020 C.ar    1  UNL1        0.0382
      4 C          63.2813   82.7210    9.5053 C.ar    1  UNL1        0.1388
      5 C          61.9475   82.3117    9.5874 C.ar    1  UNL1        0.0382
      6 C          60.9159   83.2403    9.4226 C.ar    1  UNL1        0.0176
      7 N          60.5310   88.1638    9.7592 N.pl3   1  UNL1       -0.3041
      8 C          60.4755   87.8459    8.3223 C.3     1  UNL1        0.1122
      9 C          59.8420   86.4614    8.0981 C.3     1  UNL1        0.1122
     10 N          60.1647   85.5872    9.2359 N.pl3   1  UNL1       -0.3041
     11 C          59.6941   86.0090   10.5708 C.3     1  UNL1        0.1122
     12 C          59.5455   87.5382   10.6470 C.3     1  UNL1        0.1122
     13 C          64.0614   89.8124   11.4667 C.ar    1  UNL1        0.0699
     14 C          63.7784   89.9882   10.0991 C.ar    1  UNL1        0.0190
     15 C          62.6190   89.4418    9.5381 C.ar    1  UNL1        0.0160
     16 C          61.7371   88.6964   10.3286 C.ar    1  UNL1        0.0480
     17 C          62.0183   88.5133   11.6892 C.ar    1  UNL1        0.0160
     18 C          63.1706   89.0617   12.2529 C.ar    1  UNL1        0.0190
     19 N          66.9463   90.8433   13.4110 N.ar    1  UNL1       -0.2024
     20 N          67.0960   91.6094   12.3400 N.ar    1  UNL1       -0.1442
     21 C          66.0556   91.3308   11.5256 C.ar    1  UNL1        0.2073
     22 N          65.2298   90.4058   12.0674 N.ar    1  UNL1       -0.2398
     23 C          65.8199   90.1276   13.2474 C.ar    1  UNL1        0.3522
     24 O          65.3994   89.2759   14.0760 O.2     1  UNL1       -0.2444
     25 C          67.8413   90.8320   14.5745 C.3     1  UNL1        0.1099
     26 C          69.3135   90.7818   14.1420 C.3     1  UNL1        0.0265
     27 C          68.7748   92.8107   15.9424 C.3     1  UNL1        0.0021
     28 C          67.5383   92.0153   15.5176 C.3     1  UNL1        0.0245
     29 O          64.2880   81.8284    9.8973 O.3     1  UNL1       -0.4727
     30 C          64.2150   81.0242   11.0790 C.3     1  UNL1        0.2374
     31 C          64.0316   81.9109   12.3236 C.3     1  UNL1        0.1909
     32 C          64.1375   81.1680   13.6206 C.3     1  UNL1        0.1783
     33 O          63.2867   81.8364   14.5002 O.3     1  UNL1       -0.3271
     34 C          62.4264   82.6259   13.6968 C.3     1  UNL1        0.2232
     35 O          62.7609   82.4723   12.3325 O.3     1  UNL1       -0.3258
     36 C          62.5399   84.1021   14.0982 C.ar    1  UNL1        0.0404
     37 C          61.3837   84.9167   14.1016 C.ar    1  UNL1        0.0021
     38 C          61.4428   86.2486   14.5140 C.ar    1  UNL1        0.0113
     39 C          62.6471   86.7927   14.9543 C.ar    1  UNL1        0.0585
     40 CL         62.7138   88.4659   15.4755 Cl      1  UNL1       -0.0822
     41 C          63.7980   86.0047   14.9798 C.ar    1  UNL1        0.0226
     42 C          63.7607   84.6715   14.5526 C.ar    1  UNL1        0.0591
     43 CL         65.2721   83.7680   14.6285 Cl      1  UNL1       -0.0824
     44 C          60.9727   82.1521   13.8921 C.3     1  UNL1        0.1338
     45 N          60.5658   81.2730   12.7690 N.3     1  UNL1       -0.2659
     46 C          60.6330   79.8537   13.1508 C.3     1  UNL1        0.0898
     47 C          59.2093   81.5973   12.2959 C.3     1  UNL1        0.0898
@<TRIPOS>BOND
     1    27    28    1
     2    28    25    1
     3    25    26    1
     4    25    19    1
     5    19    20   ar
     6    20    21   ar
     7    21    22   ar
     8    22    13    1
     9    13    14   ar
    10    14    15   ar
    11    15    16   ar
    12    16     7    1
    13     7     8    1
    14     8     9    1
    15     9    10    1
    16    10     1    1
    17     1     2   ar
    18     2     3   ar
    19     3     4   ar
    20     4    29    1
    21    29    30    1
    22    30    31    1
    23    31    32    1
    24    32    33    1
    25    33    34    1
    26    34    44    1
    27    44    45    1
    28    45    46    1
    29    45    47    1
    30    34    36    1
    31    36    37   ar
    32    37    38   ar
    33    38    39   ar
    34    39    40    1
    35    39    41   ar
    36    41    42   ar
    37    42    43    1
    38    34    35    1
    39     4     5   ar
    40     5     6   ar
    41    10    11    1
    42    11    12    1
    43    16    17   ar
    44    17    18   ar
    45    22    23   ar
    46    23    24    2
    47    23    19   ar
    48    18    13   ar
    49    12     7    1
    50     6     1   ar
    51    35    31    1
    52    42    36   ar
@<TRIPOS>MOLECULE
*****
 47 52 0 0 0
SMALL
GASTEIGER

@<TRIPOS>ATOM
      1 C          62.0785   80.7656   12.4041 C.ar    1  UNL1        0.0481
      2 C          63.2151   81.1561   11.6707 C.ar    1  UNL1        0.0176
      3 C          64.1643   82.0073   12.2370 C.ar    1  UNL1        0.0382
      4 C          63.9947   82.4811   13.5467 C.ar    1  UNL1        0.1388
      5 C          62.9466   81.9828   14.3255 C.ar    1  UNL1        0.0382
      6 C          61.9865   81.1414   13.7563 C.ar    1  UNL1        0.0176
      7 N          59.6461   81.0516    9.6441 N.pl3   1  UNL1       -0.3041
      8 C          60.7303   80.1131    9.3087 C.3     1  UNL1        0.1122
      9 C          61.1446   79.2994   10.5476 C.3     1  UNL1        0.1122
     10 N          60.9597   80.1196   11.7542 N.pl3   1  UNL1       -0.3041
     11 C          59.5924   80.5931   12.0501 C.3     1  UNL1        0.1122
     12 C          58.7592   80.7163   10.7628 C.3     1  UNL1        0.1122
     13 C          59.8722   85.1173    8.4127 C.ar    1  UNL1        0.0699
     14 C          58.6345   84.5412    8.7556 C.ar    1  UNL1        0.0190
     15 C          58.5612   83.2027    9.1564 C.ar    1  UNL1        0.0160
     16 C          59.7176   82.4159    9.2012 C.ar    1  UNL1        0.0480
     17 C          60.9510   82.9836    8.8543 C.ar    1  UNL1        0.0160
     18 C          61.0283   84.3196    8.4598 C.ar    1  UNL1        0.0190
     19 N          59.6514   88.4773    7.0609 N.ar    1  UNL1       -0.2024
     20 N          60.4416   88.6923    8.1028 N.ar    1  UNL1       -0.1442
     21 C          60.6216   87.4930    8.6967 C.ar    1  UNL1        0.2073
     22 N          59.9689   86.5064    8.0395 N.ar    1  UNL1       -0.2398
     23 C          59.3760   87.1618    7.0213 C.ar    1  UNL1        0.3522
     24 O          58.6238   86.6247    6.1643 O.2     1  UNL1       -0.2444
     25 C          59.2084   89.5036    6.1094 C.3     1  UNL1        0.1099
     26 C          60.1699   89.6071    4.9170 C.3     1  UNL1        0.0265
     27 C          57.0587   90.4939    5.0817 C.3     1  UNL1        0.0021
     28 C          57.7469   89.2630    5.6761 C.3     1  UNL1        0.0245
     29 O          64.8063   83.4948   14.0737 O.3     1  UNL1       -0.4727
     30 C          64.4505   84.2773   15.2181 C.3     1  UNL1        0.2374
     31 C          64.1278   85.7237   14.8025 C.3     1  UNL1        0.1909
     32 C          63.3276   86.4837   15.8162 C.3     1  UNL1        0.1783
     33 O          62.5451   87.3719   15.0793 O.3     1  UNL1       -0.3271
     34 C          62.5487   86.8914   13.7459 C.3     1  UNL1        0.2232
     35 O          63.3516   85.7326   13.6504 O.3     1  UNL1       -0.3258
     36 C          63.0811   87.9739   12.7983 C.ar    1  UNL1        0.0404
     37 C          62.7437   87.9290   11.4255 C.ar    1  UNL1        0.0021
     38 C          63.1661   88.9280   10.5474 C.ar    1  UNL1        0.0113
     39 C          63.9126   90.0053   11.0191 C.ar    1  UNL1        0.0585
     40 CL         64.4365   91.2600    9.9113 Cl      1  UNL1       -0.0822
     41 C          64.2416   90.0838   12.3725 C.ar    1  UNL1        0.0226
     42 C          63.8413   89.0810   13.2644 C.ar    1  UNL1        0.0591
     43 CL         64.3104   89.2817   14.9514 Cl      1  UNL1       -0.0824
     44 C          61.1107   86.5153   13.3379 C.3     1  UNL1        0.1338
     45 N          60.9116   85.0504   13.4568 N.3     1  UNL1       -0.2659
     46 C          60.1000   84.7163   14.6377 C.3     1  UNL1        0.0898
     47 C          60.2833   84.4928   12.2472 C.3     1  UNL1        0.0898
@<TRIPOS>BOND
     1    27    28    1
     2    28    25    1
     3    25    26    1
     4    25    19    1
     5    19    20   ar
     6    20    21   ar
     7    21    22   ar
     8    22    13    1
     9    13    14   ar
    10    14    15   ar
    11    15    16   ar
    12    16     7    1
    13     7     8    1
    14     8     9    1
    15     9    10    1
    16    10     1    1
    17     1     2   ar
    18     2     3   ar
    19     3     4   ar
    20     4    29    1
    21    29    30    1
    22    30    31    1
    23    31    32    1
    24    32    33    1
    25    33    34    1
    26    34    44    1
    27    44    45    1
    28    45    46    1
    29    45    47    1
    30    34    36    1
    31    36    37   ar
    32    37    38   ar
    33    38    39   ar
    34    39    40    1
    35    39    41   ar
    36    41    42   ar
    37    42    43    1
    38    34    35    1
    39     4     5   ar
    40     5     6   ar
    41    10    11    1
    42    11    12    1
    43    16    17   ar
    44    17    18   ar
    45    22    23   ar
    46    23    24    2
    47    23    19   ar
    48    18    13   ar
    49    12     7    1
    50     6     1   ar
    51    35    31    1
    52    42    36   ar
@<TRIPOS>MOLECULE
*****
 47 52 0 0 0
SMALL
GASTEIGER

@<TRIPOS>ATOM
      1 C          58.5233   79.9371   10.3974 C.ar    1  UNL1        0.0481
      2 C          58.0951   81.1649   10.9375 C.ar    1  UNL1        0.0176
      3 C          57.7902   82.2381   10.0999 C.ar    1  UNL1        0.0382
      4 C          57.9062   82.1021    8.7084 C.ar    1  UNL1        0.1388
      5 C          58.1904   80.8467    8.1638 C.ar    1  UNL1        0.0382
      6 C          58.5102   79.7737    9.0005 C.ar    1  UNL1        0.0176
      7 N          60.5893   79.3465   13.3972 N.pl3   1  UNL1       -0.3041
      8 C          59.1579   79.1533   13.6849 C.3     1  UNL1        0.1122
      9 C          58.4498   78.4922   12.4891 C.3     1  UNL1        0.1122
     10 N          59.1024   78.9151   11.2408 N.pl3   1  UNL1       -0.3041
     11 C          60.5299   78.5757   11.0725 C.3     1  UNL1        0.1122
     12 C          61.2317   78.4452   12.4351 C.3     1  UNL1        0.1122
     13 C          62.4753   83.0754   14.1945 C.ar    1  UNL1        0.0699
     14 C          63.1373   81.8647   14.4726 C.ar    1  UNL1        0.0190
     15 C          62.5140   80.6391   14.2136 C.ar    1  UNL1        0.0160
     16 C          61.2155   80.6047   13.6932 C.ar    1  UNL1        0.0480
     17 C          60.5503   81.8077   13.4210 C.ar    1  UNL1        0.0160
     18 C          61.1712   83.0314   13.6726 C.ar    1  UNL1        0.0190
     19 N          63.5119   86.5083   14.7482 N.ar    1  UNL1       -0.2024
     20 N          64.6570   85.8771   14.9638 N.ar    1  UNL1       -0.1442
     21 C          64.4091   84.5640   14.7694 C.ar    1  UNL1        0.2073
     22 N          63.1214   84.3450   14.4157 N.ar    1  UNL1       -0.2398
     23 C          62.5937   85.5857   14.4113 C.ar    1  UNL1        0.3522
     24 O          61.3857   85.8500   14.1665 O.2     1  UNL1       -0.2444
     25 C          63.3197   87.9616   14.8256 C.3     1  UNL1        0.1099
     26 C          63.0540   88.4103   16.2695 C.3     1  UNL1        0.0265
     27 C          64.7180   90.1274   14.7173 C.3     1  UNL1        0.0021
     28 C          64.5024   88.7118   14.1774 C.3     1  UNL1        0.0245
     29 O          57.8146   83.2065    7.8506 O.3     1  UNL1       -0.4727
     30 C          57.6950   84.5566    8.3104 C.3     1  UNL1        0.2374
     31 C          59.0820   85.2160    8.4120 C.3     1  UNL1        0.1909
     32 C          60.1150   84.6009    7.5176 C.3     1  UNL1        0.1783
     33 O          61.3249   84.7469    8.1950 O.3     1  UNL1       -0.3271
     34 C          60.9930   85.0217    9.5453 C.3     1  UNL1        0.2232
     35 O          59.5893   85.0761    9.6978 O.3     1  UNL1       -0.3258
     36 C          61.6165   86.3543    9.9794 C.ar    1  UNL1        0.0404
     37 C          62.6266   86.9453    9.1850 C.ar    1  UNL1        0.0021
     38 C          63.1754   88.1833    9.5224 C.ar    1  UNL1        0.0113
     39 C          62.7156   88.8713   10.6429 C.ar    1  UNL1        0.0585
     40 CL         63.4063   90.4288   11.0588 Cl      1  UNL1       -0.0822
     41 C          61.7059   88.3196   11.4317 C.ar    1  UNL1        0.0226
     42 C          61.1564   87.0702   11.1181 C.ar    1  UNL1        0.0591
     43 CL         59.8860   86.4690   12.1815 Cl      1  UNL1       -0.0824
     44 C          61.5307   83.8884   10.4410 C.3     1  UNL1        0.1338
     45 N          62.3331   82.9363    9.6352 N.3     1  UNL1       -0.2659
     46 C          63.6973   82.8022   10.1697 C.3     1  UNL1        0.0898
     47 C          61.6917   81.6121    9.5705 C.3     1  UNL1        0.0898
@<TRIPOS>BOND
     1    27    28    1
     2    28    25    1
     3    25    26    1
     4    25    19    1
     5    19    20   ar
     6    20    21   ar
     7    21    22   ar
     8    22    13    1
     9    13    14   ar
    10    14    15   ar
    11    15    16   ar
    12    16     7    1
    13     7     8    1
    14     8     9    1
    15     9    10    1
    16    10     1    1
    17     1     2   ar
    18     2     3   ar
    19     3     4   ar
    20     4    29    1
    21    29    30    1
    22    30    31    1
    23    31    32    1
    24    32    33    1
    25    33    34    1
    26    34    44    1
    27    44    45    1
    28    45    46    1
    29    45    47    1
    30    34    36    1
    31    36    37   ar
    32    37    38   ar
    33    38    39   ar
    34    39    40    1
    35    39    41   ar
    36    41    42   ar
    37    42    43    1
    38    34    35    1
    39     4     5   ar
    40     5     6   ar
    41    10    11    1
    42    11    12    1
    43    16    17   ar
    44    17    18   ar
    45    22    23   ar
    46    23    24    2
    47    23    19   ar
    48    18    13   ar
    49    12     7    1
    50     6     1   ar
    51    35    31    1
    52    42    36   ar
@<TRIPOS>MOLECULE
*****
 47 52 0 0 0
SMALL
GASTEIGER

@<TRIPOS>ATOM
      1 C          61.0803   83.4505    8.8372 C.ar    1  UNL1        0.0481
      2 C          62.4149   83.8580    9.0247 C.ar    1  UNL1        0.0176
      3 C          63.3529   82.9799    9.5682 C.ar    1  UNL1        0.0382
      4 C          62.9736   81.6790    9.9315 C.ar    1  UNL1        0.1388
      5 C          61.6902   81.2254    9.6143 C.ar    1  UNL1        0.0382
      6 C          60.7445   82.1071    9.0833 C.ar    1  UNL1        0.0176
      7 N          60.1246   87.0036    9.1170 N.pl3   1  UNL1       -0.3041
      8 C          60.5859   86.6775    7.7569 C.3     1  UNL1        0.1122
      9 C          60.1135   85.2712    7.3476 C.3     1  UNL1        0.1122
     10 N          60.0432   84.4137    8.5403 N.pl3   1  UNL1       -0.3041
     11 C          59.1221   84.8252    9.6190 C.3     1  UNL1        0.1122
     12 C          58.9099   86.3488    9.6135 C.3     1  UNL1        0.1122
     13 C          62.8951   88.6760   11.8783 C.ar    1  UNL1        0.0699
     14 C          62.3306   87.4076   12.1104 C.ar    1  UNL1        0.0190
     15 C          61.4164   86.8607   11.2033 C.ar    1  UNL1        0.0160
     16 C          61.0379   87.5795   10.0640 C.ar    1  UNL1        0.0480
     17 C          61.5924   88.8455    9.8324 C.ar    1  UNL1        0.0160
     18 C          62.5087   89.3912   10.7319 C.ar    1  UNL1        0.0190
     19 N          65.5855   90.3624   13.6342 N.ar    1  UNL1       -0.2024
     20 N          64.8787   89.9111   14.6604 N.ar    1  UNL1       -0.1442
     21 C          63.8347   89.2353   14.1345 C.ar    1  UNL1        0.2073
     22 N          63.8705   89.2333   12.7817 N.ar    1  UNL1       -0.2398
     23 C          64.9814   89.9464   12.5074 C.ar    1  UNL1        0.3522
     24 O          65.3840   90.2280   11.3465 O.2     1  UNL1       -0.2444
     25 C          66.8281   91.1370   13.7385 C.3     1  UNL1        0.1099
     26 C          66.5452   92.6459   13.7156 C.3     1  UNL1        0.0265
     27 C          68.5204   91.8131   15.5652 C.3     1  UNL1        0.0021
     28 C          67.6486   90.7041   14.9718 C.3     1  UNL1        0.0245
     29 O          63.8235   80.8430   10.6682 O.3     1  UNL1       -0.4727
     30 C          64.3089   81.1640   11.9758 C.3     1  UNL1        0.2374
     31 C          63.2096   81.8522   12.8047 C.3     1  UNL1        0.1909
     32 C          63.1915   81.4465   14.2470 C.3     1  UNL1        0.1783
     33 O          61.8544   81.5215   14.6354 O.3     1  UNL1       -0.3271
     34 C          61.0944   81.5416   13.4393 C.3     1  UNL1        0.2232
     35 O          61.9540   81.5105   12.3183 O.3     1  UNL1       -0.3258
     36 C          60.2216   82.8023   13.3919 C.ar    1  UNL1        0.0404
     37 C          58.9135   82.7275   12.8593 C.ar    1  UNL1        0.0021
     38 C          58.0745   83.8427   12.8519 C.ar    1  UNL1        0.0113
     39 C          58.5089   85.0496   13.3951 C.ar    1  UNL1        0.0585
     40 CL         57.4481   86.4461   13.3868 Cl      1  UNL1       -0.0822
     41 C          59.7875   85.1444   13.9450 C.ar    1  UNL1        0.0226
     42 C          60.6491   84.0403   13.9446 C.ar    1  UNL1        0.0591
     43 CL         62.2405   84.2714   14.6661 Cl      1  UNL1       -0.0824
     44 C          60.1931   80.2922   13.3894 C.3     1  UNL1        0.1338
     45 N          60.1495   79.7475   12.0106 N.3     1  UNL1       -0.2659
     46 C          60.8800   78.4738   11.9166 C.3     1  UNL1        0.0898
     47 C          58.7633   79.5613   11.5492 C.3     1  UNL1        0.0898
@<TRIPOS>BOND
     1    27    28    1
     2    28    25    1
     3    25    26    1
     4    25    19    1
     5    19    20   ar
     6    20    21   ar
     7    21    22   ar
     8    22    13    1
     9    13    14   ar
    10    14    15   ar
    11    15    16   ar
    12    16     7    1
    13     7     8    1
    14     8     9    1
    15     9    10    1
    16    10     1    1
    17     1     2   ar
    18     2     3   ar
    19     3     4   ar
    20     4    29    1
    21    29    30    1
    22    30    31    1
    23    31    32    1
    24    32    33    1
    25    33    34    1
    26    34    44    1
    27    44    45    1
    28    45    46    1
    29    45    47    1
    30    34    36    1
    31    36    37   ar
    32    37    38   ar
    33    38    39   ar
    34    39    40    1
    35    39    41   ar
    36    41    42   ar
    37    42    43    1
    38    34    35    1
    39     4     5   ar
    40     5     6   ar
    41    10    11    1
    42    11    12    1
    43    16    17   ar
    44    17    18   ar
    45    22    23   ar
    46    23    24    2
    47    23    19   ar
    48    18    13   ar
    49    12     7    1
    50     6     1   ar
    51    35    31    1
    52    42    36   ar
