@<TRIPOS>MOLECULE
*****
 42 46 0 0 0
SMALL
GASTEIGER

@<TRIPOS>ATOM
      1 C          -9.5704  -12.0851   31.0694 C.ar    1  UNL1        0.2018
      2 N          -9.5154  -13.1642   30.2468 N.ar    1  UNL1       -0.2135
      3 C          -8.4048  -12.9360   29.5243 C.ar    1  UNL1        0.0999
      4 C          -7.8887  -13.7288   28.4909 C.ar    1  UNL1        0.0282
      5 C          -6.7229  -13.2835   27.8150 C.ar    1  UNL1        0.0888
      6 C          -6.1328  -12.0676   28.2409 C.ar    1  UNL1        0.1401
      7 C          -6.6547  -11.3169   29.2692 C.ar    1  UNL1        0.0327
      8 C          -7.8118  -11.7642   29.9120 C.ar    1  UNL1        0.0789
      9 N          -8.5296  -11.2182   30.9114 N.ar    1  UNL1       -0.2977
     10 C          -8.2395   -9.9972   31.6632 C.3     1  UNL1        0.1332
     11 C          -5.8198  -10.1045   29.4916 C.3     1  UNL1        0.0709
     12 C          -4.7238  -10.2362   28.3835 C.3     1  UNL1        0.1375
     13 C          -3.3145  -10.2872   28.9886 C.3     1  UNL1        0.0439
     14 C          -4.8266   -9.0958   27.3617 C.3     1  UNL1        0.0439
     15 O          -4.9976  -11.4755   27.7274 O.3     1  UNL1       -0.4824
     16 C          -6.1472  -14.0818   26.7096 C.2     1  UNL1        0.2525
     17 O          -4.8988  -14.0791   26.5284 O.2     1  UNL1       -0.2697
     18 N          -6.9862  -14.9020   25.8807 N.am    1  UNL1       -0.2803
     19 H          -7.8548  -15.2978   26.3062 H       1  UNL1        0.1552
     20 C          -6.6282  -15.3288   24.5549 C.ar    1  UNL1        0.0505
     21 C          -7.4800  -15.0288   23.4826 C.ar    1  UNL1        0.0147
     22 C          -7.1510  -15.4273   22.1858 C.ar    1  UNL1        0.0012
     23 C          -5.9571  -16.1092   21.9421 C.ar    1  UNL1        0.0039
     24 C          -5.0641  -16.3765   22.9939 C.ar    1  UNL1        0.0726
     25 C          -5.4155  -15.9971   24.3022 C.ar    1  UNL1        0.0185
     26 C          -3.7881  -17.1398   22.7400 C.3     1  UNL1        0.4186
     27 F          -2.7584  -16.2729   22.4173 F       1  UNL1       -0.1659
     28 F          -3.4446  -17.8430   23.8794 F       1  UNL1       -0.1659
     29 F          -3.9473  -18.0300   21.6919 F       1  UNL1       -0.1659
     30 N         -10.6487  -11.8993   31.9971 N.pl3   1  UNL1       -0.2814
     31 H         -11.0678  -10.9445   32.0598 H       1  UNL1        0.1551
     32 C         -12.4860  -14.7921   33.5768 C.ar    1  UNL1        0.0634
     33 C         -11.8547  -14.8188   34.8342 C.ar    1  UNL1        0.0060
     34 C         -10.8419  -13.9113   35.1424 C.ar    1  UNL1        0.0129
     35 C         -10.4427  -12.9529   34.2103 C.ar    1  UNL1        0.0733
     36 CL         -9.1847  -11.8092   34.6620 Cl      1  UNL1       -0.0809
     37 C         -11.0670  -12.8907   32.9523 C.ar    1  UNL1        0.0890
     38 C         -12.0756  -13.8245   32.6329 C.ar    1  UNL1        0.1570
     39 F         -12.6205  -13.8157   31.3886 F       1  UNL1       -0.2027
     40 C         -13.3430  -16.9086   32.3065 C.3     1  UNL1        0.0773
     41 C         -13.5666  -15.7664   33.2524 C.2     1  UNL1        0.1757
     42 O         -14.6986  -15.6587   33.7971 O.2     1  UNL1       -0.2913
@<TRIPOS>BOND
     1    40    41    1
     2    41    42    2
     3    41    32    1
     4    32    33   ar
     5    33    34   ar
     6    34    35   ar
     7    35    36    1
     8    35    37   ar
     9    37    30    1
    10    30     1    1
    11     1     2   ar
    12     2     3   ar
    13     3     4   ar
    14     4     5   ar
    15     5    16    1
    16    16    17    2
    17    16    18   am
    18    18    20    1
    19    20    21   ar
    20    21    22   ar
    21    22    23   ar
    22    23    24   ar
    23    24    26    1
    24    26    27    1
    25    26    28    1
    26    26    29    1
    27    24    25   ar
    28     5     6   ar
    29     6     7   ar
    30     7     8   ar
    31     8     9   ar
    32     9    10    1
    33     7    11    1
    34    11    12    1
    35    12    13    1
    36    12    14    1
    37    12    15    1
    38    37    38   ar
    39    38    39    1
    40    38    32   ar
    41     9     1   ar
    42     8     3   ar
    43    25    20   ar
    44    15     6    1
    45    30    31    1
    46    18    19    1
@<TRIPOS>MOLECULE
*****
 42 46 0 0 0
SMALL
GASTEIGER

@<TRIPOS>ATOM
      1 C          -7.9750  -15.5108   27.1444 C.ar    1  UNL1        0.2018
      2 N          -9.1889  -15.0919   27.5863 N.ar    1  UNL1       -0.2135
      3 C          -8.8903  -13.9767   28.2752 C.ar    1  UNL1        0.0999
      4 C          -9.7783  -13.1518   28.9781 C.ar    1  UNL1        0.0282
      5 C          -9.2518  -12.0407   29.6868 C.ar    1  UNL1        0.0888
      6 C          -7.8541  -11.8159   29.6245 C.ar    1  UNL1        0.1401
      7 C          -7.0079  -12.6357   28.9138 C.ar    1  UNL1        0.0327
      8 C          -7.5433  -13.7335   28.2353 C.ar    1  UNL1        0.0789
      9 N          -6.9458  -14.6899   27.5003 N.ar    1  UNL1       -0.2977
     10 C          -5.5300  -14.8000   27.1487 C.3     1  UNL1        0.1332
     11 C          -5.6065  -12.1463   29.0286 C.3     1  UNL1        0.0709
     12 C          -5.7532  -10.9078   29.9725 C.3     1  UNL1        0.1375
     13 C          -5.2549   -9.6231   29.2972 C.3     1  UNL1        0.0439
     14 C          -5.0205  -11.1323   31.3022 C.3     1  UNL1        0.0439
     15 O          -7.1543  -10.7909   30.2267 O.3     1  UNL1       -0.4824
     16 C         -10.1496  -11.1473   30.4527 C.2     1  UNL1        0.2525
     17 O         -11.2390  -11.5993   30.9001 O.2     1  UNL1       -0.2697
     18 N          -9.7679   -9.7926   30.7404 N.am    1  UNL1       -0.2803
     19 H          -8.7485   -9.5829   30.8360 H       1  UNL1        0.1552
     20 C         -10.7050   -8.7463   31.0492 C.ar    1  UNL1        0.0505
     21 C         -11.8800   -9.0596   31.7467 C.ar    1  UNL1        0.0147
     22 C         -12.8018   -8.0601   32.0631 C.ar    1  UNL1        0.0012
     23 C         -12.5497   -6.7337   31.7070 C.ar    1  UNL1        0.0039
     24 C         -11.3551   -6.3888   31.0519 C.ar    1  UNL1        0.0726
     25 C         -10.4440   -7.4051   30.7111 C.ar    1  UNL1        0.0185
     26 C         -11.0929   -4.9621   30.6382 C.3     1  UNL1        0.4186
     27 F         -11.6588   -4.0811   31.5433 F       1  UNL1       -0.1659
     28 F          -9.7285   -4.7456   30.5916 F       1  UNL1       -0.1659
     29 F         -11.6328   -4.7045   29.3898 F       1  UNL1       -0.1659
     30 N          -7.8252  -16.7200   26.3874 N.pl3   1  UNL1       -0.2814
     31 H          -7.1505  -17.4310   26.7486 H       1  UNL1        0.1551
     32 C         -10.1272  -17.9569   23.6652 C.ar    1  UNL1        0.0634
     33 C          -9.5405  -17.3280   22.5514 C.ar    1  UNL1        0.0060
     34 C          -8.4222  -16.5091   22.7026 C.ar    1  UNL1        0.0129
     35 C          -7.8588  -16.3063   23.9628 C.ar    1  UNL1        0.0733
     36 CL         -6.4274  -15.2920   24.0939 Cl      1  UNL1       -0.0809
     37 C          -8.4125  -16.9351   25.0916 C.ar    1  UNL1        0.0890
     38 C          -9.5583  -17.7449   24.9407 C.ar    1  UNL1        0.1570
     39 F         -10.1406  -18.2855   26.0425 F       1  UNL1       -0.2027
     40 C         -12.7179  -18.2785   23.5535 C.3     1  UNL1        0.0773
     41 C         -11.3242  -18.8295   23.4975 C.2     1  UNL1        0.1757
     42 O         -11.1809  -20.0626   23.2767 O.2     1  UNL1       -0.2913
@<TRIPOS>BOND
     1    40    41    1
     2    41    42    2
     3    41    32    1
     4    32    33   ar
     5    33    34   ar
     6    34    35   ar
     7    35    36    1
     8    35    37   ar
     9    37    30    1
    10    30     1    1
    11     1     2   ar
    12     2     3   ar
    13     3     4   ar
    14     4     5   ar
    15     5    16    1
    16    16    17    2
    17    16    18   am
    18    18    20    1
    19    20    21   ar
    20    21    22   ar
    21    22    23   ar
    22    23    24   ar
    23    24    26    1
    24    26    27    1
    25    26    28    1
    26    26    29    1
    27    24    25   ar
    28     5     6   ar
    29     6     7   ar
    30     7     8   ar
    31     8     9   ar
    32     9    10    1
    33     7    11    1
    34    11    12    1
    35    12    13    1
    36    12    14    1
    37    12    15    1
    38    37    38   ar
    39    38    39    1
    40    38    32   ar
    41     9     1   ar
    42     8     3   ar
    43    25    20   ar
    44    15     6    1
    45    30    31    1
    46    18    19    1
@<TRIPOS>MOLECULE
*****
 42 46 0 0 0
SMALL
GASTEIGER

@<TRIPOS>ATOM
      1 C          -8.1972  -12.6551   29.3468 C.ar    1  UNL1        0.2018
      2 N          -9.2104  -13.5364   29.1447 N.ar    1  UNL1       -0.2135
      3 C          -8.7043  -14.3702   28.2194 C.ar    1  UNL1        0.0999
      4 C          -9.3480  -15.4598   27.6183 C.ar    1  UNL1        0.0282
      5 C          -8.6519  -16.1895   26.6198 C.ar    1  UNL1        0.0888
      6 C          -7.3314  -15.7853   26.3022 C.ar    1  UNL1        0.1401
      7 C          -6.7196  -14.7189   26.9199 C.ar    1  UNL1        0.0327
      8 C          -7.4269  -14.0035   27.8894 C.ar    1  UNL1        0.0789
      9 N          -7.0786  -12.9241   28.6144 N.ar    1  UNL1       -0.2977
     10 C          -5.7925  -12.2270   28.6274 C.3     1  UNL1        0.1332
     11 C          -5.3412  -14.5411   26.3860 C.3     1  UNL1        0.0709
     12 C          -5.2463  -15.6658   25.3033 C.3     1  UNL1        0.1375
     13 C          -4.0984  -16.6395   25.6020 C.3     1  UNL1        0.0439
     14 C          -5.0919  -15.0718   23.8967 C.3     1  UNL1        0.0439
     15 O          -6.4884  -16.3679   25.3786 O.3     1  UNL1       -0.4824
     16 C          -9.2950  -17.3415   25.9489 C.2     1  UNL1        0.2525
     17 O          -9.2805  -18.4717   26.5090 O.2     1  UNL1       -0.2697
     18 N          -9.9831  -17.1740   24.6990 N.am    1  UNL1       -0.2803
     19 H         -10.4248  -16.2467   24.5059 H       1  UNL1        0.1552
     20 C         -10.2253  -18.2446   23.7699 C.ar    1  UNL1        0.0505
     21 C         -10.6646  -19.4860   24.2509 C.ar    1  UNL1        0.0147
     22 C         -10.9122  -20.5385   23.3679 C.ar    1  UNL1        0.0012
     23 C         -10.7463  -20.3562   21.9934 C.ar    1  UNL1        0.0039
     24 C         -10.3554  -19.1058   21.4847 C.ar    1  UNL1        0.0726
     25 C         -10.0802  -18.0581   22.3824 C.ar    1  UNL1        0.0185
     26 C         -10.1453  -18.9133   20.0035 C.3     1  UNL1        0.4186
     27 F          -8.8059  -18.7025   19.7253 F       1  UNL1       -0.1659
     28 F         -10.5721  -20.0441   19.3329 F       1  UNL1       -0.1659
     29 F         -10.8590  -17.8201   19.5430 F       1  UNL1       -0.1659
     30 N          -8.3324  -11.5450   30.2452 N.pl3   1  UNL1       -0.2814
     31 H          -8.0064  -10.6121   29.9068 H       1  UNL1        0.1551
     32 C         -10.3426  -12.3769   33.3284 C.ar    1  UNL1        0.0634
     33 C          -9.4633  -11.9073   34.3216 C.ar    1  UNL1        0.0060
     34 C          -8.2356  -11.3428   33.9773 C.ar    1  UNL1        0.0129
     35 C          -7.8615  -11.2253   32.6383 C.ar    1  UNL1        0.0733
     36 CL         -6.3173  -10.4739   32.2565 Cl      1  UNL1       -0.0809
     37 C          -8.7266  -11.6698   31.6233 C.ar    1  UNL1        0.0890
     38 C          -9.9585  -12.2622   31.9739 C.ar    1  UNL1        0.1570
     39 F         -10.7567  -12.7652   30.9966 F       1  UNL1       -0.2027
     40 C         -11.7639  -14.4046   34.1629 C.3     1  UNL1        0.0773
     41 C         -11.6529  -12.9815   33.7029 C.2     1  UNL1        0.1757
     42 O         -12.7039  -12.2862   33.6624 O.2     1  UNL1       -0.2913
@<TRIPOS>BOND
     1    40    41    1
     2    41    42    2
     3    41    32    1
     4    32    33   ar
     5    33    34   ar
     6    34    35   ar
     7    35    36    1
     8    35    37   ar
     9    37    30    1
    10    30     1    1
    11     1     2   ar
    12     2     3   ar
    13     3     4   ar
    14     4     5   ar
    15     5    16    1
    16    16    17    2
    17    16    18   am
    18    18    20    1
    19    20    21   ar
    20    21    22   ar
    21    22    23   ar
    22    23    24   ar
    23    24    26    1
    24    26    27    1
    25    26    28    1
    26    26    29    1
    27    24    25   ar
    28     5     6   ar
    29     6     7   ar
    30     7     8   ar
    31     8     9   ar
    32     9    10    1
    33     7    11    1
    34    11    12    1
    35    12    13    1
    36    12    14    1
    37    12    15    1
    38    37    38   ar
    39    38    39    1
    40    38    32   ar
    41     9     1   ar
    42     8     3   ar
    43    25    20   ar
    44    15     6    1
    45    30    31    1
    46    18    19    1
@<TRIPOS>MOLECULE
*****
 42 46 0 0 0
SMALL
GASTEIGER

@<TRIPOS>ATOM
      1 C          -8.2151  -15.5518   27.1905 C.ar    1  UNL1        0.2018
      2 N          -9.4090  -15.0938   27.6477 N.ar    1  UNL1       -0.2135
      3 C          -9.0668  -13.9832   28.3237 C.ar    1  UNL1        0.0999
      4 C          -9.9189  -13.1273   29.0338 C.ar    1  UNL1        0.0282
      5 C          -9.3488  -12.0274   29.7261 C.ar    1  UNL1        0.0888
      6 C          -7.9461  -11.8449   29.6409 C.ar    1  UNL1        0.1401
      7 C          -7.1358  -12.6946   28.9236 C.ar    1  UNL1        0.0327
      8 C          -7.7140  -13.7806   28.2615 C.ar    1  UNL1        0.0789
      9 N          -7.1566  -14.7596   27.5246 N.ar    1  UNL1       -0.2977
     10 C          -5.7502  -14.9144   27.1523 C.3     1  UNL1        0.1332
     11 C          -5.7188  -12.2465   29.0134 C.3     1  UNL1        0.0709
     12 C          -5.8140  -10.9975   29.9501 C.3     1  UNL1        0.1375
     13 C          -5.2881   -9.7330   29.2577 C.3     1  UNL1        0.0439
     14 C          -5.0679  -11.2345   31.2701 C.3     1  UNL1        0.0439
     15 O          -7.2069  -10.8371   30.2247 O.3     1  UNL1       -0.4824
     16 C         -10.2077  -11.1023   30.4988 C.2     1  UNL1        0.2525
     17 O         -11.2886  -11.5265   30.9918 O.2     1  UNL1       -0.2697
     18 N          -9.7966   -9.7473   30.7416 N.am    1  UNL1       -0.2803
     19 H          -8.7716   -9.5515   30.7992 H       1  UNL1        0.1552
     20 C         -10.7073   -8.6794   31.0551 C.ar    1  UNL1        0.0505
     21 C         -11.8697   -8.9599   31.7870 C.ar    1  UNL1        0.0147
     22 C         -12.7659   -7.9390   32.1087 C.ar    1  UNL1        0.0012
     23 C         -12.4998   -6.6235   31.7233 C.ar    1  UNL1        0.0039
     24 C         -11.3162   -6.3111   31.0328 C.ar    1  UNL1        0.0726
     25 C         -10.4318   -7.3491   30.6873 C.ar    1  UNL1        0.0185
     26 C         -11.0398   -4.8965   30.5878 C.3     1  UNL1        0.4186
     27 F         -11.6160   -3.9903   31.4610 F       1  UNL1       -0.1659
     28 F          -9.6737   -4.6879   30.5584 F       1  UNL1       -0.1659
     29 F         -11.5579   -4.6679   29.3245 F       1  UNL1       -0.1659
     30 N          -8.1130  -16.7703   26.4404 N.pl3   1  UNL1       -0.2814
     31 H          -7.6715  -17.5895   26.9148 H       1  UNL1        0.1551
     32 C          -8.1407  -16.1253   22.7226 C.ar    1  UNL1        0.0634
     33 C          -9.0416  -17.1257   22.3126 C.ar    1  UNL1        0.0060
     34 C          -9.6123  -17.9947   23.2417 C.ar    1  UNL1        0.0129
     35 C          -9.3063  -17.8808   24.5982 C.ar    1  UNL1        0.0733
     36 CL        -10.0805  -18.9797   25.7331 Cl      1  UNL1       -0.0809
     37 C          -8.4231  -16.8802   25.0397 C.ar    1  UNL1        0.0890
     38 C          -7.8281  -16.0162   24.0958 C.ar    1  UNL1        0.1570
     39 F          -6.9128  -15.1036   24.5137 F       1  UNL1       -0.2027
     40 C          -6.0660  -15.2313   21.4095 C.3     1  UNL1        0.0773
     41 C          -7.5320  -15.2005   21.7242 C.2     1  UNL1        0.1757
     42 O          -8.2571  -14.3803   21.0987 O.2     1  UNL1       -0.2913
@<TRIPOS>BOND
     1    40    41    1
     2    41    42    2
     3    41    32    1
     4    32    33   ar
     5    33    34   ar
     6    34    35   ar
     7    35    36    1
     8    35    37   ar
     9    37    30    1
    10    30     1    1
    11     1     2   ar
    12     2     3   ar
    13     3     4   ar
    14     4     5   ar
    15     5    16    1
    16    16    17    2
    17    16    18   am
    18    18    20    1
    19    20    21   ar
    20    21    22   ar
    21    22    23   ar
    22    23    24   ar
    23    24    26    1
    24    26    27    1
    25    26    28    1
    26    26    29    1
    27    24    25   ar
    28     5     6   ar
    29     6     7   ar
    30     7     8   ar
    31     8     9   ar
    32     9    10    1
    33     7    11    1
    34    11    12    1
    35    12    13    1
    36    12    14    1
    37    12    15    1
    38    37    38   ar
    39    38    39    1
    40    38    32   ar
    41     9     1   ar
    42     8     3   ar
    43    25    20   ar
    44    15     6    1
    45    30    31    1
    46    18    19    1
@<TRIPOS>MOLECULE
*****
 42 46 0 0 0
SMALL
GASTEIGER

@<TRIPOS>ATOM
      1 C          -9.8835  -12.2651   31.0693 C.ar    1  UNL1        0.2018
      2 N          -9.8081  -13.3286   30.2281 N.ar    1  UNL1       -0.2135
      3 C          -8.6722  -13.0949   29.5480 C.ar    1  UNL1        0.0999
      4 C          -8.1268  -13.8715   28.5173 C.ar    1  UNL1        0.0282
      5 C          -6.9358  -13.4222   27.8899 C.ar    1  UNL1        0.0888
      6 C          -6.3521  -12.2192   28.3590 C.ar    1  UNL1        0.1401
      7 C          -6.9033  -11.4846   29.3836 C.ar    1  UNL1        0.0327
      8 C          -8.0845  -11.9353   29.9782 C.ar    1  UNL1        0.0789
      9 N          -8.8319  -11.4033   30.9633 N.ar    1  UNL1       -0.2977
     10 C          -8.5589  -10.1992   31.7481 C.3     1  UNL1        0.1332
     11 C          -6.0679  -10.2830   29.6577 C.3     1  UNL1        0.0709
     12 C          -4.9360  -10.4016   28.5847 C.3     1  UNL1        0.1375
     13 C          -3.5484  -10.4749   29.2358 C.3     1  UNL1        0.0439
     14 C          -4.9963   -9.2410   27.5824 C.3     1  UNL1        0.0439
     15 O          -5.1961  -11.6260   27.8957 O.3     1  UNL1       -0.4824
     16 C          -6.3286  -14.2034   26.7891 C.2     1  UNL1        0.2525
     17 O          -5.0881  -14.1152   26.5780 O.2     1  UNL1       -0.2697
     18 N          -7.1242  -15.1016   25.9992 N.am    1  UNL1       -0.2803
     19 H          -7.9522  -15.5484   26.4543 H       1  UNL1        0.1552
     20 C          -6.7659  -15.5333   24.6750 C.ar    1  UNL1        0.0505
     21 C          -5.5537  -15.1043   24.1166 C.ar    1  UNL1        0.0147
     22 C          -5.1814  -15.5149   22.8353 C.ar    1  UNL1        0.0012
     23 C          -6.0040  -16.3766   22.1071 C.ar    1  UNL1        0.0039
     24 C          -7.1994  -16.8595   22.6666 C.ar    1  UNL1        0.0726
     25 C          -7.5821  -16.4190   23.9467 C.ar    1  UNL1        0.0185
     26 C          -8.1060  -17.7657   21.8715 C.3     1  UNL1        0.4186
     27 F          -8.5390  -18.8253   22.6497 F       1  UNL1       -0.1659
     28 F          -9.2040  -17.0455   21.4398 F       1  UNL1       -0.1659
     29 F          -7.4439  -18.2812   20.7704 F       1  UNL1       -0.1659
     30 N         -10.9911  -12.0890   31.9635 N.pl3   1  UNL1       -0.2814
     31 H         -11.4267  -11.1406   32.0060 H       1  UNL1        0.1551
     32 C         -12.8807  -14.9501   33.5394 C.ar    1  UNL1        0.0634
     33 C         -12.2330  -15.0063   34.7875 C.ar    1  UNL1        0.0060
     34 C         -11.1930  -14.1284   35.0907 C.ar    1  UNL1        0.0129
     35 C         -10.7821  -13.1708   34.1629 C.ar    1  UNL1        0.0733
     36 CL         -9.4888  -12.0646   34.6084 Cl      1  UNL1       -0.0809
     37 C         -11.4217  -13.0794   32.9144 C.ar    1  UNL1        0.0890
     38 C         -12.4585  -13.9836   32.5997 C.ar    1  UNL1        0.1570
     39 F         -13.0200  -13.9477   31.3633 F       1  UNL1       -0.2027
     40 C         -15.4285  -15.5183   33.4228 C.3     1  UNL1        0.0773
     41 C         -13.9905  -15.8929   33.2203 C.2     1  UNL1        0.1757
     42 O         -13.7344  -17.0314   32.7427 O.2     1  UNL1       -0.2913
@<TRIPOS>BOND
     1    40    41    1
     2    41    42    2
     3    41    32    1
     4    32    33   ar
     5    33    34   ar
     6    34    35   ar
     7    35    36    1
     8    35    37   ar
     9    37    30    1
    10    30     1    1
    11     1     2   ar
    12     2     3   ar
    13     3     4   ar
    14     4     5   ar
    15     5    16    1
    16    16    17    2
    17    16    18   am
    18    18    20    1
    19    20    21   ar
    20    21    22   ar
    21    22    23   ar
    22    23    24   ar
    23    24    26    1
    24    26    27    1
    25    26    28    1
    26    26    29    1
    27    24    25   ar
    28     5     6   ar
    29     6     7   ar
    30     7     8   ar
    31     8     9   ar
    32     9    10    1
    33     7    11    1
    34    11    12    1
    35    12    13    1
    36    12    14    1
    37    12    15    1
    38    37    38   ar
    39    38    39    1
    40    38    32   ar
    41     9     1   ar
    42     8     3   ar
    43    25    20   ar
    44    15     6    1
    45    30    31    1
    46    18    19    1
@<TRIPOS>MOLECULE
*****
 42 46 0 0 0
SMALL
GASTEIGER

@<TRIPOS>ATOM
      1 C          -9.1410  -11.3627   31.5878 C.ar    1  UNL1        0.2018
      2 N          -9.1909  -12.4972   30.8430 N.ar    1  UNL1       -0.2135
      3 C          -8.1427  -12.3587   30.0125 C.ar    1  UNL1        0.0999
      4 C          -7.7439  -13.2385   28.9977 C.ar    1  UNL1        0.0282
      5 C          -6.6304  -12.8824   28.1932 C.ar    1  UNL1        0.0888
      6 C          -5.9694  -11.6617   28.4781 C.ar    1  UNL1        0.1401
      7 C          -6.3757  -10.8240   29.4913 C.ar    1  UNL1        0.0327
      8 C          -7.4836  -11.1847   30.2623 C.ar    1  UNL1        0.0789
      9 N          -8.0934  -10.5462   31.2785 N.ar    1  UNL1       -0.2977
     10 C          -7.7020   -9.2874   31.9129 C.3     1  UNL1        0.1332
     11 C          -5.4891   -9.6295   29.5531 C.3     1  UNL1        0.0709
     12 C          -4.5004   -9.8759   28.3665 C.3     1  UNL1        0.1375
     13 C          -3.0450   -9.9350   28.8492 C.3     1  UNL1        0.0439
     14 C          -4.6603   -8.8056   27.2783 C.3     1  UNL1        0.0439
     15 O          -4.8676  -11.1470   27.8270 O.3     1  UNL1       -0.4824
     16 C          -6.1788  -13.7747   27.1021 C.2     1  UNL1        0.2525
     17 O          -4.9813  -13.7165   26.7098 O.2     1  UNL1       -0.2697
     18 N          -7.0711  -14.7429   26.5274 N.am    1  UNL1       -0.2803
     19 H          -7.8228  -15.1360   27.1378 H       1  UNL1        0.1552
     20 C          -6.9003  -15.3085   25.2163 C.ar    1  UNL1        0.0505
     21 C          -7.9476  -15.2216   24.2884 C.ar    1  UNL1        0.0147
     22 C          -7.8032  -15.7579   23.0076 C.ar    1  UNL1        0.0012
     23 C          -6.6037  -16.3660   22.6318 C.ar    1  UNL1        0.0039
     24 C          -5.5229  -16.4198   23.5286 C.ar    1  UNL1        0.0726
     25 C          -5.6853  -15.9028   24.8268 C.ar    1  UNL1        0.0185
     26 C          -4.2363  -17.1030   23.1373 C.3     1  UNL1        0.4186
     27 F          -3.6814  -17.7553   24.2247 F       1  UNL1       -0.1659
     28 F          -4.4963  -18.0268   22.1424 F       1  UNL1       -0.1659
     29 F          -3.3136  -16.1836   22.6685 F       1  UNL1       -0.1659
     30 N         -10.1265  -11.0754   32.5897 N.pl3   1  UNL1       -0.2814
     31 H          -9.8416  -10.4509   33.3771 H       1  UNL1        0.1551
     32 C         -12.8145  -13.6120   33.3513 C.ar    1  UNL1        0.0634
     33 C         -13.9288  -12.9533   32.7991 C.ar    1  UNL1        0.0060
     34 C         -13.7925  -11.7002   32.2030 C.ar    1  UNL1        0.0129
     35 C         -12.5441  -11.0807   32.1356 C.ar    1  UNL1        0.0733
     36 CL        -12.4206   -9.5155   31.3420 Cl      1  UNL1       -0.0809
     37 C         -11.4099  -11.7219   32.6633 C.ar    1  UNL1        0.0890
     38 C         -11.5530  -12.9796   33.2871 C.ar    1  UNL1        0.1570
     39 F         -10.4716  -13.5606   33.8686 F       1  UNL1       -0.2027
     40 C         -13.3757  -16.1596   33.2015 C.3     1  UNL1        0.0773
     41 C         -12.9670  -14.9507   33.9893 C.2     1  UNL1        0.1757
     42 O         -12.7261  -15.0958   35.2184 O.2     1  UNL1       -0.2913
@<TRIPOS>BOND
     1    40    41    1
     2    41    42    2
     3    41    32    1
     4    32    33   ar
     5    33    34   ar
     6    34    35   ar
     7    35    36    1
     8    35    37   ar
     9    37    30    1
    10    30     1    1
    11     1     2   ar
    12     2     3   ar
    13     3     4   ar
    14     4     5   ar
    15     5    16    1
    16    16    17    2
    17    16    18   am
    18    18    20    1
    19    20    21   ar
    20    21    22   ar
    21    22    23   ar
    22    23    24   ar
    23    24    26    1
    24    26    27    1
    25    26    28    1
    26    26    29    1
    27    24    25   ar
    28     5     6   ar
    29     6     7   ar
    30     7     8   ar
    31     8     9   ar
    32     9    10    1
    33     7    11    1
    34    11    12    1
    35    12    13    1
    36    12    14    1
    37    12    15    1
    38    37    38   ar
    39    38    39    1
    40    38    32   ar
    41     9     1   ar
    42     8     3   ar
    43    25    20   ar
    44    15     6    1
    45    30    31    1
    46    18    19    1
@<TRIPOS>MOLECULE
*****
 42 46 0 0 0
SMALL
GASTEIGER

@<TRIPOS>ATOM
      1 C          -6.7534  -15.4073   26.4100 C.ar    1  UNL1        0.2018
      2 N          -7.9674  -15.4373   27.0179 N.ar    1  UNL1       -0.2135
      3 C          -7.9267  -14.3631   27.8253 C.ar    1  UNL1        0.0999
      4 C          -8.9192  -13.9353   28.7168 C.ar    1  UNL1        0.0282
      5 C          -8.6593  -12.7959   29.5219 C.ar    1  UNL1        0.0888
      6 C          -7.4131  -12.1405   29.3614 C.ar    1  UNL1        0.1401
      7 C          -6.4627  -12.5758   28.4668 C.ar    1  UNL1        0.0327
      8 C          -6.7311  -13.7085   27.6942 C.ar    1  UNL1        0.0789
      9 N          -5.9781  -14.3480   26.7797 N.ar    1  UNL1       -0.2977
     10 C          -4.6533  -13.9729   26.2853 C.3     1  UNL1        0.1332
     11 C          -5.2686  -11.6880   28.5175 C.3     1  UNL1        0.0709
     12 C          -5.6518  -10.6631   29.6352 C.3     1  UNL1        0.1375
     13 C          -5.6530   -9.2238   29.1031 C.3     1  UNL1        0.0439
     14 C          -4.7167  -10.7854   30.8459 C.3     1  UNL1        0.0439
     15 O          -6.9777  -11.0171   30.0332 O.3     1  UNL1       -0.4824
     16 C          -9.6731  -12.3129   30.4860 C.2     1  UNL1        0.2525
     17 O          -9.3529  -11.4364   31.3347 O.2     1  UNL1       -0.2697
     18 N         -11.0278  -12.7877   30.4277 N.am    1  UNL1       -0.2803
     19 H         -11.4046  -13.0740   29.4959 H       1  UNL1        0.1552
     20 C         -11.9361  -12.7522   31.5421 C.ar    1  UNL1        0.0505
     21 C         -12.9800  -11.8164   31.5485 C.ar    1  UNL1        0.0147
     22 C         -13.8779  -11.7667   32.6163 C.ar    1  UNL1        0.0012
     23 C         -13.7573  -12.6657   33.6779 C.ar    1  UNL1        0.0039
     24 C         -12.7493  -13.6450   33.6686 C.ar    1  UNL1        0.0726
     25 C         -11.8309  -13.6708   32.6032 C.ar    1  UNL1        0.0185
     26 C         -12.5966  -14.5980   34.8278 C.3     1  UNL1        0.4186
     27 F         -13.0914  -15.8481   34.4985 F       1  UNL1       -0.1659
     28 F         -11.2569  -14.7137   35.1479 F       1  UNL1       -0.1659
     29 F         -13.2868  -14.1390   35.9366 F       1  UNL1       -0.1659
     30 N          -6.3511  -16.4231   25.4804 N.pl3   1  UNL1       -0.2814
     31 H          -6.3029  -17.4047   25.8343 H       1  UNL1        0.1551
     32 C          -4.1118  -16.3603   22.4438 C.ar    1  UNL1        0.0634
     33 C          -4.9179  -15.6106   21.5672 C.ar    1  UNL1        0.0060
     34 C          -6.1714  -15.1509   21.9692 C.ar    1  UNL1        0.0129
     35 C          -6.6449  -15.4191   23.2540 C.ar    1  UNL1        0.0733
     36 CL         -8.2180  -14.7864   23.7228 Cl      1  UNL1       -0.0809
     37 C          -5.8547  -16.1508   24.1576 C.ar    1  UNL1        0.0890
     38 C          -4.5963  -16.6355   23.7419 C.ar    1  UNL1        0.1570
     39 F          -3.8697  -17.4113   24.5877 F       1  UNL1       -0.2027
     40 C          -2.5100  -18.3048   21.7503 C.3     1  UNL1        0.0773
     41 C          -2.7734  -16.8509   22.0074 C.2     1  UNL1        0.1757
     42 O          -1.8316  -16.0340   21.8197 O.2     1  UNL1       -0.2913
@<TRIPOS>BOND
     1    40    41    1
     2    41    42    2
     3    41    32    1
     4    32    33   ar
     5    33    34   ar
     6    34    35   ar
     7    35    36    1
     8    35    37   ar
     9    37    30    1
    10    30     1    1
    11     1     2   ar
    12     2     3   ar
    13     3     4   ar
    14     4     5   ar
    15     5    16    1
    16    16    17    2
    17    16    18   am
    18    18    20    1
    19    20    21   ar
    20    21    22   ar
    21    22    23   ar
    22    23    24   ar
    23    24    26    1
    24    26    27    1
    25    26    28    1
    26    26    29    1
    27    24    25   ar
    28     5     6   ar
    29     6     7   ar
    30     7     8   ar
    31     8     9   ar
    32     9    10    1
    33     7    11    1
    34    11    12    1
    35    12    13    1
    36    12    14    1
    37    12    15    1
    38    37    38   ar
    39    38    39    1
    40    38    32   ar
    41     9     1   ar
    42     8     3   ar
    43    25    20   ar
    44    15     6    1
    45    30    31    1
    46    18    19    1
@<TRIPOS>MOLECULE
*****
 42 46 0 0 0
SMALL
GASTEIGER

@<TRIPOS>ATOM
      1 C         -10.3606   -8.7976   31.1310 C.ar    1  UNL1        0.2018
      2 N          -9.6807   -9.3633   30.1006 N.ar    1  UNL1       -0.2135
      3 C         -10.0057  -10.6638   30.2030 C.ar    1  UNL1        0.0999
      4 C          -9.5492  -11.7170   29.3996 C.ar    1  UNL1        0.0282
      5 C          -9.9764  -13.0352   29.7059 C.ar    1  UNL1        0.0888
      6 C         -10.8616  -13.2085   30.7988 C.ar    1  UNL1        0.1401
      7 C         -11.3045  -12.1526   31.5617 C.ar    1  UNL1        0.0327
      8 C         -10.8605  -10.8641   31.2539 C.ar    1  UNL1        0.0789
      9 N         -11.1151   -9.6816   31.8446 N.ar    1  UNL1       -0.2977
     10 C         -12.0120   -9.4132   32.9688 C.3     1  UNL1        0.1332
     11 C         -12.2234  -12.6413   32.6263 C.3     1  UNL1        0.0709
     12 C         -12.2216  -14.1883   32.3958 C.3     1  UNL1        0.1375
     13 C         -13.6334  -14.7164   32.1085 C.3     1  UNL1        0.0439
     14 C         -11.6066  -14.9279   33.5916 C.3     1  UNL1        0.0439
     15 O         -11.3996  -14.3975   31.2460 O.3     1  UNL1       -0.4824
     16 C          -9.5120  -14.1810   28.8923 C.2     1  UNL1        0.2525
     17 O          -9.4747  -15.3319   29.4075 O.2     1  UNL1       -0.2697
     18 N          -9.1600  -14.0067   27.5105 N.am    1  UNL1       -0.2803
     19 H          -9.6456  -13.2520   26.9749 H       1  UNL1        0.1552
     20 C          -8.2940  -14.8985   26.7873 C.ar    1  UNL1        0.0505
     21 C          -7.0440  -15.2315   27.3277 C.ar    1  UNL1        0.0147
     22 C          -6.1886  -16.0998   26.6472 C.ar    1  UNL1        0.0012
     23 C          -6.5812  -16.6631   25.4313 C.ar    1  UNL1        0.0039
     24 C          -7.8499  -16.3831   24.8954 C.ar    1  UNL1        0.0726
     25 C          -8.6952  -15.4851   25.5724 C.ar    1  UNL1        0.0185
     26 C          -8.2658  -16.9650   23.5673 C.3     1  UNL1        0.4186
     27 F          -9.0841  -18.0658   23.7532 F       1  UNL1       -0.1659
     28 F          -8.9553  -16.0075   22.8473 F       1  UNL1       -0.1659
     29 F          -7.1599  -17.3675   22.8383 F       1  UNL1       -0.1659
     30 N         -10.2585   -7.3967   31.4221 N.pl3   1  UNL1       -0.2814
     31 H         -11.1269   -6.9075   31.7347 H       1  UNL1        0.1551
     32 C          -6.6661   -6.2492   31.2895 C.ar    1  UNL1        0.0634
     33 C          -6.8279   -5.0348   30.5971 C.ar    1  UNL1        0.0060
     34 C          -8.0901   -4.6168   30.1772 C.ar    1  UNL1        0.0129
     35 C          -9.2181   -5.3930   30.4453 C.ar    1  UNL1        0.0733
     36 CL        -10.7915   -4.8033   29.9244 Cl      1  UNL1       -0.0809
     37 C          -9.0898   -6.6025   31.1503 C.ar    1  UNL1        0.0890
     38 C          -7.8091   -7.0359   31.5543 C.ar    1  UNL1        0.1570
     39 F          -7.6766   -8.2431   32.1628 F       1  UNL1       -0.2027
     40 C          -5.0956   -7.3542   33.0617 C.3     1  UNL1        0.0773
     41 C          -5.3137   -6.6918   31.7340 C.2     1  UNL1        0.1757
     42 O          -4.3177   -6.5365   30.9765 O.2     1  UNL1       -0.2913
@<TRIPOS>BOND
     1    40    41    1
     2    41    42    2
     3    41    32    1
     4    32    33   ar
     5    33    34   ar
     6    34    35   ar
     7    35    36    1
     8    35    37   ar
     9    37    30    1
    10    30     1    1
    11     1     2   ar
    12     2     3   ar
    13     3     4   ar
    14     4     5   ar
    15     5    16    1
    16    16    17    2
    17    16    18   am
    18    18    20    1
    19    20    21   ar
    20    21    22   ar
    21    22    23   ar
    22    23    24   ar
    23    24    26    1
    24    26    27    1
    25    26    28    1
    26    26    29    1
    27    24    25   ar
    28     5     6   ar
    29     6     7   ar
    30     7     8   ar
    31     8     9   ar
    32     9    10    1
    33     7    11    1
    34    11    12    1
    35    12    13    1
    36    12    14    1
    37    12    15    1
    38    37    38   ar
    39    38    39    1
    40    38    32   ar
    41     9     1   ar
    42     8     3   ar
    43    25    20   ar
    44    15     6    1
    45    30    31    1
    46    18    19    1
@<TRIPOS>MOLECULE
*****
 42 46 0 0 0
SMALL
GASTEIGER

@<TRIPOS>ATOM
      1 C          -6.8558  -14.9412   27.3315 C.ar    1  UNL1        0.2018
      2 N          -6.1282  -13.8044   27.4819 N.ar    1  UNL1       -0.2135
      3 C          -6.8822  -13.0729   28.3208 C.ar    1  UNL1        0.0999
      4 C          -6.6162  -11.7799   28.7901 C.ar    1  UNL1        0.0282
      5 C          -7.5708  -11.1581   29.6364 C.ar    1  UNL1        0.0888
      6 C          -8.7336  -11.8928   29.9771 C.ar    1  UNL1        0.1401
      7 C          -8.9611  -13.1676   29.5119 C.ar    1  UNL1        0.0327
      8 C          -8.0168  -13.7569   28.6674 C.ar    1  UNL1        0.0789
      9 N          -8.0068  -14.9595   28.0627 N.ar    1  UNL1       -0.2977
     10 C          -8.9891  -16.0364   28.1876 C.3     1  UNL1        0.1332
     11 C         -10.2539  -13.6818   30.0419 C.3     1  UNL1        0.0709
     12 C         -10.7870  -12.4711   30.8764 C.3     1  UNL1        0.1375
     13 C         -10.9991  -12.8513   32.3479 C.3     1  UNL1        0.0439
     14 C         -12.0834  -11.9101   30.2764 C.3     1  UNL1        0.0439
     15 O          -9.7657  -11.4755   30.7917 O.3     1  UNL1       -0.4824
     16 C          -7.3386   -9.7888   30.1481 C.2     1  UNL1        0.2525
     17 O          -7.0427   -9.6235   31.3631 O.2     1  UNL1       -0.2697
     18 N          -7.3894   -8.6560   29.2661 N.am    1  UNL1       -0.2803
     19 H          -7.1266   -8.8047   28.2655 H       1  UNL1        0.1552
     20 C          -7.6352   -7.3095   29.7073 C.ar    1  UNL1        0.0505
     21 C          -6.5514   -6.4927   30.0588 C.ar    1  UNL1        0.0147
     22 C          -6.7644   -5.1803   30.4843 C.ar    1  UNL1        0.0012
     23 C          -8.0597   -4.6618   30.5413 C.ar    1  UNL1        0.0039
     24 C          -9.1568   -5.4460   30.1457 C.ar    1  UNL1        0.0726
     25 C          -8.9373   -6.7766   29.7452 C.ar    1  UNL1        0.0185
     26 C         -10.5602   -4.9001   30.2351 C.3     1  UNL1        0.4186
     27 F         -10.6461   -3.6726   29.6014 F       1  UNL1       -0.1659
     28 F         -11.4313   -5.7836   29.6257 F       1  UNL1       -0.1659
     29 F         -10.9397   -4.7317   31.5557 F       1  UNL1       -0.1659
     30 N          -6.4289  -15.9993   26.4620 N.pl3   1  UNL1       -0.2814
     31 H          -6.1007  -16.8843   26.9094 H       1  UNL1        0.1551
     32 C          -4.8917  -16.0249   23.0159 C.ar    1  UNL1        0.0634
     33 C          -5.9893  -15.5718   22.2606 C.ar    1  UNL1        0.0060
     34 C          -7.2054  -15.2786   22.8764 C.ar    1  UNL1        0.0129
     35 C          -7.3523  -15.4209   24.2566 C.ar    1  UNL1        0.0733
     36 CL         -8.8969  -15.0042   24.9882 Cl      1  UNL1       -0.0809
     37 C          -6.2684  -15.8551   25.0394 C.ar    1  UNL1        0.0890
     38 C          -5.0451  -16.1738   24.4122 C.ar    1  UNL1        0.1570
     39 F          -4.0247  -16.6709   25.1584 F       1  UNL1       -0.2027
     40 C          -3.0571  -17.7376   22.2889 C.3     1  UNL1        0.0773
     41 C          -3.5946  -16.3390   22.3515 C.2     1  UNL1        0.1757
     42 O          -2.9292  -15.4212   21.7996 O.2     1  UNL1       -0.2913
@<TRIPOS>BOND
     1    40    41    1
     2    41    42    2
     3    41    32    1
     4    32    33   ar
     5    33    34   ar
     6    34    35   ar
     7    35    36    1
     8    35    37   ar
     9    37    30    1
    10    30     1    1
    11     1     2   ar
    12     2     3   ar
    13     3     4   ar
    14     4     5   ar
    15     5    16    1
    16    16    17    2
    17    16    18   am
    18    18    20    1
    19    20    21   ar
    20    21    22   ar
    21    22    23   ar
    22    23    24   ar
    23    24    26    1
    24    26    27    1
    25    26    28    1
    26    26    29    1
    27    24    25   ar
    28     5     6   ar
    29     6     7   ar
    30     7     8   ar
    31     8     9   ar
    32     9    10    1
    33     7    11    1
    34    11    12    1
    35    12    13    1
    36    12    14    1
    37    12    15    1
    38    37    38   ar
    39    38    39    1
    40    38    32   ar
    41     9     1   ar
    42     8     3   ar
    43    25    20   ar
    44    15     6    1
    45    30    31    1
    46    18    19    1
