@<TRIPOS>MOLECULE
*****
 52 58 0 0 0
SMALL
GASTEIGER

@<TRIPOS>ATOM
      1 C          60.8575   86.5487   11.0202 C.ar    1  UNL1        0.0504
      2 C          62.1127   86.1922   11.5323 C.ar    1  UNL1        0.0178
      3 C          62.2137   85.5301   12.7577 C.ar    1  UNL1        0.0405
      4 C          61.0683   85.2097   13.4962 C.ar    1  UNL1        0.1660
      5 C          59.8011   85.5738   12.9862 C.ar    1  UNL1        0.1750
      6 F          58.6553   85.3039   13.6580 F       1  UNL1       -0.2009
      7 C          59.7048   86.2372   11.7583 C.ar    1  UNL1        0.0473
      8 N          60.0203   88.5469    7.4243 N.pl3   1  UNL1       -0.3041
      9 C          59.8599   87.0885    7.4721 C.3     1  UNL1        0.1122
     10 C          60.8233   86.4839    8.4965 C.3     1  UNL1        0.1122
     11 N          60.7595   87.2334    9.7571 N.pl3   1  UNL1       -0.3040
     12 C          60.9279   88.6903    9.6977 C.3     1  UNL1        0.1122
     13 C          59.9469   89.2863    8.6900 C.3     1  UNL1        0.1122
     14 C          59.7513   90.6195    3.7092 C.ar    1  UNL1        0.0699
     15 C          58.6286   90.5123    4.5476 C.ar    1  UNL1        0.0190
     16 C          58.7139   89.8313    5.7651 C.ar    1  UNL1        0.0160
     17 C          59.9262   89.2516    6.1719 C.ar    1  UNL1        0.0480
     18 C          61.0500   89.3629    5.3394 C.ar    1  UNL1        0.0160
     19 C          60.9648   90.0419    4.1207 C.ar    1  UNL1        0.0190
     20 N          60.1059   92.5818    0.6782 N.ar    1  UNL1       -0.2024
     21 N          58.8854   92.0953    0.5039 N.ar    1  UNL1       -0.1442
     22 C          58.6197   91.3373    1.5901 C.ar    1  UNL1        0.2073
     23 N          59.6581   91.3264    2.4570 N.ar    1  UNL1       -0.2398
     24 C          60.5726   92.1057    1.8464 C.ar    1  UNL1        0.3522
     25 O          61.7329   92.3264    2.2875 O.2     1  UNL1       -0.2444
     26 C          60.8229   93.4041   -0.3016 C.3     1  UNL1        0.1099
     27 C          60.0061   93.4955   -1.5973 C.3     1  UNL1        0.0265
     28 C          62.4799   92.4503   -2.0012 C.3     1  UNL1        0.0021
     29 C          62.2258   92.8105   -0.5374 C.3     1  UNL1        0.0245
     30 O          61.2514   84.5356   14.7147 O.3     1  UNL1       -0.4705
     31 C          62.2018   83.5011   14.9537 C.3     1  UNL1        0.2375
     32 C          61.7399   82.2054   14.2833 C.3     1  UNL1        0.1909
     33 C          62.8927   81.3402   13.8301 C.3     1  UNL1        0.1783
     34 O          62.8124   81.2602   12.4433 O.3     1  UNL1       -0.3271
     35 C          61.5262   81.7297   12.0949 C.3     1  UNL1        0.2232
     36 O          61.0012   82.5157   13.1423 O.3     1  UNL1       -0.3258
     37 C          60.5860   80.5545   11.8024 C.ar    1  UNL1        0.0404
     38 C          59.3654   80.4447   12.5045 C.ar    1  UNL1        0.0021
     39 C          58.4978   79.3755   12.2748 C.ar    1  UNL1        0.0113
     40 C          58.8353   78.3838   11.3554 C.ar    1  UNL1        0.0585
     41 CL         57.7432   77.0406   11.0718 Cl      1  UNL1       -0.0822
     42 C          60.0497   78.4536   10.6719 C.ar    1  UNL1        0.0226
     43 C          60.9316   79.5192   10.8917 C.ar    1  UNL1        0.0591
     44 CL         62.4621   79.4832   10.0171 Cl      1  UNL1       -0.0824
     45 C          61.6680   82.5932   10.8276 C.3     1  UNL1        0.1338
     46 N          60.5149   82.3693    9.9243 N.3     1  UNL1       -0.2659
     47 C          59.3783   83.2498   10.2655 C.3     1  UNL1        0.0898
     48 C          58.2908   83.2556    9.1659 C.3     1  UNL1        0.0897
     49 N          58.4065   82.1112    8.2411 N.3     1  UNL1       -0.2691
     50 C          58.0162   80.8419    8.8807 C.3     1  UNL1        0.0897
     51 C          59.7409   82.0398    7.6005 C.3     1  UNL1        0.0897
     52 C          60.8837   82.5357    8.5089 C.3     1  UNL1        0.0898
@<TRIPOS>BOND
     1    28    29    1
     2    29    26    1
     3    26    27    1
     4    26    20    1
     5    20    21   ar
     6    21    22   ar
     7    22    23   ar
     8    23    14    1
     9    14    15   ar
    10    15    16   ar
    11    16    17   ar
    12    17     8    1
    13     8     9    1
    14     9    10    1
    15    10    11    1
    16    11     1    1
    17     1     2   ar
    18     2     3   ar
    19     3     4   ar
    20     4    30    1
    21    30    31    1
    22    31    32    1
    23    32    33    1
    24    33    34    1
    25    34    35    1
    26    35    45    1
    27    45    46    1
    28    46    47    1
    29    47    48    1
    30    48    49    1
    31    49    50    1
    32    49    51    1
    33    51    52    1
    34    35    37    1
    35    37    38   ar
    36    38    39   ar
    37    39    40   ar
    38    40    41    1
    39    40    42   ar
    40    42    43   ar
    41    43    44    1
    42    35    36    1
    43     4     5   ar
    44     5     6    1
    45     5     7   ar
    46    11    12    1
    47    12    13    1
    48    17    18   ar
    49    18    19   ar
    50    23    24   ar
    51    24    25    2
    52    24    20   ar
    53    19    14   ar
    54    13     8    1
    55     7     1   ar
    56    36    32    1
    57    52    46    1
    58    43    37   ar
@<TRIPOS>MOLECULE
*****
 52 58 0 0 0
SMALL
GASTEIGER

@<TRIPOS>ATOM
      1 C          60.8724   86.6289   10.8209 C.ar    1  UNL1        0.0504
      2 C          62.1145   86.2418   11.3426 C.ar    1  UNL1        0.0178
      3 C          62.1899   85.5798   12.5700 C.ar    1  UNL1        0.0405
      4 C          61.0316   85.2899   13.3007 C.ar    1  UNL1        0.1660
      5 C          59.7777   85.6849   12.7810 C.ar    1  UNL1        0.1750
      6 F          58.6207   85.4454   13.4451 F       1  UNL1       -0.2009
      7 C          59.7069   86.3481   11.5513 C.ar    1  UNL1        0.0473
      8 N          60.1283   88.7215    7.2583 N.pl3   1  UNL1       -0.3041
      9 C          59.7250   87.3126    7.3436 C.3     1  UNL1        0.1122
     10 C          60.6432   86.5571    8.3076 C.3     1  UNL1        0.1122
     11 N          60.8007   87.3133    9.5559 N.pl3   1  UNL1       -0.3040
     12 C          61.2107   88.7194    9.4585 C.3     1  UNL1        0.1122
     13 C          60.2749   89.4695    8.5126 C.3     1  UNL1        0.1122
     14 C          59.9317   90.8180    3.5521 C.ar    1  UNL1        0.0699
     15 C          61.1029   90.1355    3.9228 C.ar    1  UNL1        0.0190
     16 C          61.1704   89.4494    5.1385 C.ar    1  UNL1        0.0160
     17 C          60.0646   89.4251    6.0034 C.ar    1  UNL1        0.0480
     18 C          58.8923   90.1004    5.6325 C.ar    1  UNL1        0.0160
     19 C          58.8248   90.7887    4.4179 C.ar    1  UNL1        0.0190
     20 N          59.8242   92.0160    0.1292 N.ar    1  UNL1       -0.2024
     21 N          59.6629   93.1566    0.7845 N.ar    1  UNL1       -0.1442
     22 C          59.6938   92.8475    2.0992 C.ar    1  UNL1        0.2073
     23 N          59.8670   91.5203    2.2956 N.ar    1  UNL1       -0.2398
     24 C          59.9320   91.0328    1.0407 C.ar    1  UNL1        0.3522
     25 O          60.0353   89.8095    0.7532 O.2     1  UNL1       -0.2444
     26 C          59.7816   91.8802   -1.3302 C.3     1  UNL1        0.1099
     27 C          60.9477   92.6564   -1.9565 C.3     1  UNL1        0.0265
     28 C          57.2737   91.4062   -1.5035 C.3     1  UNL1        0.0021
     29 C          58.4133   92.3650   -1.8486 C.3     1  UNL1        0.0245
     30 O          61.1890   84.6138   14.5218 O.3     1  UNL1       -0.4705
     31 C          62.1425   83.5877   14.7829 C.3     1  UNL1        0.2375
     32 C          61.6829   82.2756   14.1435 C.3     1  UNL1        0.1909
     33 C          62.8371   81.3883   13.7389 C.3     1  UNL1        0.1783
     34 O          62.7823   81.2666   12.3539 O.3     1  UNL1       -0.3271
     35 C          61.5067   81.7349   11.9668 C.3     1  UNL1        0.2232
     36 O          60.9685   82.5564   12.9796 O.3     1  UNL1       -0.3258
     37 C          60.5628   80.5583   11.6923 C.ar    1  UNL1        0.0404
     38 C          59.3249   80.4833   12.3681 C.ar    1  UNL1        0.0021
     39 C          58.4529   79.4143   12.1544 C.ar    1  UNL1        0.0113
     40 C          58.8029   78.3886   11.2780 C.ar    1  UNL1        0.0585
     41 CL         57.7053   77.0458   11.0145 Cl      1  UNL1       -0.0822
     42 C          60.0338   78.4244   10.6220 C.ar    1  UNL1        0.0226
     43 C          60.9202   79.4893   10.8262 C.ar    1  UNL1        0.0591
     44 CL         62.4706   79.4100    9.9905 Cl      1  UNL1       -0.0824
     45 C          61.6794   82.5581   10.6768 C.3     1  UNL1        0.1338
     46 N          60.5130   82.3615    9.7844 N.3     1  UNL1       -0.2659
     47 C          59.4247   83.3114   10.0952 C.3     1  UNL1        0.0898
     48 C          58.3349   83.3335    8.9981 C.3     1  UNL1        0.0897
     49 N          58.3879   82.1517    8.1156 N.3     1  UNL1       -0.2691
     50 C          57.9349   80.9285    8.8018 C.3     1  UNL1        0.0897
     51 C          59.7144   81.9881    7.4756 C.3     1  UNL1        0.0897
     52 C          60.8846   82.4569    8.3632 C.3     1  UNL1        0.0898
@<TRIPOS>BOND
     1    28    29    1
     2    29    26    1
     3    26    27    1
     4    26    20    1
     5    20    21   ar
     6    21    22   ar
     7    22    23   ar
     8    23    14    1
     9    14    15   ar
    10    15    16   ar
    11    16    17   ar
    12    17     8    1
    13     8     9    1
    14     9    10    1
    15    10    11    1
    16    11     1    1
    17     1     2   ar
    18     2     3   ar
    19     3     4   ar
    20     4    30    1
    21    30    31    1
    22    31    32    1
    23    32    33    1
    24    33    34    1
    25    34    35    1
    26    35    45    1
    27    45    46    1
    28    46    47    1
    29    47    48    1
    30    48    49    1
    31    49    50    1
    32    49    51    1
    33    51    52    1
    34    35    37    1
    35    37    38   ar
    36    38    39   ar
    37    39    40   ar
    38    40    41    1
    39    40    42   ar
    40    42    43   ar
    41    43    44    1
    42    35    36    1
    43     4     5   ar
    44     5     6    1
    45     5     7   ar
    46    11    12    1
    47    12    13    1
    48    17    18   ar
    49    18    19   ar
    50    23    24   ar
    51    24    25    2
    52    24    20   ar
    53    19    14   ar
    54    13     8    1
    55     7     1   ar
    56    36    32    1
    57    52    46    1
    58    43    37   ar
@<TRIPOS>MOLECULE
*****
 52 58 0 0 0
SMALL
GASTEIGER

@<TRIPOS>ATOM
      1 C          59.9676   86.1632   10.2708 C.ar    1  UNL1        0.0504
      2 C          61.1270   85.8783   11.0054 C.ar    1  UNL1        0.0178
      3 C          61.0505   85.1384   12.1874 C.ar    1  UNL1        0.0405
      4 C          59.8198   84.6676   12.6602 C.ar    1  UNL1        0.1660
      5 C          58.6476   84.9588   11.9257 C.ar    1  UNL1        0.1750
      6 F          57.4246   84.5430   12.3362 F       1  UNL1       -0.2009
      7 C          58.7290   85.7005   10.7425 C.ar    1  UNL1        0.0473
      8 N          59.7855   88.6907    6.9238 N.pl3   1  UNL1       -0.3041
      9 C          58.8420   87.5694    7.0104 C.3     1  UNL1        0.1122
     10 C          59.4587   86.4200    7.8113 C.3     1  UNL1        0.1122
     11 N          60.0521   86.9286    9.0539 N.pl3   1  UNL1       -0.3040
     12 C          60.9992   88.0455    8.9543 C.3     1  UNL1        0.1122
     13 C          60.3664   89.1956    8.1735 C.3     1  UNL1        0.1122
     14 C          60.0933   90.9815    3.3422 C.ar    1  UNL1        0.0699
     15 C          58.8785   90.9201    4.0460 C.ar    1  UNL1        0.0190
     16 C          58.7746   90.1678    5.2192 C.ar    1  UNL1        0.0160
     17 C          59.8863   89.4692    5.7164 C.ar    1  UNL1        0.0480
     18 C          61.1019   89.5342    5.0190 C.ar    1  UNL1        0.0160
     19 C          61.2059   90.2844    3.8443 C.ar    1  UNL1        0.0190
     20 N          60.3226   92.3924    0.0076 N.ar    1  UNL1       -0.2024
     21 N          60.3213   93.5008    0.7341 N.ar    1  UNL1       -0.1442
     22 C          60.2474   93.1093    2.0249 C.ar    1  UNL1        0.2073
     23 N          60.1951   91.7620    2.1353 N.ar    1  UNL1       -0.2398
     24 C          60.2320   91.3499    0.8526 C.ar    1  UNL1        0.3522
     25 O          60.1477   90.1467    0.4854 O.2     1  UNL1       -0.2444
     26 C          60.3189   92.3570   -1.4583 C.3     1  UNL1        0.1099
     27 C          61.4572   93.2318   -2.0001 C.3     1  UNL1        0.0265
     28 C          57.8303   91.8025   -1.6679 C.3     1  UNL1        0.0021
     29 C          58.9392   92.8085   -1.9766 C.3     1  UNL1        0.0245
     30 O          59.8261   83.9233   13.8514 O.3     1  UNL1       -0.4705
     31 C          59.8649   82.5015   13.9389 C.3     1  UNL1        0.2375
     32 C          59.2669   81.8859   12.6720 C.3     1  UNL1        0.1909
     33 C          58.8700   80.4399   12.8578 C.3     1  UNL1        0.1783
     34 O          59.6692   79.6917   11.9989 O.3     1  UNL1       -0.3271
     35 C          60.2545   80.6130   11.1018 C.3     1  UNL1        0.2232
     36 O          60.2196   81.9106   11.6544 O.3     1  UNL1       -0.3258
     37 C          59.5161   80.5978    9.7582 C.ar    1  UNL1        0.0404
     38 C          58.4446   79.6994    9.5598 C.ar    1  UNL1        0.0021
     39 C          57.7659   79.6480    8.3410 C.ar    1  UNL1        0.0113
     40 C          58.1514   80.4764    7.2885 C.ar    1  UNL1        0.0585
     41 CL         57.2973   80.4067    5.7578 Cl      1  UNL1       -0.0822
     42 C          59.2267   81.3507    7.4498 C.ar    1  UNL1        0.0226
     43 C          59.9186   81.4136    8.6659 C.ar    1  UNL1        0.0591
     44 CL         61.2949   82.5126    8.7462 Cl      1  UNL1       -0.0824
     45 C          61.7184   80.1892   10.8808 C.3     1  UNL1        0.1338
     46 N          62.6306   81.0990   11.6126 N.3     1  UNL1       -0.2659
     47 C          63.0476   80.5240   12.9083 C.3     1  UNL1        0.0898
     48 C          64.2227   81.3027   13.5441 C.3     1  UNL1        0.0897
     49 N          64.4000   82.6469   12.9611 N.3     1  UNL1       -0.2691
     50 C          63.3253   83.5711   13.3654 C.3     1  UNL1        0.0897
     51 C          64.5895   82.6010   11.4920 C.3     1  UNL1        0.0897
     52 C          63.8106   81.4589   10.8094 C.3     1  UNL1        0.0898
@<TRIPOS>BOND
     1    28    29    1
     2    29    26    1
     3    26    27    1
     4    26    20    1
     5    20    21   ar
     6    21    22   ar
     7    22    23   ar
     8    23    14    1
     9    14    15   ar
    10    15    16   ar
    11    16    17   ar
    12    17     8    1
    13     8     9    1
    14     9    10    1
    15    10    11    1
    16    11     1    1
    17     1     2   ar
    18     2     3   ar
    19     3     4   ar
    20     4    30    1
    21    30    31    1
    22    31    32    1
    23    32    33    1
    24    33    34    1
    25    34    35    1
    26    35    45    1
    27    45    46    1
    28    46    47    1
    29    47    48    1
    30    48    49    1
    31    49    50    1
    32    49    51    1
    33    51    52    1
    34    35    37    1
    35    37    38   ar
    36    38    39   ar
    37    39    40   ar
    38    40    41    1
    39    40    42   ar
    40    42    43   ar
    41    43    44    1
    42    35    36    1
    43     4     5   ar
    44     5     6    1
    45     5     7   ar
    46    11    12    1
    47    12    13    1
    48    17    18   ar
    49    18    19   ar
    50    23    24   ar
    51    24    25    2
    52    24    20   ar
    53    19    14   ar
    54    13     8    1
    55     7     1   ar
    56    36    32    1
    57    52    46    1
    58    43    37   ar
@<TRIPOS>MOLECULE
*****
 52 58 0 0 0
SMALL
GASTEIGER

@<TRIPOS>ATOM
      1 C          60.6635   86.3531   10.3599 C.ar    1  UNL1        0.0504
      2 C          61.8789   86.1850   11.0378 C.ar    1  UNL1        0.0178
      3 C          61.9279   85.4618   12.2314 C.ar    1  UNL1        0.0405
      4 C          60.7695   84.8917   12.7726 C.ar    1  UNL1        0.1660
      5 C          59.5408   85.0649   12.0953 C.ar    1  UNL1        0.1750
      6 F          58.3820   84.5493   12.5731 F       1  UNL1       -0.2009
      7 C          59.4963   85.7904   10.9001 C.ar    1  UNL1        0.0473
      8 N          60.0167   88.6857    6.9299 N.pl3   1  UNL1       -0.3041
      9 C          59.4608   87.3276    6.9718 C.3     1  UNL1        0.1122
     10 C          60.3262   86.4292    7.8589 C.3     1  UNL1        0.1122
     11 N          60.6183   87.1018    9.1306 N.pl3   1  UNL1       -0.3040
     12 C          61.1801   88.4569    9.0762 C.3     1  UNL1        0.1122
     13 C          60.2974   89.3510    8.2076 C.3     1  UNL1        0.1122
     14 C          59.9244   90.9412    3.3141 C.ar    1  UNL1        0.0699
     15 C          58.7595   90.7816    4.0837 C.ar    1  UNL1        0.0190
     16 C          58.7868   90.0407    5.2683 C.ar    1  UNL1        0.0160
     17 C          59.9821   89.4520    5.7111 C.ar    1  UNL1        0.0480
     18 C          61.1478   89.6153    4.9477 C.ar    1  UNL1        0.0160
     19 C          61.1206   90.3543    3.7617 C.ar    1  UNL1        0.0190
     20 N          59.5752   92.3637   -0.0052 N.ar    1  UNL1       -0.2024
     21 N          60.0913   93.3983    0.6427 N.ar    1  UNL1       -0.1442
     22 C          60.2833   92.9918    1.9166 C.ar    1  UNL1        0.2073
     23 N          59.8906   91.7097    2.0957 N.ar    1  UNL1       -0.2398
     24 C          59.4427   91.3553    0.8749 C.ar    1  UNL1        0.3522
     25 O          58.9244   90.2394    0.5996 O.2     1  UNL1       -0.2444
     26 C          59.1428   92.3893   -1.4061 C.3     1  UNL1        0.1099
     27 C          58.9550   93.8419   -1.8634 C.3     1  UNL1        0.0265
     28 C          56.6420   92.4080   -1.9448 C.3     1  UNL1        0.0021
     29 C          57.8530   91.5590   -1.5577 C.3     1  UNL1        0.0245
     30 O          60.9017   84.1716   13.9712 O.3     1  UNL1       -0.4705
     31 C          62.0994   83.5588   14.4410 C.3     1  UNL1        0.2375
     32 C          62.3598   82.2648   13.6668 C.3     1  UNL1        0.1909
     33 C          63.6598   82.2971   12.8975 C.3     1  UNL1        0.1783
     34 O          63.3292   82.2102   11.5486 O.3     1  UNL1       -0.3271
     35 C          61.9786   81.7985   11.4992 C.3     1  UNL1        0.2232
     36 O          61.3455   82.0778   12.7287 O.3     1  UNL1       -0.3258
     37 C          61.8847   80.2992   11.1924 C.ar    1  UNL1        0.0404
     38 C          62.6355   79.7557   10.1268 C.ar    1  UNL1        0.0021
     39 C          62.5558   78.3984    9.8103 C.ar    1  UNL1        0.0113
     40 C          61.7134   77.5577   10.5358 C.ar    1  UNL1        0.0585
     41 CL         61.6145   75.8532   10.1330 Cl      1  UNL1       -0.0822
     42 C          60.9383   78.0769   11.5732 C.ar    1  UNL1        0.0226
     43 C          61.0060   79.4365   11.9026 C.ar    1  UNL1        0.0591
     44 CL         59.9456   79.9997   13.1937 Cl      1  UNL1       -0.0824
     45 C          61.2863   82.5906   10.3745 C.3     1  UNL1        0.1338
     46 N          60.1587   81.8077    9.8167 N.3     1  UNL1       -0.2659
     47 C          58.8739   82.5217    9.9681 C.3     1  UNL1        0.0898
     48 C          57.7429   81.8766    9.1336 C.3     1  UNL1        0.0897
     49 N          58.0594   80.4985    8.7103 N.3     1  UNL1       -0.2691
     50 C          58.0205   79.5509    9.8385 C.3     1  UNL1        0.0897
     51 C          59.3269   80.4231    7.9462 C.3     1  UNL1        0.0897
     52 C          60.3814   81.4494    8.4064 C.3     1  UNL1        0.0898
@<TRIPOS>BOND
     1    28    29    1
     2    29    26    1
     3    26    27    1
     4    26    20    1
     5    20    21   ar
     6    21    22   ar
     7    22    23   ar
     8    23    14    1
     9    14    15   ar
    10    15    16   ar
    11    16    17   ar
    12    17     8    1
    13     8     9    1
    14     9    10    1
    15    10    11    1
    16    11     1    1
    17     1     2   ar
    18     2     3   ar
    19     3     4   ar
    20     4    30    1
    21    30    31    1
    22    31    32    1
    23    32    33    1
    24    33    34    1
    25    34    35    1
    26    35    45    1
    27    45    46    1
    28    46    47    1
    29    47    48    1
    30    48    49    1
    31    49    50    1
    32    49    51    1
    33    51    52    1
    34    35    37    1
    35    37    38   ar
    36    38    39   ar
    37    39    40   ar
    38    40    41    1
    39    40    42   ar
    40    42    43   ar
    41    43    44    1
    42    35    36    1
    43     4     5   ar
    44     5     6    1
    45     5     7   ar
    46    11    12    1
    47    12    13    1
    48    17    18   ar
    49    18    19   ar
    50    23    24   ar
    51    24    25    2
    52    24    20   ar
    53    19    14   ar
    54    13     8    1
    55     7     1   ar
    56    36    32    1
    57    52    46    1
    58    43    37   ar
@<TRIPOS>MOLECULE
*****
 52 58 0 0 0
SMALL
GASTEIGER

@<TRIPOS>ATOM
      1 C          60.0171   86.2310   10.3374 C.ar    1  UNL1        0.0504
      2 C          61.1667   85.9219   11.0776 C.ar    1  UNL1        0.0178
      3 C          61.0654   85.2152   12.2778 C.ar    1  UNL1        0.0405
      4 C          59.8193   84.8020   12.7637 C.ar    1  UNL1        0.1660
      5 C          58.6571   85.1179   12.0235 C.ar    1  UNL1        0.1750
      6 F          57.4204   84.7580   12.4457 F       1  UNL1       -0.2009
      7 C          58.7632   85.8263   10.8220 C.ar    1  UNL1        0.0473
      8 N          59.8781   88.6334    6.8974 N.pl3   1  UNL1       -0.3041
      9 C          59.0107   87.4509    6.9649 C.3     1  UNL1        0.1122
     10 C          59.6522   86.3740    7.8433 C.3     1  UNL1        0.1122
     11 N          60.1272   86.9621    9.1017 N.pl3   1  UNL1       -0.3040
     12 C          60.9992   88.1401    9.0216 C.3     1  UNL1        0.1122
     13 C          60.3403   89.2173    8.1622 C.3     1  UNL1        0.1122
     14 C          60.2390   90.8546    3.2773 C.ar    1  UNL1        0.0699
     15 C          61.3236   90.1052    3.7639 C.ar    1  UNL1        0.0190
     16 C          61.2083   89.3780    4.9518 C.ar    1  UNL1        0.0160
     17 C          60.0029   89.3790    5.6717 C.ar    1  UNL1        0.0480
     18 C          58.9168   90.1214    5.1845 C.ar    1  UNL1        0.0160
     19 C          59.0321   90.8507    3.9977 C.ar    1  UNL1        0.0190
     20 N          61.1660   92.7372    0.3176 N.ar    1  UNL1       -0.2024
     21 N          59.8612   92.6138    0.1207 N.ar    1  UNL1       -0.1442
     22 C          59.3806   91.9248    1.1786 C.ar    1  UNL1        0.2073
     23 N          60.3629   91.5991    2.0498 N.ar    1  UNL1       -0.2398
     24 C          61.4660   92.1135    1.4709 C.ar    1  UNL1        0.3522
     25 O          62.6357   91.9900    1.9251 O.2     1  UNL1       -0.2444
     26 C          62.0965   93.3594   -0.6296 C.3     1  UNL1        0.1099
     27 C          61.4216   93.5020   -2.0003 C.3     1  UNL1        0.0265
     28 C          63.4895   91.6919   -1.9800 C.3     1  UNL1        0.0021
     29 C          63.3890   92.5224   -0.7004 C.3     1  UNL1        0.0245
     30 O          59.8006   84.0880   13.9731 O.3     1  UNL1       -0.4705
     31 C          59.9220   82.6741   14.1016 C.3     1  UNL1        0.2375
     32 C          59.3204   81.9867   12.8738 C.3     1  UNL1        0.1909
     33 C          58.9143   80.5571   13.1464 C.3     1  UNL1        0.1783
     34 O          59.7091   79.7533   12.3350 O.3     1  UNL1       -0.3271
     35 C          60.3004   80.6149   11.3842 C.3     1  UNL1        0.2232
     36 O          60.2736   81.9438   11.8573 O.3     1  UNL1       -0.3258
     37 C          59.5625   80.5232   10.0434 C.ar    1  UNL1        0.0404
     38 C          59.8946   81.4158    9.0005 C.ar    1  UNL1        0.0021
     39 C          59.2270   81.3702    7.7754 C.ar    1  UNL1        0.0113
     40 C          58.2025   80.4478    7.5693 C.ar    1  UNL1        0.0585
     41 CL         57.3645   80.3956    6.0291 Cl      1  UNL1       -0.0822
     42 C          57.8352   79.5760    8.5948 C.ar    1  UNL1        0.0226
     43 C          58.4945   79.6097    9.8301 C.ar    1  UNL1        0.0591
     44 CL         57.9166   78.5028   11.0747 Cl      1  UNL1       -0.0824
     45 C          61.7618   80.1692   11.1903 C.3     1  UNL1        0.1338
     46 N          62.6750   81.0766   11.9238 N.3     1  UNL1       -0.2659
     47 C          63.0698   80.5107   13.2304 C.3     1  UNL1        0.0898
     48 C          64.2457   81.2830   13.8725 C.3     1  UNL1        0.0897
     49 N          64.4452   82.6189   13.2777 N.3     1  UNL1       -0.2691
     50 C          63.3760   83.5591   13.6591 C.3     1  UNL1        0.0897
     51 C          64.6520   82.5555   11.8116 C.3     1  UNL1        0.0897
     52 C          63.8687   81.4149   11.1315 C.3     1  UNL1        0.0898
@<TRIPOS>BOND
     1    28    29    1
     2    29    26    1
     3    26    27    1
     4    26    20    1
     5    20    21   ar
     6    21    22   ar
     7    22    23   ar
     8    23    14    1
     9    14    15   ar
    10    15    16   ar
    11    16    17   ar
    12    17     8    1
    13     8     9    1
    14     9    10    1
    15    10    11    1
    16    11     1    1
    17     1     2   ar
    18     2     3   ar
    19     3     4   ar
    20     4    30    1
    21    30    31    1
    22    31    32    1
    23    32    33    1
    24    33    34    1
    25    34    35    1
    26    35    45    1
    27    45    46    1
    28    46    47    1
    29    47    48    1
    30    48    49    1
    31    49    50    1
    32    49    51    1
    33    51    52    1
    34    35    37    1
    35    37    38   ar
    36    38    39   ar
    37    39    40   ar
    38    40    41    1
    39    40    42   ar
    40    42    43   ar
    41    43    44    1
    42    35    36    1
    43     4     5   ar
    44     5     6    1
    45     5     7   ar
    46    11    12    1
    47    12    13    1
    48    17    18   ar
    49    18    19   ar
    50    23    24   ar
    51    24    25    2
    52    24    20   ar
    53    19    14   ar
    54    13     8    1
    55     7     1   ar
    56    36    32    1
    57    52    46    1
    58    43    37   ar
