@<TRIPOS>MOLECULE
*****
 34 37 0 0 0
SMALL
GASTEIGER

@<TRIPOS>ATOM
      1 C          46.6669   11.8177  -21.3340 C.ar    1  UNL1        0.1718
      2 C          45.8283   12.4443  -22.2687 C.ar    1  UNL1        0.0400
      3 C          46.3481   12.9474  -23.4582 C.ar    1  UNL1        0.0030
      4 C          47.7110   12.8099  -23.7610 C.ar    1  UNL1       -0.0015
      5 C          48.5557   12.1127  -22.8577 C.ar    1  UNL1        0.0145
      6 C          48.0335   11.6729  -21.6140 C.ar    1  UNL1        0.1636
      7 O          48.8396   11.1041  -20.6234 O.3     1  UNL1       -0.5031
      8 C          49.9944   11.8570  -23.2593 C.3     1  UNL1        0.0299
      9 C          50.8461   13.1314  -23.1609 C.3     1  UNL1        0.0091
     10 C          50.1622   14.3855  -23.7384 C.3     1  UNL1        0.0227
     11 C          49.4238   14.1031  -25.0345 C.2     1  UNL1       -0.0398
     12 C          48.2490   13.4115  -25.0211 C.2     1  UNL1       -0.0076
     13 H          49.8498   11.1138  -20.6430 H       1  UNL1        0.2923
     14 C          47.4929   13.1762  -26.2700 C.ar    1  UNL1        0.0056
     15 C          46.8644   14.2397  -26.9238 C.ar    1  UNL1        0.0402
     16 C          46.1638   14.0343  -28.1273 C.ar    1  UNL1        0.1754
     17 C          46.0978   12.7256  -28.6739 C.ar    1  UNL1        0.2061
     18 C          46.7196   11.6578  -28.0032 C.ar    1  UNL1        0.1754
     19 C          47.4105   11.8887  -26.8014 C.ar    1  UNL1        0.0402
     20 O          45.5388   15.1049  -28.7858 O.3     1  UNL1       -0.4683
     21 C          45.1263   16.3179  -28.1639 C.3     1  UNL1        0.2526
     22 O          45.4340   12.4145  -29.8763 O.3     1  UNL1       -0.4654
     23 C          45.9447   12.5792  -31.1945 C.3     1  UNL1        0.2528
     24 O          46.6297   10.3758  -28.5698 O.3     1  UNL1       -0.4683
     25 C          47.7207    9.6726  -29.1556 C.3     1  UNL1        0.2526
     26 C          45.2874   12.0420  -19.2568 C.3     1  UNL1        0.2526
     27 O          46.1826   11.3336  -20.1079 O.3     1  UNL1       -0.4684
     28 C          50.0457   14.6043  -26.3266 C.3     1  UNL1        0.0483
     29 C          49.9409   16.1019  -26.4694 C.ar    1  UNL1       -0.0181
     30 C          50.9592   16.9338  -25.9710 C.ar    1  UNL1       -0.0039
     31 C          50.8615   18.3224  -26.0987 C.ar    1  UNL1       -0.0003
     32 C          49.7412   18.8925  -26.7085 C.ar    1  UNL1       -0.0000
     33 C          48.7159   18.0749  -27.1907 C.ar    1  UNL1       -0.0003
     34 C          48.8100   16.6854  -27.0670 C.ar    1  UNL1       -0.0039
@<TRIPOS>BOND
     1    26    27    1
     2    27     1    1
     3     1     2   ar
     4     2     3   ar
     5     3     4   ar
     6     4     5   ar
     7     5     6   ar
     8     6     7    1
     9     5     8    1
    10     8     9    1
    11     9    10    1
    12    10    11    1
    13    11    28    1
    14    28    29    1
    15    29    30   ar
    16    30    31   ar
    17    31    32   ar
    18    32    33   ar
    19    33    34   ar
    20    11    12    2
    21    12    14    1
    22    14    15   ar
    23    15    16   ar
    24    16    20    1
    25    20    21    1
    26    16    17   ar
    27    17    22    1
    28    22    23    1
    29    17    18   ar
    30    18    24    1
    31    24    25    1
    32    18    19   ar
    33     6     1   ar
    34    34    29   ar
    35    19    14   ar
    36    12     4    1
    37     7    13    1
@<TRIPOS>MOLECULE
*****
 34 37 0 0 0
SMALL
GASTEIGER

@<TRIPOS>ATOM
      1 C          50.4560   11.6212  -19.2419 C.ar    1  UNL1        0.1718
      2 C          50.5770   12.8018  -19.9910 C.ar    1  UNL1        0.0400
      3 C          50.2620   12.8132  -21.3471 C.ar    1  UNL1        0.0030
      4 C          49.7875   11.6565  -21.9836 C.ar    1  UNL1       -0.0015
      5 C          49.5903   10.4758  -21.2205 C.ar    1  UNL1        0.0145
      6 C          49.9875   10.4520  -19.8586 C.ar    1  UNL1        0.1636
      7 O          49.9495    9.2856  -19.0887 O.3     1  UNL1       -0.5031
      8 C          48.9534    9.2755  -21.8915 C.3     1  UNL1        0.0299
      9 C          49.9342    8.5678  -22.8382 C.3     1  UNL1        0.0091
     10 C          50.7458    9.5284  -23.7284 C.3     1  UNL1        0.0227
     11 C          49.9058   10.6699  -24.2728 C.2     1  UNL1       -0.0398
     12 C          49.5120   11.6865  -23.4541 C.2     1  UNL1       -0.0076
     13 H          49.8024    8.3617  -19.4702 H       1  UNL1        0.2923
     14 C          48.7393   12.8309  -23.9834 C.ar    1  UNL1        0.0056
     15 C          49.3995   13.9700  -24.4523 C.ar    1  UNL1        0.0402
     16 C          48.6775   15.0555  -24.9831 C.ar    1  UNL1        0.1754
     17 C          47.2605   14.9838  -25.0352 C.ar    1  UNL1        0.2061
     18 C          46.6019   13.8410  -24.5480 C.ar    1  UNL1        0.1754
     19 C          47.3457   12.7719  -24.0202 C.ar    1  UNL1        0.0402
     20 O          49.3429   16.1959  -25.4596 O.3     1  UNL1       -0.4683
     21 C          50.0082   16.2888  -26.7155 C.3     1  UNL1        0.2526
     22 O          46.4458   16.0072  -25.5567 O.3     1  UNL1       -0.4654
     23 C          46.0764   16.1861  -26.9195 C.3     1  UNL1        0.2528
     24 O          45.1992   13.8063  -24.6103 O.3     1  UNL1       -0.4683
     25 C          44.4210   12.6143  -24.6476 C.3     1  UNL1        0.2526
     26 C          49.9469   11.9615  -16.8143 C.3     1  UNL1        0.2526
     27 O          50.8017   11.5650  -17.8820 O.3     1  UNL1       -0.4684
     28 C          49.5182   10.6254  -25.7408 C.3     1  UNL1        0.0483
     29 C          50.7191   10.5264  -26.6476 C.ar    1  UNL1       -0.0181
     30 C          51.7347   11.4970  -26.5862 C.ar    1  UNL1       -0.0039
     31 C          52.8464   11.4092  -27.4291 C.ar    1  UNL1       -0.0003
     32 C          52.9459   10.3636  -28.3503 C.ar    1  UNL1       -0.0000
     33 C          51.9331    9.4044  -28.4311 C.ar    1  UNL1       -0.0003
     34 C          50.8202    9.4870  -27.5889 C.ar    1  UNL1       -0.0039
@<TRIPOS>BOND
     1    26    27    1
     2    27     1    1
     3     1     2   ar
     4     2     3   ar
     5     3     4   ar
     6     4     5   ar
     7     5     6   ar
     8     6     7    1
     9     5     8    1
    10     8     9    1
    11     9    10    1
    12    10    11    1
    13    11    28    1
    14    28    29    1
    15    29    30   ar
    16    30    31   ar
    17    31    32   ar
    18    32    33   ar
    19    33    34   ar
    20    11    12    2
    21    12    14    1
    22    14    15   ar
    23    15    16   ar
    24    16    20    1
    25    20    21    1
    26    16    17   ar
    27    17    22    1
    28    22    23    1
    29    17    18   ar
    30    18    24    1
    31    24    25    1
    32    18    19   ar
    33     6     1   ar
    34    34    29   ar
    35    19    14   ar
    36    12     4    1
    37     7    13    1
@<TRIPOS>MOLECULE
*****
 34 37 0 0 0
SMALL
GASTEIGER

@<TRIPOS>ATOM
      1 C          50.4826   11.6391  -19.2721 C.ar    1  UNL1        0.1718
      2 C          50.6149   12.8101  -20.0343 C.ar    1  UNL1        0.0400
      3 C          50.2963   12.8103  -21.3895 C.ar    1  UNL1        0.0030
      4 C          49.8068   11.6524  -22.0122 C.ar    1  UNL1       -0.0015
      5 C          49.5983   10.4823  -21.2357 C.ar    1  UNL1        0.0145
      6 C          49.9991   10.4687  -19.8748 C.ar    1  UNL1        0.1636
      7 O          49.9499    9.3113  -19.0921 O.3     1  UNL1       -0.5031
      8 C          48.9459    9.2822  -21.8919 C.3     1  UNL1        0.0299
      9 C          49.9158    8.5531  -22.8336 C.3     1  UNL1        0.0091
     10 C          50.7358    9.4947  -23.7363 C.3     1  UNL1        0.0227
     11 C          49.9073   10.6397  -24.2908 C.2     1  UNL1       -0.0398
     12 C          49.5276   11.6695  -23.4821 C.2     1  UNL1       -0.0076
     13 H          49.7912    8.3850  -19.4632 H       1  UNL1        0.2923
     14 C          48.7664   12.8169  -24.0218 C.ar    1  UNL1        0.0056
     15 C          47.3706   12.7728  -24.0770 C.ar    1  UNL1        0.0402
     16 C          46.6326   13.8681  -24.5637 C.ar    1  UNL1        0.1754
     17 C          47.3247   15.0266  -25.0048 C.ar    1  UNL1        0.2061
     18 C          48.7296   15.0585  -24.9605 C.ar    1  UNL1        0.1754
     19 C          49.4434   13.9505  -24.4729 C.ar    1  UNL1        0.0402
     20 O          45.2304   13.8243  -24.6122 O.3     1  UNL1       -0.4683
     21 C          44.4507   12.6329  -24.6442 C.3     1  UNL1        0.2526
     22 O          46.6827   16.1792  -25.4973 O.3     1  UNL1       -0.4654
     23 C          46.1217   16.3492  -26.7943 C.3     1  UNL1        0.2528
     24 O          49.3816   16.2186  -25.4097 O.3     1  UNL1       -0.4683
     25 C          50.0537   16.3356  -26.6597 C.3     1  UNL1        0.2526
     26 C          49.9777   11.9948  -16.8458 C.3     1  UNL1        0.2526
     27 O          50.8315   11.5937  -17.9125 O.3     1  UNL1       -0.4684
     28 C          49.5151   10.5837  -25.7572 C.3     1  UNL1        0.0483
     29 C          50.7146   10.5180  -26.6689 C.ar    1  UNL1       -0.0181
     30 C          50.8425    9.4691  -27.5966 C.ar    1  UNL1       -0.0039
     31 C          51.9559    9.4043  -28.4392 C.ar    1  UNL1       -0.0003
     32 C          52.9576   10.3744  -28.3520 C.ar    1  UNL1       -0.0000
     33 C          52.8481   11.4104  -27.4209 C.ar    1  UNL1       -0.0003
     34 C          51.7354   11.4805  -26.5772 C.ar    1  UNL1       -0.0039
@<TRIPOS>BOND
     1    26    27    1
     2    27     1    1
     3     1     2   ar
     4     2     3   ar
     5     3     4   ar
     6     4     5   ar
     7     5     6   ar
     8     6     7    1
     9     5     8    1
    10     8     9    1
    11     9    10    1
    12    10    11    1
    13    11    28    1
    14    28    29    1
    15    29    30   ar
    16    30    31   ar
    17    31    32   ar
    18    32    33   ar
    19    33    34   ar
    20    11    12    2
    21    12    14    1
    22    14    15   ar
    23    15    16   ar
    24    16    20    1
    25    20    21    1
    26    16    17   ar
    27    17    22    1
    28    22    23    1
    29    17    18   ar
    30    18    24    1
    31    24    25    1
    32    18    19   ar
    33     6     1   ar
    34    34    29   ar
    35    19    14   ar
    36    12     4    1
    37     7    13    1
@<TRIPOS>MOLECULE
*****
 34 37 0 0 0
SMALL
GASTEIGER

@<TRIPOS>ATOM
      1 C          46.7091   11.7701  -21.3589 C.ar    1  UNL1        0.1718
      2 C          45.8714   12.3835  -22.3032 C.ar    1  UNL1        0.0400
      3 C          46.3966   12.8938  -23.4872 C.ar    1  UNL1        0.0030
      4 C          47.7648   12.7769  -23.7749 C.ar    1  UNL1       -0.0015
      5 C          48.6098   12.0930  -22.8619 C.ar    1  UNL1        0.0145
      6 C          48.0807   11.6459  -21.6237 C.ar    1  UNL1        0.1636
      7 O          48.8844   11.0899  -20.6239 O.3     1  UNL1       -0.5031
      8 C          50.0566   11.8591  -23.2474 C.3     1  UNL1        0.0299
      9 C          50.8877   13.1463  -23.1404 C.3     1  UNL1        0.0091
     10 C          50.1913   14.3895  -23.7262 C.3     1  UNL1        0.0227
     11 C          49.4717   14.0954  -25.0302 C.2     1  UNL1       -0.0398
     12 C          48.3074   13.3859  -25.0293 C.2     1  UNL1       -0.0076
     13 H          49.8944   11.1150  -20.6323 H       1  UNL1        0.2923
     14 C          47.5688   13.1387  -26.2864 C.ar    1  UNL1        0.0056
     15 C          47.4717   11.8437  -26.8032 C.ar    1  UNL1        0.0402
     16 C          46.7494   11.5904  -27.9845 C.ar    1  UNL1        0.1754
     17 C          46.1180   12.6716  -28.6539 C.ar    1  UNL1        0.2061
     18 C          46.2322   13.9740  -28.1366 C.ar    1  UNL1        0.1754
     19 C          46.9615   14.2009  -26.9570 C.ar    1  UNL1        0.0402
     20 O          46.6476   10.2881  -28.4984 O.3     1  UNL1       -0.4683
     21 C          47.5239    9.7213  -29.4675 C.3     1  UNL1        0.2526
     22 O          45.3630   12.5253  -29.8336 O.3     1  UNL1       -0.4654
     23 C          45.8324   12.6893  -31.1672 C.3     1  UNL1        0.2528
     24 O          45.5992   15.0203  -28.8274 O.3     1  UNL1       -0.4683
     25 C          45.1731   16.2413  -28.2311 C.3     1  UNL1        0.2526
     26 C          45.5962   12.0790  -19.1376 C.3     1  UNL1        0.2526
     27 O          46.2187   11.2793  -20.1379 O.3     1  UNL1       -0.4684
     28 C          50.1001   14.6053  -26.3157 C.3     1  UNL1        0.0483
     29 C          49.9700   16.1005  -26.4629 C.ar    1  UNL1       -0.0181
     30 C          48.8410   16.6547  -27.0918 C.ar    1  UNL1       -0.0039
     31 C          48.7210   18.0402  -27.2330 C.ar    1  UNL1       -0.0003
     32 C          49.7325   18.8821  -26.7640 C.ar    1  UNL1       -0.0000
     33 C          50.8665   18.3398  -26.1538 C.ar    1  UNL1       -0.0003
     34 C          50.9901   16.9548  -26.0086 C.ar    1  UNL1       -0.0039
@<TRIPOS>BOND
     1    26    27    1
     2    27     1    1
     3     1     2   ar
     4     2     3   ar
     5     3     4   ar
     6     4     5   ar
     7     5     6   ar
     8     6     7    1
     9     5     8    1
    10     8     9    1
    11     9    10    1
    12    10    11    1
    13    11    28    1
    14    28    29    1
    15    29    30   ar
    16    30    31   ar
    17    31    32   ar
    18    32    33   ar
    19    33    34   ar
    20    11    12    2
    21    12    14    1
    22    14    15   ar
    23    15    16   ar
    24    16    20    1
    25    20    21    1
    26    16    17   ar
    27    17    22    1
    28    22    23    1
    29    17    18   ar
    30    18    24    1
    31    24    25    1
    32    18    19   ar
    33     6     1   ar
    34    34    29   ar
    35    19    14   ar
    36    12     4    1
    37     7    13    1
@<TRIPOS>MOLECULE
*****
 34 37 0 0 0
SMALL
GASTEIGER

@<TRIPOS>ATOM
      1 C          50.6332   17.5875  -25.2029 C.ar    1  UNL1        0.1718
      2 C          50.6947   16.5295  -24.2828 C.ar    1  UNL1        0.0400
      3 C          49.8685   15.4184  -24.4280 C.ar    1  UNL1        0.0030
      4 C          48.9832   15.3187  -25.5119 C.ar    1  UNL1       -0.0015
      5 C          48.9647   16.3478  -26.4896 C.ar    1  UNL1        0.0145
      6 C          49.7526   17.5110  -26.2918 C.ar    1  UNL1        0.1636
      7 O          49.6780   18.6185  -27.1419 O.3     1  UNL1       -0.5031
      8 C          48.1012   16.1637  -27.7212 C.3     1  UNL1        0.0299
      9 C          46.6112   16.3601  -27.4042 C.3     1  UNL1        0.0091
     10 C          46.1520   15.6659  -26.1076 C.3     1  UNL1        0.0227
     11 C          46.7542   14.2822  -25.9416 C.2     1  UNL1       -0.0398
     12 C          48.0684   14.1386  -25.6083 C.2     1  UNL1       -0.0076
     13 H          48.9612   18.7452  -27.8426 H       1  UNL1        0.2923
     14 C          48.6538   12.7980  -25.3911 C.ar    1  UNL1        0.0056
     15 C          49.5589   12.2668  -26.3140 C.ar    1  UNL1        0.0402
     16 C          50.1438   11.0034  -26.1061 C.ar    1  UNL1        0.1754
     17 C          49.8005   10.2659  -24.9425 C.ar    1  UNL1        0.2061
     18 C          48.8779   10.7998  -24.0257 C.ar    1  UNL1        0.1754
     19 C          48.3058   12.0622  -24.2578 C.ar    1  UNL1        0.0402
     20 O          51.0576   10.4744  -27.0310 O.3     1  UNL1       -0.4683
     21 C          52.3773   10.9645  -27.2476 C.3     1  UNL1        0.2526
     22 O          50.3362    9.0006  -24.6341 O.3     1  UNL1       -0.4654
     23 C          51.6057    8.7368  -24.0471 C.3     1  UNL1        0.2528
     24 O          48.5575   10.0407  -22.8883 O.3     1  UNL1       -0.4683
     25 C          47.6720   10.4644  -21.8566 C.3     1  UNL1        0.2526
     26 C          52.6623   18.7898  -24.3631 C.3     1  UNL1        0.2526
     27 O          51.4243   18.7395  -25.0648 O.3     1  UNL1       -0.4684
     28 C          45.8486   13.0844  -26.1712 C.3     1  UNL1        0.0483
     29 C          46.0776   12.4428  -27.5166 C.ar    1  UNL1       -0.0181
     30 C          46.4410   11.0871  -27.6021 C.ar    1  UNL1       -0.0039
     31 C          46.6579   10.4921  -28.8483 C.ar    1  UNL1       -0.0003
     32 C          46.5309   11.2475  -30.0166 C.ar    1  UNL1       -0.0000
     33 C          46.1878   12.5999  -29.9408 C.ar    1  UNL1       -0.0003
     34 C          45.9680   13.1990  -28.6968 C.ar    1  UNL1       -0.0039
@<TRIPOS>BOND
     1    26    27    1
     2    27     1    1
     3     1     2   ar
     4     2     3   ar
     5     3     4   ar
     6     4     5   ar
     7     5     6   ar
     8     6     7    1
     9     5     8    1
    10     8     9    1
    11     9    10    1
    12    10    11    1
    13    11    28    1
    14    28    29    1
    15    29    30   ar
    16    30    31   ar
    17    31    32   ar
    18    32    33   ar
    19    33    34   ar
    20    11    12    2
    21    12    14    1
    22    14    15   ar
    23    15    16   ar
    24    16    20    1
    25    20    21    1
    26    16    17   ar
    27    17    22    1
    28    22    23    1
    29    17    18   ar
    30    18    24    1
    31    24    25    1
    32    18    19   ar
    33     6     1   ar
    34    34    29   ar
    35    19    14   ar
    36    12     4    1
    37     7    13    1
@<TRIPOS>MOLECULE
*****
 34 37 0 0 0
SMALL
GASTEIGER

@<TRIPOS>ATOM
      1 C          50.7163   17.6510  -25.1832 C.ar    1  UNL1        0.1718
      2 C          50.7452   16.6096  -24.2428 C.ar    1  UNL1        0.0400
      3 C          49.8982   15.5129  -24.3774 C.ar    1  UNL1        0.0030
      4 C          49.0239   15.4108  -25.4699 C.ar    1  UNL1       -0.0015
      5 C          49.0381   16.4214  -26.4668 C.ar    1  UNL1        0.0145
      6 C          49.8473   17.5719  -26.2811 C.ar    1  UNL1        0.1636
      7 O          49.8053   18.6644  -27.1524 O.3     1  UNL1       -0.5031
      8 C          48.1855   16.2316  -27.7051 C.3     1  UNL1        0.0299
      9 C          46.6962   16.4641  -27.4100 C.3     1  UNL1        0.0091
     10 C          46.2077   15.8040  -26.1064 C.3     1  UNL1        0.0227
     11 C          46.7793   14.4117  -25.9073 C.2     1  UNL1       -0.0398
     12 C          48.0863   14.2478  -25.5555 C.2     1  UNL1       -0.0076
     13 H          49.0996   18.7924  -27.8640 H       1  UNL1        0.2923
     14 C          48.6415   12.9000  -25.3062 C.ar    1  UNL1        0.0056
     15 C          48.2254   12.1613  -24.1951 C.ar    1  UNL1        0.0402
     16 C          48.7260   10.8668  -23.9606 C.ar    1  UNL1        0.1754
     17 C          49.6678   10.3148  -24.8684 C.ar    1  UNL1        0.2061
     18 C          50.0933   11.0694  -25.9759 C.ar    1  UNL1        0.1754
     19 C          49.5806   12.3607  -26.1862 C.ar    1  UNL1        0.0402
     20 O          48.3019   10.1239  -22.8476 O.3     1  UNL1       -0.4683
     21 C          47.4548   10.6138  -21.8128 C.3     1  UNL1        0.2526
     22 O          50.2205    9.0268  -24.7326 O.3     1  UNL1       -0.4654
     23 C          51.3065    8.6538  -23.8916 C.3     1  UNL1        0.2528
     24 O          51.0298   10.4942  -26.8504 O.3     1  UNL1       -0.4683
     25 C          52.3440   10.9961  -27.0716 C.3     1  UNL1        0.2526
     26 C          52.7609   18.8270  -24.3435 C.3     1  UNL1        0.2526
     27 O          51.5292   18.7892  -25.0570 O.3     1  UNL1       -0.4684
     28 C          45.8522   13.2284  -26.1256 C.3     1  UNL1        0.0483
     29 C          46.0738   12.5661  -27.4621 C.ar    1  UNL1       -0.0181
     30 C          46.4421   11.2106  -27.5285 C.ar    1  UNL1       -0.0039
     31 C          46.6522   10.5964  -28.7664 C.ar    1  UNL1       -0.0003
     32 C          46.5134   11.3323  -29.9459 C.ar    1  UNL1       -0.0000
     33 C          46.1653   12.6844  -29.8893 C.ar    1  UNL1       -0.0003
     34 C          45.9523   13.3026  -28.6535 C.ar    1  UNL1       -0.0039
@<TRIPOS>BOND
     1    26    27    1
     2    27     1    1
     3     1     2   ar
     4     2     3   ar
     5     3     4   ar
     6     4     5   ar
     7     5     6   ar
     8     6     7    1
     9     5     8    1
    10     8     9    1
    11     9    10    1
    12    10    11    1
    13    11    28    1
    14    28    29    1
    15    29    30   ar
    16    30    31   ar
    17    31    32   ar
    18    32    33   ar
    19    33    34   ar
    20    11    12    2
    21    12    14    1
    22    14    15   ar
    23    15    16   ar
    24    16    20    1
    25    20    21    1
    26    16    17   ar
    27    17    22    1
    28    22    23    1
    29    17    18   ar
    30    18    24    1
    31    24    25    1
    32    18    19   ar
    33     6     1   ar
    34    34    29   ar
    35    19    14   ar
    36    12     4    1
    37     7    13    1
@<TRIPOS>MOLECULE
*****
 34 37 0 0 0
SMALL
GASTEIGER

@<TRIPOS>ATOM
      1 C          49.8056   11.1180  -20.4332 C.ar    1  UNL1        0.1718
      2 C          49.9675   12.4406  -20.8739 C.ar    1  UNL1        0.0400
      3 C          50.2462   12.7103  -22.2110 C.ar    1  UNL1        0.0030
      4 C          50.3384   11.6711  -23.1490 C.ar    1  UNL1       -0.0015
      5 C          50.1033   10.3352  -22.7299 C.ar    1  UNL1        0.0145
      6 C          49.8977   10.0630  -21.3528 C.ar    1  UNL1        0.1636
      7 O          49.7976    8.7606  -20.8546 O.3     1  UNL1       -0.5031
      8 C          50.0756    9.2401  -23.7770 C.3     1  UNL1        0.0299
      9 C          51.4869    8.8955  -24.2755 C.3     1  UNL1        0.0091
     10 C          52.3656   10.1280  -24.5634 C.3     1  UNL1        0.0227
     11 C          51.6010   11.2405  -25.2581 C.2     1  UNL1       -0.0398
     12 C          50.6954   11.9894  -24.5668 C.2     1  UNL1       -0.0076
     13 H          50.0241    7.9330  -21.3881 H       1  UNL1        0.2923
     14 C          49.9835   13.1103  -25.2177 C.ar    1  UNL1        0.0056
     15 C          50.6627   14.2926  -25.5249 C.ar    1  UNL1        0.0402
     16 C          50.0038   15.3571  -26.1682 C.ar    1  UNL1        0.1754
     17 C          48.6307   15.2195  -26.5020 C.ar    1  UNL1        0.2061
     18 C          47.9497   14.0332  -26.1766 C.ar    1  UNL1        0.1754
     19 C          48.6296   12.9861  -25.5316 C.ar    1  UNL1        0.0402
     20 O          50.6894   16.5412  -26.4818 O.3     1  UNL1       -0.4683
     21 C          50.8609   17.6447  -25.5978 C.3     1  UNL1        0.2526
     22 O          47.8825   16.2174  -27.1558 O.3     1  UNL1       -0.4654
     23 C          47.1642   17.2802  -26.5390 C.3     1  UNL1        0.2528
     24 O          46.5907   13.9334  -26.5169 O.3     1  UNL1       -0.4683
     25 C          45.5278   13.8215  -25.5758 C.3     1  UNL1        0.2526
     26 C          49.3977   11.7736  -18.0517 C.3     1  UNL1        0.2526
     27 O          49.5621   10.8081  -19.0853 O.3     1  UNL1       -0.4684
     28 C          51.8737   11.4715  -26.7344 C.3     1  UNL1        0.0483
     29 C          51.4387   10.3058  -27.5865 C.ar    1  UNL1       -0.0181
     30 C          52.3512    9.6868  -28.4591 C.ar    1  UNL1       -0.0039
     31 C          51.9483    8.6090  -29.2529 C.ar    1  UNL1       -0.0003
     32 C          50.6295    8.1513  -29.1953 C.ar    1  UNL1       -0.0000
     33 C          49.7109    8.7716  -28.3445 C.ar    1  UNL1       -0.0003
     34 C          50.1097    9.8487  -27.5473 C.ar    1  UNL1       -0.0039
@<TRIPOS>BOND
     1    26    27    1
     2    27     1    1
     3     1     2   ar
     4     2     3   ar
     5     3     4   ar
     6     4     5   ar
     7     5     6   ar
     8     6     7    1
     9     5     8    1
    10     8     9    1
    11     9    10    1
    12    10    11    1
    13    11    28    1
    14    28    29    1
    15    29    30   ar
    16    30    31   ar
    17    31    32   ar
    18    32    33   ar
    19    33    34   ar
    20    11    12    2
    21    12    14    1
    22    14    15   ar
    23    15    16   ar
    24    16    20    1
    25    20    21    1
    26    16    17   ar
    27    17    22    1
    28    22    23    1
    29    17    18   ar
    30    18    24    1
    31    24    25    1
    32    18    19   ar
    33     6     1   ar
    34    34    29   ar
    35    19    14   ar
    36    12     4    1
    37     7    13    1
@<TRIPOS>MOLECULE
*****
 34 37 0 0 0
SMALL
GASTEIGER

@<TRIPOS>ATOM
      1 C          51.3166   12.2950  -18.9588 C.ar    1  UNL1        0.1718
      2 C          51.7687   13.3244  -19.7988 C.ar    1  UNL1        0.0400
      3 C          51.2514   13.4661  -21.0835 C.ar    1  UNL1        0.0030
      4 C          50.2473   12.6057  -21.5520 C.ar    1  UNL1       -0.0015
      5 C          49.7291   11.6073  -20.6859 C.ar    1  UNL1        0.0145
      6 C          50.3163   11.4206  -19.4079 C.ar    1  UNL1        0.1636
      7 O          49.9481   10.3702  -18.5619 O.3     1  UNL1       -0.5031
      8 C          48.5555   10.7735  -21.1592 C.3     1  UNL1        0.0299
      9 C          48.9847    9.7285  -22.1998 C.3     1  UNL1        0.0091
     10 C          49.9437   10.2751  -23.2747 C.3     1  UNL1        0.0227
     11 C          49.5529   11.6612  -23.7551 C.2     1  UNL1       -0.0398
     12 C          49.7529   12.7484  -22.9571 C.2     1  UNL1       -0.0076
     13 H          49.3767    9.5879  -18.8487 H       1  UNL1        0.2923
     14 C          49.4263   14.1097  -23.4338 C.ar    1  UNL1        0.0056
     15 C          50.3226   14.8035  -24.2515 C.ar    1  UNL1        0.0402
     16 C          50.0128   16.0891  -24.7338 C.ar    1  UNL1        0.1754
     17 C          48.7728   16.6811  -24.3766 C.ar    1  UNL1        0.2061
     18 C          47.8822   15.9836  -23.5414 C.ar    1  UNL1        0.1754
     19 C          48.2165   14.7024  -23.0707 C.ar    1  UNL1        0.0402
     20 O          50.9115   16.7816  -25.5603 O.3     1  UNL1       -0.4683
     21 C          51.5656   17.9992  -25.2166 C.3     1  UNL1        0.2526
     22 O          48.3611   17.9548  -24.8139 O.3     1  UNL1       -0.4654
     23 C          47.8870   18.2937  -26.1124 C.3     1  UNL1        0.2528
     24 O          46.6669   16.6016  -23.2040 O.3     1  UNL1       -0.4683
     25 C          46.5526   17.8961  -22.6217 C.3     1  UNL1        0.2526
     26 C          51.2837   12.6388  -16.4791 C.3     1  UNL1        0.2526
     27 O          51.8441   12.0999  -17.6720 O.3     1  UNL1       -0.4684
     28 C          48.9281   11.7818  -25.1345 C.3     1  UNL1        0.0483
     29 C          47.5127   12.2992  -25.0789 C.ar    1  UNL1       -0.0181
     30 C          47.0702   13.2531  -26.0125 C.ar    1  UNL1       -0.0039
     31 C          45.7599   13.7370  -25.9597 C.ar    1  UNL1       -0.0003
     32 C          44.8866   13.2867  -24.9664 C.ar    1  UNL1       -0.0000
     33 C          45.3226   12.3524  -24.0234 C.ar    1  UNL1       -0.0003
     34 C          46.6317   11.8641  -24.0733 C.ar    1  UNL1       -0.0039
@<TRIPOS>BOND
     1    26    27    1
     2    27     1    1
     3     1     2   ar
     4     2     3   ar
     5     3     4   ar
     6     4     5   ar
     7     5     6   ar
     8     6     7    1
     9     5     8    1
    10     8     9    1
    11     9    10    1
    12    10    11    1
    13    11    28    1
    14    28    29    1
    15    29    30   ar
    16    30    31   ar
    17    31    32   ar
    18    32    33   ar
    19    33    34   ar
    20    11    12    2
    21    12    14    1
    22    14    15   ar
    23    15    16   ar
    24    16    20    1
    25    20    21    1
    26    16    17   ar
    27    17    22    1
    28    22    23    1
    29    17    18   ar
    30    18    24    1
    31    24    25    1
    32    18    19   ar
    33     6     1   ar
    34    34    29   ar
    35    19    14   ar
    36    12     4    1
    37     7    13    1
@<TRIPOS>MOLECULE
*****
 34 37 0 0 0
SMALL
GASTEIGER

@<TRIPOS>ATOM
      1 C          49.7139   11.1192  -20.5013 C.ar    1  UNL1        0.1718
      2 C          49.8149   12.4428  -20.9570 C.ar    1  UNL1        0.0400
      3 C          50.1285   12.7098  -22.2869 C.ar    1  UNL1        0.0030
      4 C          50.3174   11.6649  -23.2038 C.ar    1  UNL1       -0.0015
      5 C          50.1449   10.3234  -22.7722 C.ar    1  UNL1        0.0145
      6 C          49.9028   10.0588  -21.3995 C.ar    1  UNL1        0.1636
      7 O          49.8600    8.7598  -20.8844 O.3     1  UNL1       -0.5031
      8 C          50.2215    9.2141  -23.8018 C.3     1  UNL1        0.0299
      9 C          51.6688    8.9465  -24.2412 C.3     1  UNL1        0.0091
     10 C          52.4842   10.2246  -24.5159 C.3     1  UNL1        0.0227
     11 C          51.6831   11.2802  -25.2567 C.2     1  UNL1       -0.0398
     12 C          50.7093   11.9839  -24.6122 C.2     1  UNL1       -0.0076
     13 H          50.1549    7.9397  -21.3955 H       1  UNL1        0.2923
     14 C          49.9586   13.0515  -25.3074 C.ar    1  UNL1        0.0056
     15 C          48.6402   12.8334  -25.7170 C.ar    1  UNL1        0.0402
     16 C          47.9055   13.8498  -26.3560 C.ar    1  UNL1        0.1754
     17 C          48.5217   15.1080  -26.5858 C.ar    1  UNL1        0.2061
     18 C          49.8532   15.3158  -26.1847 C.ar    1  UNL1        0.1754
     19 C          50.5662   14.2838  -25.5511 C.ar    1  UNL1        0.0402
     20 O          46.5793   13.6308  -26.7608 O.3     1  UNL1       -0.4683
     21 C          45.9354   12.3610  -26.7979 C.3     1  UNL1        0.2526
     22 O          47.8727   16.1936  -27.2050 O.3     1  UNL1       -0.4654
     23 C          46.9045   17.0529  -26.6134 C.3     1  UNL1        0.2528
     24 O          50.4328   16.5709  -26.4324 O.3     1  UNL1       -0.4683
     25 C          50.8436   17.4854  -25.4211 C.3     1  UNL1        0.2526
     26 C          48.7260   11.6668  -18.2669 C.3     1  UNL1        0.2526
     27 O          49.4373   10.8144  -19.1587 O.3     1  UNL1       -0.4684
     28 C          51.9984   11.5062  -26.7254 C.3     1  UNL1        0.0483
     29 C          51.5471   10.3572  -27.5915 C.ar    1  UNL1       -0.0181
     30 C          50.2258    9.8834  -27.5076 C.ar    1  UNL1       -0.0039
     31 C          49.8071    8.8155  -28.3066 C.ar    1  UNL1       -0.0003
     32 C          50.7061    8.2016  -29.1823 C.ar    1  UNL1       -0.0000
     33 C          52.0259    8.6537  -29.2596 C.ar    1  UNL1       -0.0003
     34 C          52.4488    9.7226  -28.4638 C.ar    1  UNL1       -0.0039
@<TRIPOS>BOND
     1    26    27    1
     2    27     1    1
     3     1     2   ar
     4     2     3   ar
     5     3     4   ar
     6     4     5   ar
     7     5     6   ar
     8     6     7    1
     9     5     8    1
    10     8     9    1
    11     9    10    1
    12    10    11    1
    13    11    28    1
    14    28    29    1
    15    29    30   ar
    16    30    31   ar
    17    31    32   ar
    18    32    33   ar
    19    33    34   ar
    20    11    12    2
    21    12    14    1
    22    14    15   ar
    23    15    16   ar
    24    16    20    1
    25    20    21    1
    26    16    17   ar
    27    17    22    1
    28    22    23    1
    29    17    18   ar
    30    18    24    1
    31    24    25    1
    32    18    19   ar
    33     6     1   ar
    34    34    29   ar
    35    19    14   ar
    36    12     4    1
    37     7    13    1
