@<TRIPOS>MOLECULE
*****
 35 38 0 0 0
SMALL
GASTEIGER

@<TRIPOS>ATOM
      1 N         -29.4815   46.7694   -5.1708 N.am    1  UNL1       -0.2685
      2 C         -28.4788   46.9089   -6.1945 C.2     1  UNL1        0.2673
      3 O         -27.8947   45.8806   -6.6333 O.2     1  UNL1       -0.2682
      4 C         -28.1014   48.2442   -6.7019 C.ar    1  UNL1        0.1370
      5 C         -28.0840   48.5183   -8.0783 C.ar    1  UNL1        0.0239
      6 C         -27.7039   49.7905   -8.5251 C.ar    1  UNL1        0.0053
      7 C         -27.6818   50.0921   -9.8959 C.ar    1  UNL1        0.0002
      8 C         -27.3001   51.3654  -10.3278 C.ar    1  UNL1        0.0000
      9 C         -26.9386   52.3443   -9.3983 C.ar    1  UNL1        0.0001
     10 C         -26.9561   52.0567   -8.0304 C.ar    1  UNL1        0.0038
     11 C         -27.3379   50.7806   -7.5841 C.ar    1  UNL1        0.0460
     12 C         -27.3647   50.4602   -6.2185 C.ar    1  UNL1        0.2223
     13 F         -27.0190   51.3777   -5.2805 F       1  UNL1       -0.1832
     14 N         -27.7387   49.2162   -5.8209 N.ar    1  UNL1       -0.2134
     15 C         -31.4401   46.6473   -6.7093 C.3     1  UNL1        0.0265
     16 C         -30.8472   47.2649   -5.4320 C.3     1  UNL1        0.1007
     17 C         -30.8730   48.7866   -5.4014 C.ar    1  UNL1        0.0234
     18 C         -31.0983   49.5556   -6.5630 C.ar    1  UNL1        0.0019
     19 C         -31.0703   50.9519   -6.5074 C.ar    1  UNL1        0.0295
     20 C         -30.8037   51.6012   -5.3012 C.ar    1  UNL1        0.1424
     21 F         -30.7746   52.9558   -5.2518 F       1  UNL1       -0.2041
     22 C         -30.5574   50.8547   -4.1479 C.ar    1  UNL1        0.0590
     23 C         -30.5835   49.4573   -4.1944 C.ar    1  UNL1        0.1399
     24 F         -30.3192   48.7595   -3.0602 F       1  UNL1       -0.2044
     25 C         -29.1840   45.9104   -4.0141 C.3     1  UNL1        0.1207
     26 C         -27.7916   46.1824   -3.5066 C.ar    1  UNL1       -0.0021
     27 C         -26.8326   45.1584   -3.4843 C.ar    1  UNL1       -0.0026
     28 C         -25.5289   45.4251   -3.0624 C.ar    1  UNL1       -0.0001
     29 C         -25.1677   46.7156   -2.6681 C.ar    1  UNL1        0.0064
     30 C         -26.1118   47.7574   -2.6933 C.ar    1  UNL1        0.0752
     31 C         -27.4238   47.4802   -3.1160 C.ar    1  UNL1        0.0038
     32 C         -25.7324   49.1291   -2.2882 C.2     1  UNL1        0.3380
     33 O         -25.8894   50.0961   -3.0821 O.2     1  UNL1       -0.2451
     34 O         -25.1986   49.3654   -1.0238 O.3     1  UNL1       -0.4771
     35 H         -24.9364   50.3006   -0.7361 H       1  UNL1        0.2954
@<TRIPOS>BOND
     1    15    16    1
     2    16    17    1
     3    17    18   ar
     4    18    19   ar
     5    19    20   ar
     6    20    21    1
     7    20    22   ar
     8    22    23   ar
     9    23    24    1
    10    16     1    1
    11     1    25    1
    12    25    26    1
    13    26    27   ar
    14    27    28   ar
    15    28    29   ar
    16    29    30   ar
    17    30    32    1
    18    32    33    2
    19    32    34    1
    20    30    31   ar
    21     1     2   am
    22     2     3    2
    23     2     4    1
    24     4     5   ar
    25     5     6   ar
    26     6     7   ar
    27     7     8   ar
    28     8     9   ar
    29     9    10   ar
    30    10    11   ar
    31    11    12   ar
    32    12    13    1
    33    12    14   ar
    34    23    17   ar
    35    31    26   ar
    36    14     4   ar
    37    11     6   ar
    38    34    35    1
@<TRIPOS>MOLECULE
*****
 35 38 0 0 0
SMALL
GASTEIGER

@<TRIPOS>ATOM
      1 N         -29.3794   47.1377   -6.6112 N.am    1  UNL1       -0.2685
      2 C         -29.2654   47.4993   -8.0002 C.2     1  UNL1        0.2673
      3 O         -29.8484   46.7988   -8.8722 O.2     1  UNL1       -0.2682
      4 C         -28.4406   48.6538   -8.4125 C.ar    1  UNL1        0.1370
      5 C         -27.0790   48.7272   -8.0802 C.ar    1  UNL1        0.0239
      6 C         -26.3311   49.8451   -8.4723 C.ar    1  UNL1        0.0053
      7 C         -24.9668   49.9417   -8.1564 C.ar    1  UNL1        0.0002
      8 C         -24.2326   51.0629   -8.5535 C.ar    1  UNL1        0.0000
      9 C         -24.8523   52.0929   -9.2663 C.ar    1  UNL1        0.0001
     10 C         -26.2102   52.0090   -9.5870 C.ar    1  UNL1        0.0038
     11 C         -26.9586   50.8872   -9.1934 C.ar    1  UNL1        0.0460
     12 C         -28.3232   50.7736   -9.4986 C.ar    1  UNL1        0.2223
     13 F         -28.9673   51.7502  -10.1860 F       1  UNL1       -0.1832
     14 N         -29.0176   49.6751   -9.1026 N.ar    1  UNL1       -0.2134
     15 C         -31.3412   48.5815   -6.0778 C.3     1  UNL1        0.0265
     16 C         -29.9366   48.1175   -5.6582 C.3     1  UNL1        0.1007
     17 C         -28.9466   49.2498   -5.4239 C.ar    1  UNL1        0.0234
     18 C         -27.7421   49.0571   -4.7142 C.ar    1  UNL1        0.0019
     19 C         -26.8771   50.1292   -4.4781 C.ar    1  UNL1        0.0295
     20 C         -27.2043   51.4081   -4.9305 C.ar    1  UNL1        0.1424
     21 F         -26.3640   52.4461   -4.6971 F       1  UNL1       -0.2041
     22 C         -28.4021   51.6194   -5.6151 C.ar    1  UNL1        0.0590
     23 C         -29.2735   50.5525   -5.8559 C.ar    1  UNL1        0.1399
     24 F         -30.4405   50.7944   -6.5060 F       1  UNL1       -0.2044
     25 C         -29.1857   45.7277   -6.2384 C.3     1  UNL1        0.1207
     26 C         -28.7691   45.6224   -4.7942 C.ar    1  UNL1       -0.0021
     27 C         -29.7335   45.4580   -3.7884 C.ar    1  UNL1       -0.0026
     28 C         -29.3422   45.3089   -2.4567 C.ar    1  UNL1       -0.0001
     29 C         -27.9871   45.3130   -2.1175 C.ar    1  UNL1        0.0064
     30 C         -27.0053   45.4661   -3.1124 C.ar    1  UNL1        0.0752
     31 C         -27.4074   45.6195   -4.4510 C.ar    1  UNL1        0.0038
     32 C         -25.5679   45.4595   -2.7610 C.2     1  UNL1        0.3380
     33 O         -24.7225   46.0077   -3.5191 O.2     1  UNL1       -0.2451
     34 O         -25.1349   44.8478   -1.5873 O.3     1  UNL1       -0.4771
     35 H         -24.1533   44.8384   -1.3369 H       1  UNL1        0.2954
@<TRIPOS>BOND
     1    15    16    1
     2    16    17    1
     3    17    18   ar
     4    18    19   ar
     5    19    20   ar
     6    20    21    1
     7    20    22   ar
     8    22    23   ar
     9    23    24    1
    10    16     1    1
    11     1    25    1
    12    25    26    1
    13    26    27   ar
    14    27    28   ar
    15    28    29   ar
    16    29    30   ar
    17    30    32    1
    18    32    33    2
    19    32    34    1
    20    30    31   ar
    21     1     2   am
    22     2     3    2
    23     2     4    1
    24     4     5   ar
    25     5     6   ar
    26     6     7   ar
    27     7     8   ar
    28     8     9   ar
    29     9    10   ar
    30    10    11   ar
    31    11    12   ar
    32    12    13    1
    33    12    14   ar
    34    23    17   ar
    35    31    26   ar
    36    14     4   ar
    37    11     6   ar
    38    34    35    1
@<TRIPOS>MOLECULE
*****
 35 38 0 0 0
SMALL
GASTEIGER

@<TRIPOS>ATOM
      1 N         -28.4126   47.0404   -4.9884 N.am    1  UNL1       -0.2685
      2 C         -28.1299   46.6703   -6.3508 C.2     1  UNL1        0.2673
      3 O         -28.2936   45.4734   -6.7139 O.2     1  UNL1       -0.2682
      4 C         -27.6122   47.6676   -7.3101 C.ar    1  UNL1        0.1370
      5 C         -26.4226   48.3678   -7.0564 C.ar    1  UNL1        0.0239
      6 C         -25.9702   49.3193   -7.9798 C.ar    1  UNL1        0.0053
      7 C         -24.7816   50.0307   -7.7523 C.ar    1  UNL1        0.0002
      8 C         -24.3421   50.9775   -8.6818 C.ar    1  UNL1        0.0000
      9 C         -25.0829   51.2212   -9.8414 C.ar    1  UNL1        0.0001
     10 C         -26.2683   50.5197  -10.0797 C.ar    1  UNL1        0.0038
     11 C         -26.7203   49.5656   -9.1530 C.ar    1  UNL1        0.0460
     12 C         -27.9063   48.8461   -9.3623 C.ar    1  UNL1        0.2223
     13 F         -28.6595   49.0516  -10.4722 F       1  UNL1       -0.1832
     14 N         -28.3150   47.9306   -8.4456 N.ar    1  UNL1       -0.2134
     15 C         -30.7963   47.7133   -5.2761 C.3     1  UNL1        0.0265
     16 C         -29.4126   48.0934   -4.7238 C.3     1  UNL1        0.1007
     17 C         -28.8972   49.4443   -5.2000 C.ar    1  UNL1        0.0234
     18 C         -29.5052   50.1458   -6.2629 C.ar    1  UNL1        0.0019
     19 C         -28.9785   51.3628   -6.7045 C.ar    1  UNL1        0.0295
     20 C         -27.8335   51.8906   -6.1062 C.ar    1  UNL1        0.1424
     21 F         -27.3240   53.0700   -6.5391 F       1  UNL1       -0.2041
     22 C         -27.2079   51.1983   -5.0682 C.ar    1  UNL1        0.0590
     23 C         -27.7281   49.9801   -4.6200 C.ar    1  UNL1        0.1399
     24 F         -27.0846   49.3208   -3.6228 F       1  UNL1       -0.2044
     25 C         -27.8957   46.1833   -3.9101 C.3     1  UNL1        0.1207
     26 C         -29.0317   45.6590   -3.0704 C.ar    1  UNL1       -0.0021
     27 C         -29.8638   44.6407   -3.5598 C.ar    1  UNL1       -0.0026
     28 C         -30.8832   44.1206   -2.7603 C.ar    1  UNL1       -0.0001
     29 C         -31.0760   44.6042   -1.4641 C.ar    1  UNL1        0.0064
     30 C         -30.2460   45.6172   -0.9520 C.ar    1  UNL1        0.0752
     31 C         -29.2238   46.1385   -1.7646 C.ar    1  UNL1        0.0038
     32 C         -30.4376   46.1254    0.4244 C.2     1  UNL1        0.3380
     33 O         -31.4433   45.7761    1.1001 O.2     1  UNL1       -0.2451
     34 O         -29.5070   46.9948    0.9877 O.3     1  UNL1       -0.4771
     35 H         -29.6282   47.3480    1.9294 H       1  UNL1        0.2954
@<TRIPOS>BOND
     1    15    16    1
     2    16    17    1
     3    17    18   ar
     4    18    19   ar
     5    19    20   ar
     6    20    21    1
     7    20    22   ar
     8    22    23   ar
     9    23    24    1
    10    16     1    1
    11     1    25    1
    12    25    26    1
    13    26    27   ar
    14    27    28   ar
    15    28    29   ar
    16    29    30   ar
    17    30    32    1
    18    32    33    2
    19    32    34    1
    20    30    31   ar
    21     1     2   am
    22     2     3    2
    23     2     4    1
    24     4     5   ar
    25     5     6   ar
    26     6     7   ar
    27     7     8   ar
    28     8     9   ar
    29     9    10   ar
    30    10    11   ar
    31    11    12   ar
    32    12    13    1
    33    12    14   ar
    34    23    17   ar
    35    31    26   ar
    36    14     4   ar
    37    11     6   ar
    38    34    35    1
@<TRIPOS>MOLECULE
*****
 35 38 0 0 0
SMALL
GASTEIGER

@<TRIPOS>ATOM
      1 N         -29.9685   48.1318   -6.2296 N.am    1  UNL1       -0.2685
      2 C         -29.5048   48.3369   -7.5772 C.2     1  UNL1        0.2673
      3 O         -30.2195   47.9529   -8.5430 O.2     1  UNL1       -0.2682
      4 C         -28.1864   48.9522   -7.8345 C.ar    1  UNL1        0.1370
      5 C         -28.0771   50.1703   -8.5232 C.ar    1  UNL1        0.0239
      6 C         -26.8098   50.7162   -8.7652 C.ar    1  UNL1        0.0053
      7 C         -26.6726   51.9349   -9.4481 C.ar    1  UNL1        0.0002
      8 C         -25.4021   52.4680   -9.6831 C.ar    1  UNL1        0.0000
      9 C         -24.2625   51.7912   -9.2401 C.ar    1  UNL1        0.0001
     10 C         -24.3854   50.5767   -8.5590 C.ar    1  UNL1        0.0038
     11 C         -25.6569   50.0309   -8.3168 C.ar    1  UNL1        0.0460
     12 C         -25.8139   48.8135   -7.6375 C.ar    1  UNL1        0.2223
     13 F         -24.7360   48.1201   -7.1919 F       1  UNL1       -0.1832
     14 N         -27.0582   48.3136   -7.4201 N.ar    1  UNL1       -0.2134
     15 C         -31.1155   50.3245   -5.9226 C.3     1  UNL1        0.0265
     16 C         -30.1285   49.2992   -5.3405 C.3     1  UNL1        0.1007
     17 C         -28.7682   49.8765   -4.9751 C.ar    1  UNL1        0.0234
     18 C         -27.8516   49.1773   -4.1611 C.ar    1  UNL1        0.0019
     19 C         -26.6296   49.7562   -3.8078 C.ar    1  UNL1        0.0295
     20 C         -26.3091   51.0418   -4.2459 C.ar    1  UNL1        0.1424
     21 F         -25.1238   51.6011   -3.8989 F       1  UNL1       -0.2041
     22 C         -27.2139   51.7550   -5.0338 C.ar    1  UNL1        0.0590
     23 C         -28.4389   51.1835   -5.3921 C.ar    1  UNL1        0.1399
     24 F         -29.3062   51.9108   -6.1416 F       1  UNL1       -0.2044
     25 C         -30.5130   46.8129   -5.8714 C.3     1  UNL1        0.1207
     26 C         -29.6205   46.1362   -4.8635 C.ar    1  UNL1       -0.0021
     27 C         -30.1736   45.4923   -3.7462 C.ar    1  UNL1       -0.0026
     28 C         -29.3489   44.8219   -2.8412 C.ar    1  UNL1       -0.0001
     29 C         -27.9679   44.7795   -3.0467 C.ar    1  UNL1        0.0064
     30 C         -27.3957   45.4098   -4.1660 C.ar    1  UNL1        0.0752
     31 C         -28.2325   46.0863   -5.0710 C.ar    1  UNL1        0.0038
     32 C         -25.9348   45.3586   -4.3956 C.2     1  UNL1        0.3380
     33 O         -25.4538   45.6663   -5.5199 O.2     1  UNL1       -0.2451
     34 O         -25.0761   44.9705   -3.3703 O.3     1  UNL1       -0.4771
     35 H         -24.0744   44.9329   -3.5166 H       1  UNL1        0.2954
@<TRIPOS>BOND
     1    15    16    1
     2    16    17    1
     3    17    18   ar
     4    18    19   ar
     5    19    20   ar
     6    20    21    1
     7    20    22   ar
     8    22    23   ar
     9    23    24    1
    10    16     1    1
    11     1    25    1
    12    25    26    1
    13    26    27   ar
    14    27    28   ar
    15    28    29   ar
    16    29    30   ar
    17    30    32    1
    18    32    33    2
    19    32    34    1
    20    30    31   ar
    21     1     2   am
    22     2     3    2
    23     2     4    1
    24     4     5   ar
    25     5     6   ar
    26     6     7   ar
    27     7     8   ar
    28     8     9   ar
    29     9    10   ar
    30    10    11   ar
    31    11    12   ar
    32    12    13    1
    33    12    14   ar
    34    23    17   ar
    35    31    26   ar
    36    14     4   ar
    37    11     6   ar
    38    34    35    1
@<TRIPOS>MOLECULE
*****
 35 38 0 0 0
SMALL
GASTEIGER

@<TRIPOS>ATOM
      1 N         -26.7519   50.6023   -6.3202 N.am    1  UNL1       -0.2685
      2 C         -27.5465   51.5878   -7.0058 C.2     1  UNL1        0.2673
      3 O         -27.3997   52.8081   -6.7222 O.2     1  UNL1       -0.2682
      4 C         -28.5570   51.1791   -8.0034 C.ar    1  UNL1        0.1370
      5 C         -28.4722   51.6062   -9.3377 C.ar    1  UNL1        0.0239
      6 C         -29.4576   51.2139  -10.2529 C.ar    1  UNL1        0.0053
      7 C         -29.3945   51.6237  -11.5941 C.ar    1  UNL1        0.0002
      8 C         -30.3847   51.2253  -12.4965 C.ar    1  UNL1        0.0000
      9 C         -31.4421   50.4178  -12.0690 C.ar    1  UNL1        0.0001
     10 C         -31.5167   50.0031  -10.7362 C.ar    1  UNL1        0.0038
     11 C         -30.5275   50.3969   -9.8198 C.ar    1  UNL1        0.0460
     12 C         -30.5746   49.9987   -8.4755 C.ar    1  UNL1        0.2223
     13 F         -31.5838   49.2173   -8.0150 F       1  UNL1       -0.1832
     14 N         -29.6016   50.3977   -7.6154 N.ar    1  UNL1       -0.2134
     15 C         -24.9561   50.4914   -8.0466 C.3     1  UNL1        0.0265
     16 C         -25.8858   49.7039   -7.1087 C.3     1  UNL1        0.1007
     17 C         -26.7219   48.6390   -7.8045 C.ar    1  UNL1        0.0234
     18 C         -27.4419   47.6624   -7.0838 C.ar    1  UNL1        0.0019
     19 C         -28.1630   46.6714   -7.7556 C.ar    1  UNL1        0.0295
     20 C         -28.1661   46.6291   -9.1504 C.ar    1  UNL1        0.1424
     21 F         -28.8646   45.6646   -9.7985 F       1  UNL1       -0.2041
     22 C         -27.4415   47.5748   -9.8776 C.ar    1  UNL1        0.0590
     23 C         -26.7173   48.5699   -9.2136 C.ar    1  UNL1        0.1399
     24 F         -26.0057   49.4623   -9.9487 F       1  UNL1       -0.2044
     25 C         -26.6300   50.6980   -4.8572 C.3     1  UNL1        0.1207
     26 C         -27.1761   49.4540   -4.2056 C.ar    1  UNL1       -0.0021
     27 C         -28.5615   49.2478   -4.1209 C.ar    1  UNL1       -0.0026
     28 C         -29.0645   48.0710   -3.5634 C.ar    1  UNL1       -0.0001
     29 C         -28.1918   47.0863   -3.0944 C.ar    1  UNL1        0.0064
     30 C         -26.8003   47.2697   -3.1800 C.ar    1  UNL1        0.0752
     31 C         -26.3013   48.4593   -3.7393 C.ar    1  UNL1        0.0038
     32 C         -25.8706   46.2254   -2.6958 C.2     1  UNL1        0.3380
     33 O         -24.7596   46.0457   -3.2644 O.2     1  UNL1       -0.2451
     34 O         -26.2140   45.4306   -1.6050 O.3     1  UNL1       -0.4771
     35 H         -25.5846   44.7135   -1.2649 H       1  UNL1        0.2954
@<TRIPOS>BOND
     1    15    16    1
     2    16    17    1
     3    17    18   ar
     4    18    19   ar
     5    19    20   ar
     6    20    21    1
     7    20    22   ar
     8    22    23   ar
     9    23    24    1
    10    16     1    1
    11     1    25    1
    12    25    26    1
    13    26    27   ar
    14    27    28   ar
    15    28    29   ar
    16    29    30   ar
    17    30    32    1
    18    32    33    2
    19    32    34    1
    20    30    31   ar
    21     1     2   am
    22     2     3    2
    23     2     4    1
    24     4     5   ar
    25     5     6   ar
    26     6     7   ar
    27     7     8   ar
    28     8     9   ar
    29     9    10   ar
    30    10    11   ar
    31    11    12   ar
    32    12    13    1
    33    12    14   ar
    34    23    17   ar
    35    31    26   ar
    36    14     4   ar
    37    11     6   ar
    38    34    35    1
@<TRIPOS>MOLECULE
*****
 35 38 0 0 0
SMALL
GASTEIGER

@<TRIPOS>ATOM
      1 N         -29.5710   49.2738   -4.4080 N.am    1  UNL1       -0.2685
      2 C         -30.1004   48.1320   -5.1071 C.2     1  UNL1        0.2673
      3 O         -31.0951   47.5203   -4.6299 O.2     1  UNL1       -0.2682
      4 C         -29.4646   47.6487   -6.3501 C.ar    1  UNL1        0.1370
      5 C         -30.2336   47.3208   -7.4775 C.ar    1  UNL1        0.0239
      6 C         -29.5989   46.8487   -8.6337 C.ar    1  UNL1        0.0053
      7 C         -30.3440   46.5175   -9.7763 C.ar    1  UNL1        0.0002
      8 C         -29.6978   46.0472  -10.9230 C.ar    1  UNL1        0.0000
      9 C         -28.3078   45.9041  -10.9383 C.ar    1  UNL1        0.0001
     10 C         -27.5542   46.2303   -9.8070 C.ar    1  UNL1        0.0038
     11 C         -28.1922   46.7039   -8.6486 C.ar    1  UNL1        0.0460
     12 C         -27.4646   47.0385   -7.4968 C.ar    1  UNL1        0.2223
     13 F         -26.1139   46.9128   -7.4647 F       1  UNL1       -0.1832
     14 N         -28.1131   47.4936   -6.3932 N.ar    1  UNL1       -0.2134
     15 C         -30.8553   50.9467   -5.7383 C.3     1  UNL1        0.0265
     16 C         -29.5052   50.5739   -5.1039 C.3     1  UNL1        0.1007
     17 C         -28.3303   50.5973   -6.0716 C.ar    1  UNL1        0.0234
     18 C         -28.5125   50.6143   -7.4709 C.ar    1  UNL1        0.0019
     19 C         -27.4112   50.5896   -8.3312 C.ar    1  UNL1        0.0295
     20 C         -26.1167   50.5328   -7.8131 C.ar    1  UNL1        0.1424
     21 F         -25.0511   50.5063   -8.6508 F       1  UNL1       -0.2041
     22 C         -25.9205   50.4937   -6.4317 C.ar    1  UNL1        0.0590
     23 C         -27.0165   50.5180   -5.5636 C.ar    1  UNL1        0.1399
     24 F         -26.7934   50.4575   -4.2258 F       1  UNL1       -0.2044
     25 C         -29.3620   49.1684   -2.9555 C.3     1  UNL1        0.1207
     26 C         -28.6689   47.8732   -2.6207 C.ar    1  UNL1       -0.0021
     27 C         -29.3375   46.8798   -1.8892 C.ar    1  UNL1       -0.0026
     28 C         -28.7118   45.6603   -1.6246 C.ar    1  UNL1       -0.0001
     29 C         -27.4190   45.4169   -2.0944 C.ar    1  UNL1        0.0064
     30 C         -26.7365   46.3959   -2.8381 C.ar    1  UNL1        0.0752
     31 C         -27.3718   47.6231   -3.0973 C.ar    1  UNL1        0.0038
     32 C         -25.3714   46.1398   -3.3486 C.2     1  UNL1        0.3380
     33 O         -25.1720   45.9708   -4.5821 O.2     1  UNL1       -0.2451
     34 O         -24.2923   46.0840   -2.4701 O.3     1  UNL1       -0.4771
     35 H         -23.3537   45.9102   -2.8091 H       1  UNL1        0.2954
@<TRIPOS>BOND
     1    15    16    1
     2    16    17    1
     3    17    18   ar
     4    18    19   ar
     5    19    20   ar
     6    20    21    1
     7    20    22   ar
     8    22    23   ar
     9    23    24    1
    10    16     1    1
    11     1    25    1
    12    25    26    1
    13    26    27   ar
    14    27    28   ar
    15    28    29   ar
    16    29    30   ar
    17    30    32    1
    18    32    33    2
    19    32    34    1
    20    30    31   ar
    21     1     2   am
    22     2     3    2
    23     2     4    1
    24     4     5   ar
    25     5     6   ar
    26     6     7   ar
    27     7     8   ar
    28     8     9   ar
    29     9    10   ar
    30    10    11   ar
    31    11    12   ar
    32    12    13    1
    33    12    14   ar
    34    23    17   ar
    35    31    26   ar
    36    14     4   ar
    37    11     6   ar
    38    34    35    1
@<TRIPOS>MOLECULE
*****
 35 38 0 0 0
SMALL
GASTEIGER

@<TRIPOS>ATOM
      1 N         -29.7986   48.7208   -8.3326 N.am    1  UNL1       -0.2685
      2 C         -29.8173   48.7127   -6.8930 C.2     1  UNL1        0.2673
      3 O         -30.7507   48.1164   -6.2893 O.2     1  UNL1       -0.2682
      4 C         -28.7803   49.4295   -6.1224 C.ar    1  UNL1        0.1370
      5 C         -28.1611   48.8343   -5.0124 C.ar    1  UNL1        0.0239
      6 C         -27.1944   49.5498   -4.2940 C.ar    1  UNL1        0.0053
      7 C         -26.5570   48.9765   -3.1824 C.ar    1  UNL1        0.0002
      8 C         -25.5945   49.7018   -2.4745 C.ar    1  UNL1        0.0000
      9 C         -25.2620   51.0006   -2.8688 C.ar    1  UNL1        0.0001
     10 C         -25.8895   51.5831   -3.9737 C.ar    1  UNL1        0.0038
     11 C         -26.8584   50.8641   -4.6933 C.ar    1  UNL1        0.0460
     12 C         -27.5071   51.4209   -5.8056 C.ar    1  UNL1        0.2223
     13 F         -27.2186   52.6794   -6.2229 F       1  UNL1       -0.1832
     14 N         -28.4396   50.6981   -6.4790 N.ar    1  UNL1       -0.2134
     15 C         -28.3446   46.7160   -8.6227 C.3     1  UNL1        0.0265
     16 C         -28.6248   48.1697   -9.0379 C.3     1  UNL1        0.1007
     17 C         -27.4323   49.1043   -8.8912 C.ar    1  UNL1        0.0234
     18 C         -27.3589   50.3379   -9.5726 C.ar    1  UNL1        0.0019
     19 C         -26.2287   51.1511   -9.4505 C.ar    1  UNL1        0.0295
     20 C         -25.1518   50.7426   -8.6625 C.ar    1  UNL1        0.1424
     21 F         -24.0561   51.5329   -8.5487 F       1  UNL1       -0.2041
     22 C         -25.1999   49.5155   -7.9993 C.ar    1  UNL1        0.0590
     23 C         -26.3268   48.6956   -8.1158 C.ar    1  UNL1        0.1399
     24 F         -26.3343   47.4985   -7.4755 F       1  UNL1       -0.2044
     25 C         -31.0474   49.0316   -9.0457 C.3     1  UNL1        0.1207
     26 C         -30.7435   49.5680  -10.4205 C.ar    1  UNL1       -0.0021
     27 C         -30.5076   48.6888  -11.4884 C.ar    1  UNL1       -0.0026
     28 C         -30.2774   49.1871  -12.7718 C.ar    1  UNL1       -0.0001
     29 C         -30.2894   50.5646  -13.0038 C.ar    1  UNL1        0.0064
     30 C         -30.5343   51.4614  -11.9487 C.ar    1  UNL1        0.0752
     31 C         -30.7615   50.9519  -10.6581 C.ar    1  UNL1        0.0038
     32 C         -30.5600   52.9210  -12.1901 C.2     1  UNL1        0.3380
     33 O         -31.5839   53.5982  -11.9017 O.2     1  UNL1       -0.2451
     34 O         -29.4516   53.5617  -12.7379 O.3     1  UNL1       -0.4771
     35 H         -29.4584   54.5606  -12.9064 H       1  UNL1        0.2954
@<TRIPOS>BOND
     1    15    16    1
     2    16    17    1
     3    17    18   ar
     4    18    19   ar
     5    19    20   ar
     6    20    21    1
     7    20    22   ar
     8    22    23   ar
     9    23    24    1
    10    16     1    1
    11     1    25    1
    12    25    26    1
    13    26    27   ar
    14    27    28   ar
    15    28    29   ar
    16    29    30   ar
    17    30    32    1
    18    32    33    2
    19    32    34    1
    20    30    31   ar
    21     1     2   am
    22     2     3    2
    23     2     4    1
    24     4     5   ar
    25     5     6   ar
    26     6     7   ar
    27     7     8   ar
    28     8     9   ar
    29     9    10   ar
    30    10    11   ar
    31    11    12   ar
    32    12    13    1
    33    12    14   ar
    34    23    17   ar
    35    31    26   ar
    36    14     4   ar
    37    11     6   ar
    38    34    35    1
@<TRIPOS>MOLECULE
*****
 35 38 0 0 0
SMALL
GASTEIGER

@<TRIPOS>ATOM
      1 N         -29.4105   48.1047   -6.0649 N.am    1  UNL1       -0.2685
      2 C         -29.3627   48.3412   -7.4843 C.2     1  UNL1        0.2673
      3 O         -30.1057   47.6679   -8.2496 O.2     1  UNL1       -0.2682
      4 C         -28.4245   49.3317   -8.0515 C.ar    1  UNL1        0.1370
      5 C         -27.0449   49.2456   -7.8080 C.ar    1  UNL1        0.0239
      6 C         -26.1861   50.2122   -8.3471 C.ar    1  UNL1        0.0053
      7 C         -24.8020   50.1471   -8.1223 C.ar    1  UNL1        0.0002
      8 C         -23.9567   51.1186   -8.6659 C.ar    1  UNL1        0.0000
      9 C         -24.4844   52.1590   -9.4353 C.ar    1  UNL1        0.0001
     10 C         -25.8609   52.2354   -9.6664 C.ar    1  UNL1        0.0038
     11 C         -26.7205   51.2650   -9.1255 C.ar    1  UNL1        0.0460
     12 C         -28.1064   51.3143   -9.3380 C.ar    1  UNL1        0.2223
     13 F         -28.6634   52.3076  -10.0758 F       1  UNL1       -0.1832
     14 N         -28.9095   50.3597   -8.8001 N.ar    1  UNL1       -0.2134
     15 C         -30.8581   50.1104   -5.7494 C.3     1  UNL1        0.0265
     16 C         -29.7482   49.2228   -5.1623 C.3     1  UNL1        0.1007
     17 C         -28.4888   49.9777   -4.7607 C.ar    1  UNL1        0.0234
     18 C         -28.0515   51.1272   -5.4527 C.ar    1  UNL1        0.0019
     19 C         -26.8658   51.7696   -5.0854 C.ar    1  UNL1        0.0295
     20 C         -26.0925   51.2701   -4.0366 C.ar    1  UNL1        0.1424
     21 F         -24.9416   51.8945   -3.6851 F       1  UNL1       -0.2041
     22 C         -26.5002   50.1216   -3.3562 C.ar    1  UNL1        0.0590
     23 C         -27.6851   49.4725   -3.7170 C.ar    1  UNL1        0.1399
     24 F         -28.0435   48.3458   -3.0498 F       1  UNL1       -0.2044
     25 C         -29.3815   46.7135   -5.5872 C.3     1  UNL1        0.1207
     26 C         -27.9988   46.3553   -5.1076 C.ar    1  UNL1       -0.0021
     27 C         -26.8751   46.6638   -5.8893 C.ar    1  UNL1       -0.0026
     28 C         -25.5920   46.3778   -5.4200 C.ar    1  UNL1       -0.0001
     29 C         -25.4172   45.7907   -4.1646 C.ar    1  UNL1        0.0064
     30 C         -26.5302   45.4835   -3.3619 C.ar    1  UNL1        0.0752
     31 C         -27.8196   45.7712   -3.8431 C.ar    1  UNL1        0.0038
     32 C         -26.3512   44.8724   -2.0263 C.2     1  UNL1        0.3380
     33 O         -27.2264   45.0251   -1.1315 O.2     1  UNL1       -0.2451
     34 O         -25.2133   44.1206   -1.7449 O.3     1  UNL1       -0.4771
     35 H         -25.0813   43.6972   -0.8342 H       1  UNL1        0.2954
@<TRIPOS>BOND
     1    15    16    1
     2    16    17    1
     3    17    18   ar
     4    18    19   ar
     5    19    20   ar
     6    20    21    1
     7    20    22   ar
     8    22    23   ar
     9    23    24    1
    10    16     1    1
    11     1    25    1
    12    25    26    1
    13    26    27   ar
    14    27    28   ar
    15    28    29   ar
    16    29    30   ar
    17    30    32    1
    18    32    33    2
    19    32    34    1
    20    30    31   ar
    21     1     2   am
    22     2     3    2
    23     2     4    1
    24     4     5   ar
    25     5     6   ar
    26     6     7   ar
    27     7     8   ar
    28     8     9   ar
    29     9    10   ar
    30    10    11   ar
    31    11    12   ar
    32    12    13    1
    33    12    14   ar
    34    23    17   ar
    35    31    26   ar
    36    14     4   ar
    37    11     6   ar
    38    34    35    1
@<TRIPOS>MOLECULE
*****
 35 38 0 0 0
SMALL
GASTEIGER

@<TRIPOS>ATOM
      1 N         -29.6006   46.5292   -7.3730 N.am    1  UNL1       -0.2685
      2 C         -28.4349   46.5306   -8.2179 C.2     1  UNL1        0.2673
      3 O         -28.1870   45.5212   -8.9326 O.2     1  UNL1       -0.2682
      4 C         -27.5093   47.6823   -8.2222 C.ar    1  UNL1        0.1370
      5 C         -27.1435   48.3137   -9.4210 C.ar    1  UNL1        0.0239
      6 C         -26.2496   49.3920   -9.3897 C.ar    1  UNL1        0.0053
      7 C         -25.8704   50.0437  -10.5737 C.ar    1  UNL1        0.0002
      8 C         -24.9773   51.1180  -10.5279 C.ar    1  UNL1        0.0000
      9 C         -24.4574   51.5485   -9.3043 C.ar    1  UNL1        0.0001
     10 C         -24.8267   50.9079   -8.1181 C.ar    1  UNL1        0.0038
     11 C         -25.7235   49.8271   -8.1513 C.ar    1  UNL1        0.0460
     12 C         -26.1129   49.1625   -6.9788 C.ar    1  UNL1        0.2223
     13 F         -25.6313   49.5438   -5.7688 F       1  UNL1       -0.1832
     14 N         -26.9819   48.1205   -7.0465 N.ar    1  UNL1       -0.2134
     15 C         -31.2650   47.5228   -8.9416 C.3     1  UNL1        0.0265
     16 C         -30.6156   47.5864   -7.5492 C.3     1  UNL1        0.1007
     17 C         -30.0315   48.9458   -7.1917 C.ar    1  UNL1        0.0234
     18 C         -29.7201   49.9095   -8.1745 C.ar    1  UNL1        0.0019
     19 C         -29.1426   51.1304   -7.8148 C.ar    1  UNL1        0.0295
     20 C         -28.8536   51.4032   -6.4771 C.ar    1  UNL1        0.1424
     21 F         -28.2908   52.5876   -6.1324 F       1  UNL1       -0.2041
     22 C         -29.1355   50.4519   -5.4955 C.ar    1  UNL1        0.0590
     23 C         -29.7134   49.2278   -5.8464 C.ar    1  UNL1        0.1399
     24 F         -29.9561   48.3150   -4.8711 F       1  UNL1       -0.2044
     25 C         -29.8666   45.3379   -6.5517 C.3     1  UNL1        0.1207
     26 C         -29.2684   45.5062   -5.1791 C.ar    1  UNL1       -0.0021
     27 C         -30.0611   45.3336   -4.0343 C.ar    1  UNL1       -0.0026
     28 C         -29.4933   45.4391   -2.7634 C.ar    1  UNL1       -0.0001
     29 C         -28.1298   45.7082   -2.6227 C.ar    1  UNL1        0.0064
     30 C         -27.3167   45.8741   -3.7579 C.ar    1  UNL1        0.0752
     31 C         -27.8967   45.7701   -5.0346 C.ar    1  UNL1        0.0038
     32 C         -25.8695   46.1476   -3.6157 C.2     1  UNL1        0.3380
     33 O         -25.1094   46.1036   -4.6208 O.2     1  UNL1       -0.2451
     34 O         -25.3328   46.4578   -2.3688 O.3     1  UNL1       -0.4771
     35 H         -24.3437   46.6476   -2.2605 H       1  UNL1        0.2954
@<TRIPOS>BOND
     1    15    16    1
     2    16    17    1
     3    17    18   ar
     4    18    19   ar
     5    19    20   ar
     6    20    21    1
     7    20    22   ar
     8    22    23   ar
     9    23    24    1
    10    16     1    1
    11     1    25    1
    12    25    26    1
    13    26    27   ar
    14    27    28   ar
    15    28    29   ar
    16    29    30   ar
    17    30    32    1
    18    32    33    2
    19    32    34    1
    20    30    31   ar
    21     1     2   am
    22     2     3    2
    23     2     4    1
    24     4     5   ar
    25     5     6   ar
    26     6     7   ar
    27     7     8   ar
    28     8     9   ar
    29     9    10   ar
    30    10    11   ar
    31    11    12   ar
    32    12    13    1
    33    12    14   ar
    34    23    17   ar
    35    31    26   ar
    36    14     4   ar
    37    11     6   ar
    38    34    35    1
