@<TRIPOS>MOLECULE
*****
 36 40 0 0 0
SMALL
GASTEIGER

@<TRIPOS>ATOM
      1 C         -21.9915   -9.5592  -16.1037 C.2     1  UNL1        0.2306
      2 O         -20.8326   -9.5961  -16.5992 O.2     1  UNL1       -0.2745
      3 N         -22.2257   -8.8025  -14.9042 N.am    1  UNL1       -0.2711
      4 C         -23.5288   -8.6497  -14.2524 C.3     1  UNL1        0.1202
      5 C         -23.2097   -7.8434  -13.0512 C.ar    1  UNL1       -0.0046
      6 C         -24.0730   -7.4641  -12.0238 C.ar    1  UNL1       -0.0015
      7 C         -23.5399   -6.7914  -10.9137 C.ar    1  UNL1        0.0199
      8 C         -22.1577   -6.5172  -10.8413 C.ar    1  UNL1        0.1249
      9 C         -21.3113   -6.8943  -11.9018 C.ar    1  UNL1        0.0173
     10 C         -21.8667   -7.5544  -12.9978 C.ar    1  UNL1       -0.0033
     11 C         -21.1572   -8.1258  -14.1672 C.3     1  UNL1        0.1202
     12 S         -21.4854   -5.8409   -9.3604 S.O2    1  UNL1        0.0748
     13 O         -20.3589   -4.8975   -9.6765 O.2     1  UNL1       -0.1499
     14 O         -22.5678   -5.0867   -8.6413 O.2     1  UNL1       -0.1499
     15 N         -20.8910   -7.1118   -8.3399 N.pl3   1  UNL1       -0.1962
     16 H         -20.9510   -6.9879   -7.3049 H       1  UNL1        0.1754
     17 C         -20.3314   -8.3178   -8.8695 C.ar    1  UNL1        0.1899
     18 C         -19.1980   -8.9526   -8.4188 C.ar    1  UNL1        0.1594
     19 N         -19.0601  -10.0756   -9.1487 N.ar    1  UNL1       -0.1433
     20 N         -20.0780  -10.0988  -10.0009 N.ar    1  UNL1       -0.1466
     21 N         -20.8706   -9.0460   -9.8607 N.ar    1  UNL1       -0.1299
     22 C         -20.3192  -11.1604  -10.9422 C.ar    1  UNL1        0.1029
     23 C         -21.2829  -11.0131  -11.9563 C.ar    1  UNL1        0.0209
     24 C         -21.5087  -12.0457  -12.8722 C.ar    1  UNL1        0.0016
     25 C         -20.7756  -13.2316  -12.7871 C.ar    1  UNL1        0.0001
     26 C         -19.8118  -13.3873  -11.7882 C.ar    1  UNL1        0.0016
     27 C         -19.5855  -12.3592  -10.8684 C.ar    1  UNL1        0.0209
     28 C         -23.0878  -10.3499  -16.7623 C.3     1  UNL1        0.1117
     29 C         -24.1175  -13.7327  -15.3090 C.ar    1  UNL1        0.1384
     30 C         -22.9566  -14.4815  -15.5320 C.ar    1  UNL1        0.0369
     31 C         -21.8450  -13.8995  -16.1446 C.ar    1  UNL1        0.0028
     32 C         -21.8824  -12.5609  -16.5399 C.ar    1  UNL1       -0.0036
     33 C         -23.0398  -11.7935  -16.3328 C.ar    1  UNL1       -0.0101
     34 C         -24.1530  -12.3824  -15.7084 C.ar    1  UNL1        0.0331
     35 C         -25.8269  -13.9180  -13.4947 C.3     1  UNL1        0.2525
     36 O         -25.2097  -14.3652  -14.6970 O.3     1  UNL1       -0.4714
@<TRIPOS>BOND
     1    35    36    1
     2    36    29    1
     3    29    30   ar
     4    30    31   ar
     5    31    32   ar
     6    32    33   ar
     7    33    28    1
     8    28     1    1
     9     1     2    2
    10     1     3   am
    11     3     4    1
    12     4     5    1
    13     5     6   ar
    14     6     7   ar
    15     7     8   ar
    16     8    12    1
    17    12    13    2
    18    12    14    2
    19    12    15    1
    20    15    17    1
    21    17    18   ar
    22    18    19   ar
    23    19    20   ar
    24    20    22    1
    25    22    23   ar
    26    23    24   ar
    27    24    25   ar
    28    25    26   ar
    29    26    27   ar
    30    20    21   ar
    31     8     9   ar
    32     9    10   ar
    33    10    11    1
    34    33    34   ar
    35    34    29   ar
    36    11     3    1
    37    10     5   ar
    38    21    17   ar
    39    27    22   ar
    40    15    16    1
@<TRIPOS>MOLECULE
*****
 36 40 0 0 0
SMALL
GASTEIGER

@<TRIPOS>ATOM
      1 C         -21.9475   -8.2237  -16.3910 C.2     1  UNL1        0.2306
      2 O         -20.8160   -7.8399  -16.7939 O.2     1  UNL1       -0.2745
      3 N         -22.2979   -8.0653  -15.0061 N.am    1  UNL1       -0.2711
      4 C         -23.5899   -8.4344  -14.4223 C.3     1  UNL1        0.1202
      5 C         -23.4077   -8.1271  -12.9846 C.ar    1  UNL1       -0.0046
      6 C         -24.3045   -8.3585  -11.9420 C.ar    1  UNL1       -0.0015
      7 C         -23.8883   -8.0943  -10.6282 C.ar    1  UNL1        0.0199
      8 C         -22.5859   -7.6144  -10.3748 C.ar    1  UNL1        0.1249
      9 C         -21.7069   -7.3710  -11.4479 C.ar    1  UNL1        0.0173
     10 C         -22.1471   -7.6337  -12.7451 C.ar    1  UNL1       -0.0033
     11 C         -21.3666   -7.5474  -14.0024 C.3     1  UNL1        0.1202
     12 S         -22.0253   -7.4678   -8.7115 S.O2    1  UNL1        0.0748
     13 O         -21.4347   -6.1064   -8.4730 O.2     1  UNL1       -0.1499
     14 O         -23.1966   -7.6609   -7.7903 O.2     1  UNL1       -0.1499
     15 N         -20.8233   -8.6735   -8.3782 N.pl3   1  UNL1       -0.1962
     16 H         -20.4179   -8.7196   -7.4171 H       1  UNL1        0.1754
     17 C         -20.3788   -9.6036   -9.3709 C.ar    1  UNL1        0.1899
     18 C         -19.1137  -10.1311   -9.4799 C.ar    1  UNL1        0.1594
     19 N         -19.1387  -11.0034  -10.5053 N.ar    1  UNL1       -0.1433
     20 N         -20.3773  -10.9875  -10.9836 N.ar    1  UNL1       -0.1466
     21 N         -21.1583  -10.1478  -10.3195 N.ar    1  UNL1       -0.1299
     22 C         -20.8338  -11.8128  -12.0707 C.ar    1  UNL1        0.1029
     23 C         -21.9233  -11.4123  -12.8654 C.ar    1  UNL1        0.0209
     24 C         -22.3587  -12.2153  -13.9244 C.ar    1  UNL1        0.0016
     25 C         -21.7116  -13.4216  -14.2021 C.ar    1  UNL1        0.0001
     26 C         -20.6249  -13.8271  -13.4239 C.ar    1  UNL1        0.0016
     27 C         -20.1888  -13.0293  -12.3621 C.ar    1  UNL1        0.0209
     28 C         -22.8818   -8.8802  -17.3693 C.3     1  UNL1        0.1117
     29 C         -25.0892   -7.1996  -19.9995 C.ar    1  UNL1        0.1384
     30 C         -25.2773   -5.9392  -19.4216 C.ar    1  UNL1        0.0369
     31 C         -24.6932   -5.6295  -18.1918 C.ar    1  UNL1        0.0028
     32 C         -23.9133   -6.5776  -17.5268 C.ar    1  UNL1       -0.0036
     33 C         -23.7181   -7.8511  -18.0850 C.ar    1  UNL1       -0.0101
     34 C         -24.3019   -8.1546  -19.3272 C.ar    1  UNL1        0.0331
     35 C         -25.3648   -8.5566  -22.0807 C.3     1  UNL1        0.2525
     36 O         -25.7032   -7.4643  -21.2326 O.3     1  UNL1       -0.4714
@<TRIPOS>BOND
     1    35    36    1
     2    36    29    1
     3    29    30   ar
     4    30    31   ar
     5    31    32   ar
     6    32    33   ar
     7    33    28    1
     8    28     1    1
     9     1     2    2
    10     1     3   am
    11     3     4    1
    12     4     5    1
    13     5     6   ar
    14     6     7   ar
    15     7     8   ar
    16     8    12    1
    17    12    13    2
    18    12    14    2
    19    12    15    1
    20    15    17    1
    21    17    18   ar
    22    18    19   ar
    23    19    20   ar
    24    20    22    1
    25    22    23   ar
    26    23    24   ar
    27    24    25   ar
    28    25    26   ar
    29    26    27   ar
    30    20    21   ar
    31     8     9   ar
    32     9    10   ar
    33    10    11    1
    34    33    34   ar
    35    34    29   ar
    36    11     3    1
    37    10     5   ar
    38    21    17   ar
    39    27    22   ar
    40    15    16    1
@<TRIPOS>MOLECULE
*****
 36 40 0 0 0
SMALL
GASTEIGER

@<TRIPOS>ATOM
      1 C         -14.3733   -0.2138  -20.3300 C.2     1  UNL1        0.2306
      2 O         -14.8593   -1.3610  -20.5237 O.2     1  UNL1       -0.2745
      3 N         -14.2311    0.2782  -18.9869 N.am    1  UNL1       -0.2711
      4 C         -13.6485    1.5734  -18.6275 C.3     1  UNL1        0.1202
      5 C         -13.7946    1.6088  -17.1536 C.ar    1  UNL1       -0.0046
      6 C         -13.4731    2.6545  -16.2889 C.ar    1  UNL1       -0.0015
      7 C         -13.7967    2.5246  -14.9297 C.ar    1  UNL1        0.0199
      8 C         -14.4423    1.3622  -14.4575 C.ar    1  UNL1        0.1249
      9 C         -14.7382    0.3130  -15.3491 C.ar    1  UNL1        0.0173
     10 C         -14.3991    0.4629  -16.6937 C.ar    1  UNL1       -0.0033
     11 C         -14.7026   -0.4596  -17.8137 C.3     1  UNL1        0.1202
     12 S         -15.0040    1.3006  -12.7893 S.O2    1  UNL1        0.0748
     13 O         -15.4444   -0.0916  -12.4331 O.2     1  UNL1       -0.1499
     14 O         -13.8726    1.7019  -11.8856 O.2     1  UNL1       -0.1499
     15 N         -16.3353    2.3905  -12.5670 N.pl3   1  UNL1       -0.1962
     16 H         -16.1298    3.4035  -12.4192 H       1  UNL1        0.1754
     17 C         -17.6962    1.9478  -12.5864 C.ar    1  UNL1        0.1899
     18 C         -18.2001    0.9064  -13.3295 C.ar    1  UNL1        0.1594
     19 N         -19.5026    0.7894  -13.0092 N.ar    1  UNL1       -0.1433
     20 N         -19.7556    1.7319  -12.1089 N.ar    1  UNL1       -0.1466
     21 N         -18.6816    2.4557  -11.8284 N.ar    1  UNL1       -0.1299
     22 C         -21.0352    1.9242  -11.4788 C.ar    1  UNL1        0.1029
     23 C         -21.1212    2.4617  -10.1817 C.ar    1  UNL1        0.0209
     24 C         -22.3676    2.6522   -9.5766 C.ar    1  UNL1        0.0016
     25 C         -23.5379    2.3114  -10.2588 C.ar    1  UNL1        0.0001
     26 C         -23.4656    1.7824  -11.5496 C.ar    1  UNL1        0.0016
     27 C         -22.2217    1.5869  -12.1565 C.ar    1  UNL1        0.0209
     28 C         -13.9981    0.6258  -21.5196 C.3     1  UNL1        0.1117
     29 C         -16.7123    1.4779  -24.0735 C.ar    1  UNL1        0.1384
     30 C         -17.5005    2.3680  -23.3357 C.ar    1  UNL1        0.0369
     31 C         -17.1584    2.6958  -22.0223 C.ar    1  UNL1        0.0028
     32 C         -16.0226    2.1372  -21.4328 C.ar    1  UNL1       -0.0036
     33 C         -15.2220    1.2359  -22.1525 C.ar    1  UNL1       -0.0101
     34 C         -15.5667    0.9157  -23.4771 C.ar    1  UNL1        0.0331
     35 C         -17.8388    2.0548  -26.2291 C.3     1  UNL1        0.2525
     36 O         -17.1024    1.1749  -25.3864 O.3     1  UNL1       -0.4714
@<TRIPOS>BOND
     1    35    36    1
     2    36    29    1
     3    29    30   ar
     4    30    31   ar
     5    31    32   ar
     6    32    33   ar
     7    33    28    1
     8    28     1    1
     9     1     2    2
    10     1     3   am
    11     3     4    1
    12     4     5    1
    13     5     6   ar
    14     6     7   ar
    15     7     8   ar
    16     8    12    1
    17    12    13    2
    18    12    14    2
    19    12    15    1
    20    15    17    1
    21    17    18   ar
    22    18    19   ar
    23    19    20   ar
    24    20    22    1
    25    22    23   ar
    26    23    24   ar
    27    24    25   ar
    28    25    26   ar
    29    26    27   ar
    30    20    21   ar
    31     8     9   ar
    32     9    10   ar
    33    10    11    1
    34    33    34   ar
    35    34    29   ar
    36    11     3    1
    37    10     5   ar
    38    21    17   ar
    39    27    22   ar
    40    15    16    1
@<TRIPOS>MOLECULE
*****
 36 40 0 0 0
SMALL
GASTEIGER

@<TRIPOS>ATOM
      1 C         -19.3039   -9.2025   -8.5012 C.2     1  UNL1        0.2306
      2 O         -18.3139   -9.9272   -8.2103 O.2     1  UNL1       -0.2745
      3 N         -20.1841   -9.5991   -9.5661 N.am    1  UNL1       -0.2711
      4 C         -21.3853   -8.8672   -9.9753 C.3     1  UNL1        0.1202
      5 C         -21.8803   -9.6543  -11.1287 C.ar    1  UNL1       -0.0046
      6 C         -22.9641   -9.3651  -11.9573 C.ar    1  UNL1       -0.0015
      7 C         -23.1964  -10.1883  -13.0697 C.ar    1  UNL1        0.0199
      8 C         -22.3417  -11.2772  -13.3429 C.ar    1  UNL1        0.1249
      9 C         -21.2657  -11.5583  -12.4788 C.ar    1  UNL1        0.0173
     10 C         -21.0608  -10.7302  -11.3753 C.ar    1  UNL1       -0.0033
     11 C         -19.9450  -10.7779  -10.4005 C.3     1  UNL1        0.1202
     12 S         -22.5416  -12.1802  -14.8419 S.O2    1  UNL1        0.0748
     13 O         -21.9689  -13.5630  -14.7039 O.2     1  UNL1       -0.1499
     14 O         -24.0089  -12.2869  -15.1472 O.2     1  UNL1       -0.1499
     15 N         -21.7386  -11.3614  -16.1437 N.pl3   1  UNL1       -0.1962
     16 H         -21.0245  -11.8859  -16.6961 H       1  UNL1        0.1754
     17 C         -22.0278  -10.0019  -16.4847 C.ar    1  UNL1        0.1899
     18 C         -21.2684   -8.9038  -16.1560 C.ar    1  UNL1        0.1594
     19 N         -21.8609   -7.8337  -16.7187 N.ar    1  UNL1       -0.1433
     20 N         -22.9336   -8.2881  -17.3555 N.ar    1  UNL1       -0.1466
     21 N         -23.0674   -9.6010  -17.2343 N.ar    1  UNL1       -0.1299
     22 C         -23.8281   -7.4615  -18.1223 C.ar    1  UNL1        0.1029
     23 C         -24.1650   -6.1692  -17.6804 C.ar    1  UNL1        0.0209
     24 C         -25.0298   -5.3679  -18.4327 C.ar    1  UNL1        0.0016
     25 C         -25.5640   -5.8458  -19.6316 C.ar    1  UNL1        0.0001
     26 C         -25.2322   -7.1250  -20.0838 C.ar    1  UNL1        0.0016
     27 C         -24.3711   -7.9306  -19.3331 C.ar    1  UNL1        0.0209
     28 C         -19.5070   -7.9158   -7.7502 C.3     1  UNL1        0.1117
     29 C         -19.3749   -8.8811   -4.0534 C.ar    1  UNL1        0.1384
     30 C         -18.1631   -8.2960   -3.6697 C.ar    1  UNL1        0.0369
     31 C         -17.3927   -7.5903   -4.5960 C.ar    1  UNL1        0.0028
     32 C         -17.8269   -7.4613   -5.9166 C.ar    1  UNL1       -0.0036
     33 C         -19.0359   -8.0471   -6.3248 C.ar    1  UNL1       -0.0101
     34 C         -19.8113   -8.7496   -5.3862 C.ar    1  UNL1        0.0331
     35 C         -21.4624   -9.3085   -2.7464 C.3     1  UNL1        0.2525
     36 O         -20.1084   -9.5860   -3.0877 O.3     1  UNL1       -0.4714
@<TRIPOS>BOND
     1    35    36    1
     2    36    29    1
     3    29    30   ar
     4    30    31   ar
     5    31    32   ar
     6    32    33   ar
     7    33    28    1
     8    28     1    1
     9     1     2    2
    10     1     3   am
    11     3     4    1
    12     4     5    1
    13     5     6   ar
    14     6     7   ar
    15     7     8   ar
    16     8    12    1
    17    12    13    2
    18    12    14    2
    19    12    15    1
    20    15    17    1
    21    17    18   ar
    22    18    19   ar
    23    19    20   ar
    24    20    22    1
    25    22    23   ar
    26    23    24   ar
    27    24    25   ar
    28    25    26   ar
    29    26    27   ar
    30    20    21   ar
    31     8     9   ar
    32     9    10   ar
    33    10    11    1
    34    33    34   ar
    35    34    29   ar
    36    11     3    1
    37    10     5   ar
    38    21    17   ar
    39    27    22   ar
    40    15    16    1
@<TRIPOS>MOLECULE
*****
 36 40 0 0 0
SMALL
GASTEIGER

@<TRIPOS>ATOM
      1 C         -21.9706  -10.0570  -16.3362 C.2     1  UNL1        0.2306
      2 O         -20.7785  -10.2458  -16.7011 O.2     1  UNL1       -0.2745
      3 N         -22.2452   -9.1558  -15.2505 N.am    1  UNL1       -0.2711
      4 C         -23.5840   -8.8227  -14.7578 C.3     1  UNL1        0.1202
      5 C         -23.3058   -7.9190  -13.6174 C.ar    1  UNL1       -0.0046
      6 C         -24.2232   -7.3574  -12.7298 C.ar    1  UNL1       -0.0015
      7 C         -23.7369   -6.6140  -11.6435 C.ar    1  UNL1        0.0199
      8 C         -22.3481   -6.4512  -11.4546 C.ar    1  UNL1        0.1249
      9 C         -21.4441   -7.0128  -12.3769 C.ar    1  UNL1        0.0173
     10 C         -21.9527   -7.7403  -13.4528 C.ar    1  UNL1       -0.0033
     11 C         -21.1924   -8.4947  -14.4776 C.3     1  UNL1        0.1202
     12 S         -21.7589   -5.6753   -9.9872 S.O2    1  UNL1        0.0748
     13 O         -20.3268   -5.2507  -10.1548 O.2     1  UNL1       -0.1499
     14 O         -22.6002   -4.4607   -9.7142 O.2     1  UNL1       -0.1499
     15 N         -21.8724   -6.7700   -8.6462 N.pl3   1  UNL1       -0.1962
     16 H         -22.7709   -6.8162   -8.1163 H       1  UNL1        0.1754
     17 C         -20.7827   -7.6096   -8.2514 C.ar    1  UNL1        0.1899
     18 C         -20.2678   -8.6624   -8.9704 C.ar    1  UNL1        0.1594
     19 N         -19.2202   -9.1399   -8.2723 N.ar    1  UNL1       -0.1433
     20 N         -19.1241   -8.3931   -7.1786 N.ar    1  UNL1       -0.1466
     21 N         -20.0577   -7.4539   -7.1317 N.ar    1  UNL1       -0.1299
     22 C         -18.1031   -8.5552   -6.1773 C.ar    1  UNL1        0.1029
     23 C         -17.7164   -9.8385   -5.7499 C.ar    1  UNL1        0.0209
     24 C         -16.7193   -9.9903   -4.7810 C.ar    1  UNL1        0.0016
     25 C         -16.0979   -8.8662   -4.2319 C.ar    1  UNL1        0.0001
     26 C         -16.4691   -7.5871   -4.6525 C.ar    1  UNL1        0.0016
     27 C         -17.4679   -7.4307   -5.6180 C.ar    1  UNL1        0.0209
     28 C         -23.0693  -10.8200  -17.0230 C.3     1  UNL1        0.1117
     29 C         -24.5163  -13.9652  -15.4016 C.ar    1  UNL1        0.1384
     30 C         -23.4021  -14.8114  -15.4236 C.ar    1  UNL1        0.0369
     31 C         -22.1884  -14.3708  -15.9550 C.ar    1  UNL1        0.0028
     32 C         -22.0758  -13.0777  -16.4694 C.ar    1  UNL1       -0.0036
     33 C         -23.1834  -12.2148  -16.4642 C.ar    1  UNL1       -0.0101
     34 C         -24.4005  -12.6610  -15.9208 C.ar    1  UNL1        0.0331
     35 C         -26.4351  -13.8364  -13.8047 C.3     1  UNL1        0.2525
     36 O         -25.7148  -14.4574  -14.8641 O.3     1  UNL1       -0.4714
@<TRIPOS>BOND
     1    35    36    1
     2    36    29    1
     3    29    30   ar
     4    30    31   ar
     5    31    32   ar
     6    32    33   ar
     7    33    28    1
     8    28     1    1
     9     1     2    2
    10     1     3   am
    11     3     4    1
    12     4     5    1
    13     5     6   ar
    14     6     7   ar
    15     7     8   ar
    16     8    12    1
    17    12    13    2
    18    12    14    2
    19    12    15    1
    20    15    17    1
    21    17    18   ar
    22    18    19   ar
    23    19    20   ar
    24    20    22    1
    25    22    23   ar
    26    23    24   ar
    27    24    25   ar
    28    25    26   ar
    29    26    27   ar
    30    20    21   ar
    31     8     9   ar
    32     9    10   ar
    33    10    11    1
    34    33    34   ar
    35    34    29   ar
    36    11     3    1
    37    10     5   ar
    38    21    17   ar
    39    27    22   ar
    40    15    16    1
@<TRIPOS>MOLECULE
*****
 36 40 0 0 0
SMALL
GASTEIGER

@<TRIPOS>ATOM
      1 C         -26.8514   -6.3615  -13.5773 C.2     1  UNL1        0.2306
      2 O         -27.3824   -7.4653  -13.8767 O.2     1  UNL1       -0.2745
      3 N         -25.6209   -6.3452  -12.8346 N.am    1  UNL1       -0.2711
      4 C         -24.8864   -5.1347  -12.4586 C.3     1  UNL1        0.1202
      5 C         -23.7487   -5.6643  -11.6714 C.ar    1  UNL1       -0.0046
      6 C         -22.7646   -4.9396  -10.9998 C.ar    1  UNL1       -0.0015
      7 C         -21.8348   -5.6387  -10.2150 C.ar    1  UNL1        0.0199
      8 C         -21.9067   -7.0435  -10.1048 C.ar    1  UNL1        0.1249
      9 C         -22.8989   -7.7525  -10.8092 C.ar    1  UNL1        0.0173
     10 C         -23.8062   -7.0354  -11.5890 C.ar    1  UNL1       -0.0033
     11 C         -24.9801   -7.5596  -12.3270 C.3     1  UNL1        0.1202
     12 S         -20.8488   -7.8784   -8.9707 S.O2    1  UNL1        0.0748
     13 O         -20.2335   -6.9019   -8.0080 O.2     1  UNL1       -0.1499
     14 O         -21.6636   -8.8779   -8.1994 O.2     1  UNL1       -0.1499
     15 N         -19.5853   -8.7017   -9.8283 N.pl3   1  UNL1       -0.1962
     16 H         -18.6406   -8.2588   -9.8681 H       1  UNL1        0.1754
     17 C         -19.7952   -9.9626  -10.4720 C.ar    1  UNL1        0.1899
     18 C         -19.1990  -11.1549  -10.1349 C.ar    1  UNL1        0.1594
     19 N         -19.7161  -12.0961  -10.9471 N.ar    1  UNL1       -0.1433
     20 N         -20.5860  -11.4767  -11.7361 N.ar    1  UNL1       -0.1466
     21 N         -20.6596  -10.1793  -11.4766 N.ar    1  UNL1       -0.1299
     22 C         -21.3869  -12.1389  -12.7318 C.ar    1  UNL1        0.1029
     23 C         -22.7437  -11.8061  -12.8968 C.ar    1  UNL1        0.0209
     24 C         -23.5158  -12.4483  -13.8702 C.ar    1  UNL1        0.0016
     25 C         -22.9427  -13.4248  -14.6883 C.ar    1  UNL1        0.0001
     26 C         -21.5950  -13.7595  -14.5379 C.ar    1  UNL1        0.0016
     27 C         -20.8207  -13.1227  -13.5637 C.ar    1  UNL1        0.0209
     28 C         -27.5507   -5.0896  -13.9701 C.3     1  UNL1        0.1117
     29 C         -27.8514   -3.5992  -17.4778 C.ar    1  UNL1        0.1384
     30 C         -26.6560   -4.0397  -18.0564 C.ar    1  UNL1        0.0369
     31 C         -25.7577   -4.8165  -17.3221 C.ar    1  UNL1        0.0028
     32 C         -26.0463   -5.1621  -16.0005 C.ar    1  UNL1       -0.0036
     33 C         -27.2364   -4.7242  -15.3979 C.ar    1  UNL1       -0.0101
     34 C         -28.1408   -3.9492  -16.1444 C.ar    1  UNL1        0.0331
     35 C         -30.0451   -2.4689  -17.8762 C.3     1  UNL1        0.2525
     36 O         -28.7171   -2.8150  -18.2546 O.3     1  UNL1       -0.4714
@<TRIPOS>BOND
     1    35    36    1
     2    36    29    1
     3    29    30   ar
     4    30    31   ar
     5    31    32   ar
     6    32    33   ar
     7    33    28    1
     8    28     1    1
     9     1     2    2
    10     1     3   am
    11     3     4    1
    12     4     5    1
    13     5     6   ar
    14     6     7   ar
    15     7     8   ar
    16     8    12    1
    17    12    13    2
    18    12    14    2
    19    12    15    1
    20    15    17    1
    21    17    18   ar
    22    18    19   ar
    23    19    20   ar
    24    20    22    1
    25    22    23   ar
    26    23    24   ar
    27    24    25   ar
    28    25    26   ar
    29    26    27   ar
    30    20    21   ar
    31     8     9   ar
    32     9    10   ar
    33    10    11    1
    34    33    34   ar
    35    34    29   ar
    36    11     3    1
    37    10     5   ar
    38    21    17   ar
    39    27    22   ar
    40    15    16    1
@<TRIPOS>MOLECULE
*****
 36 40 0 0 0
SMALL
GASTEIGER

@<TRIPOS>ATOM
      1 C         -26.9950   -6.2537  -13.6129 C.2     1  UNL1        0.2306
      2 O         -27.6486   -7.3116  -13.8218 O.2     1  UNL1       -0.2745
      3 N         -25.7818   -6.3104  -12.8440 N.am    1  UNL1       -0.2711
      4 C         -24.9146   -5.1635  -12.5636 C.3     1  UNL1        0.1202
      5 C         -23.8588   -5.7448  -11.7021 C.ar    1  UNL1       -0.0046
      6 C         -22.8054   -5.0791  -11.0760 C.ar    1  UNL1       -0.0015
      7 C         -21.9761   -5.8039  -10.2065 C.ar    1  UNL1        0.0199
      8 C         -22.2153   -7.1739   -9.9683 C.ar    1  UNL1        0.1249
      9 C         -23.2745   -7.8261  -10.6287 C.ar    1  UNL1        0.0173
     10 C         -24.0793   -7.0857  -11.4944 C.ar    1  UNL1       -0.0033
     11 C         -25.2965   -7.5373  -12.2099 C.3     1  UNL1        0.1202
     12 S         -21.2799   -8.0147   -8.7353 S.O2    1  UNL1        0.0748
     13 O         -20.3108   -7.0735   -8.0765 O.2     1  UNL1       -0.1499
     14 O         -22.2245   -8.5500   -7.6966 O.2     1  UNL1       -0.1499
     15 N         -20.3989   -9.3288   -9.4471 N.pl3   1  UNL1       -0.1962
     16 H         -19.6137   -9.7529   -8.9050 H       1  UNL1        0.1754
     17 C         -20.7173   -9.8494  -10.7416 C.ar    1  UNL1        0.1899
     18 C         -20.8128  -11.1785  -11.0807 C.ar    1  UNL1        0.1594
     19 N         -21.1890  -11.2283  -12.3726 N.ar    1  UNL1       -0.1433
     20 N         -21.3090   -9.9701  -12.7791 N.ar    1  UNL1       -0.1466
     21 N         -21.0292   -9.1050  -11.8150 N.ar    1  UNL1       -0.1299
     22 C         -21.7314   -9.5850  -14.0999 C.ar    1  UNL1        0.1029
     23 C         -21.7928  -10.5333  -15.1371 C.ar    1  UNL1        0.0209
     24 C         -22.2100  -10.1547  -16.4173 C.ar    1  UNL1        0.0016
     25 C         -22.5715   -8.8302  -16.6741 C.ar    1  UNL1        0.0001
     26 C         -22.5205   -7.8808  -15.6509 C.ar    1  UNL1        0.0016
     27 C         -22.1005   -8.2541  -14.3709 C.ar    1  UNL1        0.0209
     28 C         -27.5331   -4.9522  -14.1395 C.3     1  UNL1        0.1117
     29 C         -27.2853   -3.5479  -17.6866 C.ar    1  UNL1        0.1384
     30 C         -26.1680   -4.2392  -18.1680 C.ar    1  UNL1        0.0369
     31 C         -25.4985   -5.1565  -17.3557 C.ar    1  UNL1        0.0028
     32 C         -25.9405   -5.3932  -16.0526 C.ar    1  UNL1       -0.0036
     33 C         -27.0549   -4.7048  -15.5469 C.ar    1  UNL1       -0.0101
     34 C         -27.7298   -3.7883  -16.3718 C.ar    1  UNL1        0.0331
     35 C         -29.3222   -2.3949  -18.5644 C.3     1  UNL1        0.2525
     36 O         -27.9186   -2.6313  -18.5390 O.3     1  UNL1       -0.4714
@<TRIPOS>BOND
     1    35    36    1
     2    36    29    1
     3    29    30   ar
     4    30    31   ar
     5    31    32   ar
     6    32    33   ar
     7    33    28    1
     8    28     1    1
     9     1     2    2
    10     1     3   am
    11     3     4    1
    12     4     5    1
    13     5     6   ar
    14     6     7   ar
    15     7     8   ar
    16     8    12    1
    17    12    13    2
    18    12    14    2
    19    12    15    1
    20    15    17    1
    21    17    18   ar
    22    18    19   ar
    23    19    20   ar
    24    20    22    1
    25    22    23   ar
    26    23    24   ar
    27    24    25   ar
    28    25    26   ar
    29    26    27   ar
    30    20    21   ar
    31     8     9   ar
    32     9    10   ar
    33    10    11    1
    34    33    34   ar
    35    34    29   ar
    36    11     3    1
    37    10     5   ar
    38    21    17   ar
    39    27    22   ar
    40    15    16    1
@<TRIPOS>MOLECULE
*****
 36 40 0 0 0
SMALL
GASTEIGER

@<TRIPOS>ATOM
      1 C         -29.4024   -5.3131  -15.0149 C.2     1  UNL1        0.2306
      2 O         -30.2428   -6.1543  -15.4345 O.2     1  UNL1       -0.2745
      3 N         -28.2362   -5.7682  -14.3086 N.am    1  UNL1       -0.2711
      4 C         -27.1704   -4.8982  -13.8052 C.3     1  UNL1        0.1202
      5 C         -26.2606   -5.8456  -13.1199 C.ar    1  UNL1       -0.0046
      6 C         -25.1103   -5.5477  -12.3899 C.ar    1  UNL1       -0.0015
      7 C         -24.4505   -6.5909  -11.7224 C.ar    1  UNL1        0.0199
      8 C         -24.9518   -7.9083  -11.7851 C.ar    1  UNL1        0.1249
      9 C         -26.1046   -8.1847  -12.5454 C.ar    1  UNL1        0.0173
     10 C         -26.7375   -7.1321  -13.2063 C.ar    1  UNL1       -0.0033
     11 C         -28.0060   -7.1742  -13.9723 C.3     1  UNL1        0.1202
     12 S         -24.2164   -9.1629  -10.7914 S.O2    1  UNL1        0.0748
     13 O         -24.0954   -8.7020   -9.3659 O.2     1  UNL1       -0.1499
     14 O         -25.0882  -10.3858  -10.8376 O.2     1  UNL1       -0.1499
     15 N         -22.6384   -9.5551  -11.3963 N.pl3   1  UNL1       -0.1962
     16 H         -21.8499   -8.9026  -11.1895 H       1  UNL1        0.1754
     17 C         -22.3853  -10.7398  -12.1583 C.ar    1  UNL1        0.1899
     18 C         -21.2221  -11.4730  -12.1560 C.ar    1  UNL1        0.1594
     19 N         -21.4251  -12.5343  -12.9593 N.ar    1  UNL1       -0.1433
     20 N         -22.6660  -12.4272  -13.4193 N.ar    1  UNL1       -0.1466
     21 N         -23.2794  -11.3483  -12.9545 N.ar    1  UNL1       -0.1299
     22 C         -23.2904  -13.3882  -14.2898 C.ar    1  UNL1        0.1029
     23 C         -22.5164  -14.3400  -14.9782 C.ar    1  UNL1        0.0209
     24 C         -23.1290  -15.2755  -15.8181 C.ar    1  UNL1        0.0016
     25 C         -24.5168  -15.2725  -15.9773 C.ar    1  UNL1        0.0001
     26 C         -25.2965  -14.3362  -15.2944 C.ar    1  UNL1        0.0016
     27 C         -24.6878  -13.3969  -14.4569 C.ar    1  UNL1        0.0209
     28 C         -29.6721   -3.8494  -15.2287 C.3     1  UNL1        0.1117
     29 C         -27.6835   -3.5312  -18.4782 C.ar    1  UNL1        0.1384
     30 C         -28.4893   -2.6406  -19.1961 C.ar    1  UNL1        0.0369
     31 C         -29.6667   -2.1412  -18.6356 C.ar    1  UNL1        0.0028
     32 C         -30.0502   -2.5268  -17.3497 C.ar    1  UNL1       -0.0036
     33 C         -29.2603   -3.4255  -16.6149 C.ar    1  UNL1       -0.0101
     34 C         -28.0720   -3.9188  -17.1810 C.ar    1  UNL1        0.0331
     35 C         -25.7799   -5.1435  -18.6379 C.3     1  UNL1        0.2525
     36 O         -26.5146   -4.0103  -19.0881 O.3     1  UNL1       -0.4714
@<TRIPOS>BOND
     1    35    36    1
     2    36    29    1
     3    29    30   ar
     4    30    31   ar
     5    31    32   ar
     6    32    33   ar
     7    33    28    1
     8    28     1    1
     9     1     2    2
    10     1     3   am
    11     3     4    1
    12     4     5    1
    13     5     6   ar
    14     6     7   ar
    15     7     8   ar
    16     8    12    1
    17    12    13    2
    18    12    14    2
    19    12    15    1
    20    15    17    1
    21    17    18   ar
    22    18    19   ar
    23    19    20   ar
    24    20    22    1
    25    22    23   ar
    26    23    24   ar
    27    24    25   ar
    28    25    26   ar
    29    26    27   ar
    30    20    21   ar
    31     8     9   ar
    32     9    10   ar
    33    10    11    1
    34    33    34   ar
    35    34    29   ar
    36    11     3    1
    37    10     5   ar
    38    21    17   ar
    39    27    22   ar
    40    15    16    1
@<TRIPOS>MOLECULE
*****
 36 40 0 0 0
SMALL
GASTEIGER

@<TRIPOS>ATOM
      1 C         -27.4575   -4.9906  -14.7336 C.2     1  UNL1        0.2306
      2 O         -26.6404   -4.2323  -15.3229 O.2     1  UNL1       -0.2745
      3 N         -27.0196   -5.7621  -13.6026 N.am    1  UNL1       -0.2711
      4 C         -27.8772   -6.6479  -12.8113 C.3     1  UNL1        0.1202
      5 C         -26.9372   -7.2320  -11.8265 C.ar    1  UNL1       -0.0046
      6 C         -27.2038   -8.2082  -10.8670 C.ar    1  UNL1       -0.0015
      7 C         -26.1376   -8.7066  -10.1029 C.ar    1  UNL1        0.0199
      8 C         -24.8254   -8.2324  -10.3135 C.ar    1  UNL1        0.1249
      9 C         -24.5872   -7.2321  -11.2758 C.ar    1  UNL1        0.0173
     10 C         -25.6648   -6.7472  -12.0166 C.ar    1  UNL1       -0.0033
     11 C         -25.6315   -5.7782  -13.1380 C.3     1  UNL1        0.1202
     12 S         -23.4812   -9.0031   -9.4760 S.O2    1  UNL1        0.0748
     13 O         -22.9918   -8.1324   -8.3530 O.2     1  UNL1       -0.1499
     14 O         -23.9542  -10.3119   -8.9096 O.2     1  UNL1       -0.1499
     15 N         -22.1751   -9.2903  -10.5812 N.pl3   1  UNL1       -0.1962
     16 H         -21.3696   -8.6259  -10.5830 H       1  UNL1        0.1754
     17 C         -22.1653  -10.4050  -11.4788 C.ar    1  UNL1        0.1899
     18 C         -21.0737  -11.1753  -11.8040 C.ar    1  UNL1        0.1594
     19 N         -21.5100  -12.1474  -12.6271 N.ar    1  UNL1       -0.1433
     20 N         -22.8145  -11.9534  -12.7814 N.ar    1  UNL1       -0.1466
     21 N         -23.2473  -10.9031  -12.0991 N.ar    1  UNL1       -0.1299
     22 C         -23.6703  -12.8046  -13.5653 C.ar    1  UNL1        0.1029
     23 C         -25.0428  -12.9042  -13.2735 C.ar    1  UNL1        0.0209
     24 C         -25.8710  -13.7280  -14.0425 C.ar    1  UNL1        0.0016
     25 C         -25.3399  -14.4571  -15.1091 C.ar    1  UNL1        0.0001
     26 C         -23.9798  -14.3618  -15.4123 C.ar    1  UNL1        0.0016
     27 C         -23.1478  -13.5424  -14.6439 C.ar    1  UNL1        0.0209
     28 C         -28.8603   -5.0981  -15.2642 C.3     1  UNL1        0.1117
     29 C         -28.3905   -2.8934  -18.3519 C.ar    1  UNL1        0.1384
     30 C         -29.5707   -2.1422  -18.3233 C.ar    1  UNL1        0.0369
     31 C         -30.5129   -2.3415  -17.3124 C.ar    1  UNL1        0.0028
     32 C         -30.2841   -3.2944  -16.3179 C.ar    1  UNL1       -0.0036
     33 C         -29.1102   -4.0645  -16.3319 C.ar    1  UNL1       -0.0101
     34 C         -28.1614   -3.8540  -17.3475 C.ar    1  UNL1        0.0331
     35 C         -27.7729   -1.9093  -20.5652 C.3     1  UNL1        0.2525
     36 O         -27.4790   -2.6609  -19.3924 O.3     1  UNL1       -0.4714
@<TRIPOS>BOND
     1    35    36    1
     2    36    29    1
     3    29    30   ar
     4    30    31   ar
     5    31    32   ar
     6    32    33   ar
     7    33    28    1
     8    28     1    1
     9     1     2    2
    10     1     3   am
    11     3     4    1
    12     4     5    1
    13     5     6   ar
    14     6     7   ar
    15     7     8   ar
    16     8    12    1
    17    12    13    2
    18    12    14    2
    19    12    15    1
    20    15    17    1
    21    17    18   ar
    22    18    19   ar
    23    19    20   ar
    24    20    22    1
    25    22    23   ar
    26    23    24   ar
    27    24    25   ar
    28    25    26   ar
    29    26    27   ar
    30    20    21   ar
    31     8     9   ar
    32     9    10   ar
    33    10    11    1
    34    33    34   ar
    35    34    29   ar
    36    11     3    1
    37    10     5   ar
    38    21    17   ar
    39    27    22   ar
    40    15    16    1
