@<TRIPOS>MOLECULE
*****
 52 57 0 0 0
SMALL
GASTEIGER

@<TRIPOS>ATOM
      1 N          10.4020   76.5539   25.6097 N.am    1  UNL1       -0.2945
      2 C          10.2809   75.5915   24.5469 C.2     1  UNL1        0.2483
      3 O          11.2521   74.8335   24.2755 O.2     1  UNL1       -0.2701
      4 H           9.6088   77.2070   25.7895 H       1  UNL1        0.1501
      5 C           9.0078   75.4145   23.8104 C.ar    1  UNL1        0.0808
      6 C           8.9832   75.6513   22.4257 C.ar    1  UNL1        0.0080
      7 C           7.8036   75.4916   21.6959 C.ar    1  UNL1        0.0148
      8 C           6.6189   75.0951   22.3361 C.ar    1  UNL1        0.0502
      9 C           6.6420   74.8517   23.7187 C.ar    1  UNL1        0.0443
     10 C           7.8195   75.0200   24.4551 C.ar    1  UNL1        0.1457
     11 F           7.7724   74.8527   25.8005 F       1  UNL1       -0.2040
     12 N           5.3899   74.9583   21.5929 N.pl3   1  UNL1       -0.3040
     13 C           4.4598   76.0884   21.4871 C.3     1  UNL1        0.1123
     14 C           3.0213   75.5870   21.5956 C.3     1  UNL1        0.1136
     15 N           2.8066   74.4598   20.6783 N.pl3   1  UNL1       -0.2897
     16 C           3.7519   73.3354   20.7354 C.3     1  UNL1        0.1136
     17 C           5.1945   73.8423   20.6605 C.3     1  UNL1        0.1123
     18 C           1.5524   74.3438   19.9760 C.ar    1  UNL1        0.1318
     19 C           0.9758   75.4462   19.3241 C.ar    1  UNL1        0.0343
     20 C          -0.2382   75.2929   18.6530 C.ar    1  UNL1        0.0083
     21 C          -0.8878   74.0496   18.6418 C.ar    1  UNL1        0.0906
     22 C          -0.2620   72.9653   19.2757 C.ar    1  UNL1        0.1041
     23 N           0.9212   73.1382   19.9218 N.ar    1  UNL1       -0.2292
     24 C          -2.1732   73.8586   17.8778 C.3     1  UNL1        0.4200
     25 F          -3.1271   74.7723   18.2916 F       1  UNL1       -0.1658
     26 F          -2.6767   72.5852   18.0802 F       1  UNL1       -0.1658
     27 F          -1.9320   74.0388   16.5286 F       1  UNL1       -0.1658
     28 C          11.4062   76.4151   26.6717 C.3     1  UNL1        0.1535
     29 C          12.6661   77.1437   26.2822 C.2     1  UNL1        0.2443
     30 O          13.4347   77.5634   27.1895 O.2     1  UNL1       -0.2730
     31 N          13.0223   77.3066   24.8981 N.am    1  UNL1       -0.2825
     32 H          12.5485   76.7003   24.1915 H       1  UNL1        0.1549
     33 C          14.0649   78.1811   24.4343 C.ar    1  UNL1        0.0535
     34 C          15.0412   77.7437   23.5229 C.ar    1  UNL1        0.0353
     35 C          16.0508   78.6219   23.1209 C.ar    1  UNL1        0.1002
     36 N          16.0954   79.8854   23.6198 N.ar    1  UNL1       -0.2422
     37 C          15.1756   80.3294   24.5165 C.ar    1  UNL1        0.1002
     38 C          14.1502   79.4833   24.9459 C.ar    1  UNL1        0.0353
     39 C          10.8575   76.9429   28.0120 C.3     1  UNL1        0.0569
     40 C           6.0773   75.1318   29.5049 C.ar    1  UNL1        0.0361
     41 C           6.3908   76.4102   28.9652 C.ar    1  UNL1        0.0029
     42 C           7.7196   76.7708   28.6880 C.ar    1  UNL1        0.0013
     43 C           8.7204   75.8418   28.9615 C.ar    1  UNL1        0.0131
     44 C          10.0845   75.8802   28.7409 C.ar    1  UNL1       -0.0017
     45 C          10.5626   74.6351   29.1373 C.ar    1  UNL1        0.0681
     46 N           9.5496   73.8659   29.5977 N.ar    1  UNL1       -0.3523
     47 C           8.4346   74.6079   29.4796 C.ar    1  UNL1        0.0564
     48 C           7.1274   74.2164   29.7626 C.ar    1  UNL1        0.0198
     49 H           9.6180   72.8802   29.9354 H       1  UNL1        0.1660
     50 C           4.1782   73.3442   29.5831 C.3     1  UNL1        0.0773
     51 C           4.6714   74.7445   29.7925 C.2     1  UNL1        0.1735
     52 O           3.8595   75.6088   30.2218 O.2     1  UNL1       -0.2913
@<TRIPOS>BOND
     1    50    51    1
     2    51    52    2
     3    51    40    1
     4    40    41   ar
     5    41    42   ar
     6    42    43   ar
     7    43    44   ar
     8    44    39    1
     9    39    28    1
    10    28     1    1
    11     1     2   am
    12     2     3    2
    13     2     5    1
    14     5     6   ar
    15     6     7   ar
    16     7     8   ar
    17     8    12    1
    18    12    13    1
    19    13    14    1
    20    14    15    1
    21    15    18    1
    22    18    19   ar
    23    19    20   ar
    24    20    21   ar
    25    21    24    1
    26    24    25    1
    27    24    26    1
    28    24    27    1
    29    21    22   ar
    30    22    23   ar
    31    15    16    1
    32    16    17    1
    33     8     9   ar
    34     9    10   ar
    35    10    11    1
    36    28    29    1
    37    29    30    2
    38    29    31   am
    39    31    33    1
    40    33    34   ar
    41    34    35   ar
    42    35    36   ar
    43    36    37   ar
    44    37    38   ar
    45    44    45   ar
    46    45    46   ar
    47    46    47   ar
    48    47    48   ar
    49    48    40   ar
    50    47    43   ar
    51    10     5   ar
    52    38    33   ar
    53    17    12    1
    54    23    18   ar
    55     1     4    1
    56    31    32    1
    57    46    49    1
@<TRIPOS>MOLECULE
*****
 52 57 0 0 0
SMALL
GASTEIGER

@<TRIPOS>ATOM
      1 N          10.2198   77.0616   26.0556 N.am    1  UNL1       -0.2945
      2 C          10.0681   75.9566   25.1465 C.2     1  UNL1        0.2483
      3 O          11.0317   75.1645   24.9583 O.2     1  UNL1       -0.2701
      4 H           9.4315   77.7362   26.1630 H       1  UNL1        0.1501
      5 C           8.7739   75.6793   24.4814 C.ar    1  UNL1        0.0808
      6 C           8.6560   75.9043   23.0995 C.ar    1  UNL1        0.0080
      7 C           7.4539   75.6513   22.4359 C.ar    1  UNL1        0.0148
      8 C           6.3391   75.1711   23.1411 C.ar    1  UNL1        0.0502
      9 C           6.4558   74.9395   24.5210 C.ar    1  UNL1        0.0443
     10 C           7.6555   75.2009   25.1913 C.ar    1  UNL1        0.1457
     11 F           7.6945   75.0396   26.5377 F       1  UNL1       -0.2040
     12 N           5.0853   74.9372   22.4667 N.pl3   1  UNL1       -0.3040
     13 C           4.9026   73.7386   21.6400 C.3     1  UNL1        0.1123
     14 C           4.1126   74.0929   20.3819 C.3     1  UNL1        0.1136
     15 N           2.9032   74.8469   20.7380 N.pl3   1  UNL1       -0.2897
     16 C           3.0562   76.0264   21.6020 C.3     1  UNL1        0.1136
     17 C           3.8770   75.6779   22.8463 C.3     1  UNL1        0.1123
     18 C           1.6765   74.6034   20.0200 C.ar    1  UNL1        0.1318
     19 C           1.0661   75.6105   19.2545 C.ar    1  UNL1        0.0343
     20 C          -0.1196   75.3347   18.5719 C.ar    1  UNL1        0.0083
     21 C          -0.7078   74.0643   18.6613 C.ar    1  UNL1        0.0906
     22 C          -0.0486   73.0761   19.4083 C.ar    1  UNL1        0.1041
     23 N           1.1060   73.3675   20.0635 N.ar    1  UNL1       -0.2292
     24 C          -1.9602   73.7389   17.8881 C.3     1  UNL1        0.4200
     25 F          -1.8276   74.1169   16.5631 F       1  UNL1       -0.1658
     26 F          -3.0500   74.4052   18.4214 F       1  UNL1       -0.1658
     27 F          -2.1912   72.3773   17.9474 F       1  UNL1       -0.1658
     28 C          11.2554   77.0740   27.0961 C.3     1  UNL1        0.1535
     29 C          12.5916   77.4038   26.4834 C.2     1  UNL1        0.2443
     30 O          13.6310   77.2961   27.1893 O.2     1  UNL1       -0.2730
     31 N          12.6924   77.7768   25.0978 N.am    1  UNL1       -0.2825
     32 H          11.8852   77.5649   24.4694 H       1  UNL1        0.1549
     33 C          13.8759   78.3314   24.4990 C.ar    1  UNL1        0.0535
     34 C          14.6528   77.5965   23.5871 C.ar    1  UNL1        0.0353
     35 C          15.8097   78.1677   23.0510 C.ar    1  UNL1        0.1002
     36 N          16.1875   79.4199   23.4208 N.ar    1  UNL1       -0.2422
     37 C          15.4658   80.1462   24.3146 C.ar    1  UNL1        0.1002
     38 C          14.3032   79.6121   24.8755 C.ar    1  UNL1        0.0353
     39 C          10.8972   78.0790   28.2087 C.3     1  UNL1        0.0569
     40 C           5.9756   76.8435   29.8243 C.ar    1  UNL1        0.0361
     41 C           7.1462   76.0405   29.9169 C.ar    1  UNL1        0.0029
     42 C           8.3659   76.4769   29.3743 C.ar    1  UNL1        0.0013
     43 C           8.3937   77.7161   28.7395 C.ar    1  UNL1        0.0131
     44 C           9.4361   78.4290   28.1774 C.ar    1  UNL1       -0.0017
     45 C           8.8844   79.6394   27.7696 C.ar    1  UNL1        0.0681
     46 N           7.5611   79.6720   28.0483 N.ar    1  UNL1       -0.3523
     47 C           7.2765   78.5003   28.6434 C.ar    1  UNL1        0.0564
     48 C           6.0516   78.0999   29.1739 C.ar    1  UNL1        0.0198
     49 H           6.9058   80.4660   27.8738 H       1  UNL1        0.1660
     50 C           4.1815   74.9887   30.2107 C.3     1  UNL1        0.0773
     51 C           4.6850   76.3877   30.4039 C.2     1  UNL1        0.1735
     52 O           3.9824   77.1909   31.0761 O.2     1  UNL1       -0.2913
@<TRIPOS>BOND
     1    50    51    1
     2    51    52    2
     3    51    40    1
     4    40    41   ar
     5    41    42   ar
     6    42    43   ar
     7    43    44   ar
     8    44    39    1
     9    39    28    1
    10    28     1    1
    11     1     2   am
    12     2     3    2
    13     2     5    1
    14     5     6   ar
    15     6     7   ar
    16     7     8   ar
    17     8    12    1
    18    12    13    1
    19    13    14    1
    20    14    15    1
    21    15    18    1
    22    18    19   ar
    23    19    20   ar
    24    20    21   ar
    25    21    24    1
    26    24    25    1
    27    24    26    1
    28    24    27    1
    29    21    22   ar
    30    22    23   ar
    31    15    16    1
    32    16    17    1
    33     8     9   ar
    34     9    10   ar
    35    10    11    1
    36    28    29    1
    37    29    30    2
    38    29    31   am
    39    31    33    1
    40    33    34   ar
    41    34    35   ar
    42    35    36   ar
    43    36    37   ar
    44    37    38   ar
    45    44    45   ar
    46    45    46   ar
    47    46    47   ar
    48    47    48   ar
    49    48    40   ar
    50    47    43   ar
    51    10     5   ar
    52    38    33   ar
    53    17    12    1
    54    23    18   ar
    55     1     4    1
    56    31    32    1
    57    46    49    1
@<TRIPOS>MOLECULE
*****
 52 57 0 0 0
SMALL
GASTEIGER

@<TRIPOS>ATOM
      1 N          11.7016   78.0738   23.8785 N.am    1  UNL1       -0.2945
      2 C          11.5024   76.8508   23.1472 C.2     1  UNL1        0.2483
      3 O          12.4507   76.0262   23.0368 O.2     1  UNL1       -0.2701
      4 H          10.9240   78.7679   23.9189 H       1  UNL1        0.1501
      5 C          10.1786   76.4981   22.5836 C.ar    1  UNL1        0.0808
      6 C           9.4555   77.4757   21.8796 C.ar    1  UNL1        0.0080
      7 C           8.2061   77.1808   21.3303 C.ar    1  UNL1        0.0148
      8 C           7.6486   75.9009   21.4767 C.ar    1  UNL1        0.0502
      9 C           8.3717   74.9201   22.1743 C.ar    1  UNL1        0.0443
     10 C           9.6194   75.2144   22.7345 C.ar    1  UNL1        0.1457
     11 F          10.2420   74.2589   23.4691 F       1  UNL1       -0.2040
     12 N           6.3447   75.5990   20.9381 N.pl3   1  UNL1       -0.3040
     13 C           5.4068   76.6821   20.6204 C.3     1  UNL1        0.1123
     14 C           3.9901   76.2738   21.0188 C.3     1  UNL1        0.1136
     15 N           3.6764   74.9426   20.4827 N.pl3   1  UNL1       -0.2897
     16 C           4.6238   73.8510   20.7507 C.3     1  UNL1        0.1136
     17 C           6.0483   74.2738   20.3824 C.3     1  UNL1        0.1123
     18 C           2.3518   74.6729   19.9800 C.ar    1  UNL1        0.1318
     19 C           1.6508   75.6247   19.2215 C.ar    1  UNL1        0.0343
     20 C           0.3717   75.3249   18.7507 C.ar    1  UNL1        0.0083
     21 C          -0.2181   74.0867   19.0454 C.ar    1  UNL1        0.0906
     22 C           0.5288   73.1505   19.7768 C.ar    1  UNL1        0.1041
     23 N           1.7734   73.4643   20.2237 N.ar    1  UNL1       -0.2292
     24 C          -1.5776   73.7314   18.4999 C.3     1  UNL1        0.4200
     25 F          -1.8231   74.4123   17.3200 F       1  UNL1       -0.1658
     26 F          -2.5694   74.0642   19.4064 F       1  UNL1       -0.1658
     27 F          -1.6288   72.3719   18.2547 F       1  UNL1       -0.1658
     28 C          12.7810   78.2227   24.8625 C.3     1  UNL1        0.1535
     29 C          13.3683   79.6071   24.7713 C.2     1  UNL1        0.2443
     30 O          14.5481   79.7438   24.3475 O.2     1  UNL1       -0.2730
     31 N          12.5791   80.7631   25.1029 N.am    1  UNL1       -0.2825
     32 H          11.5411   80.6552   25.1509 H       1  UNL1        0.1549
     33 C          13.1207   82.0841   25.2723 C.ar    1  UNL1        0.0535
     34 C          13.6202   82.5213   26.5110 C.ar    1  UNL1        0.0353
     35 C          14.1125   83.8231   26.6343 C.ar    1  UNL1        0.1002
     36 N          14.0944   84.6640   25.5666 N.ar    1  UNL1       -0.2422
     37 C          13.6002   84.2742   24.3620 C.ar    1  UNL1        0.1002
     38 C          13.0971   82.9816   24.1960 C.ar    1  UNL1        0.0353
     39 C          12.2630   77.9374   26.2860 C.3     1  UNL1        0.0569
     40 C           7.3636   75.9006   26.7389 C.ar    1  UNL1        0.0361
     41 C           8.5642   75.2089   26.4166 C.ar    1  UNL1        0.0029
     42 C           9.7761   75.9010   26.2588 C.ar    1  UNL1        0.0013
     43 C           9.7660   77.2839   26.4227 C.ar    1  UNL1        0.0131
     44 C          10.7898   78.2124   26.3953 C.ar    1  UNL1       -0.0017
     45 C          10.1972   79.4318   26.7080 C.ar    1  UNL1        0.0681
     46 N           8.8681   79.2736   26.9036 N.ar    1  UNL1       -0.3523
     47 C           8.6196   77.9631   26.7339 C.ar    1  UNL1        0.0564
     48 C           7.4014   77.3075   26.9014 C.ar    1  UNL1        0.0198
     49 H           8.1843   80.0151   27.1739 H       1  UNL1        0.1660
     50 C           6.0419   73.7047   27.2285 C.3     1  UNL1        0.0773
     51 C           6.0810   75.1701   26.9138 C.2     1  UNL1        0.1735
     52 O           4.9878   75.7873   26.7933 O.2     1  UNL1       -0.2913
@<TRIPOS>BOND
     1    50    51    1
     2    51    52    2
     3    51    40    1
     4    40    41   ar
     5    41    42   ar
     6    42    43   ar
     7    43    44   ar
     8    44    39    1
     9    39    28    1
    10    28     1    1
    11     1     2   am
    12     2     3    2
    13     2     5    1
    14     5     6   ar
    15     6     7   ar
    16     7     8   ar
    17     8    12    1
    18    12    13    1
    19    13    14    1
    20    14    15    1
    21    15    18    1
    22    18    19   ar
    23    19    20   ar
    24    20    21   ar
    25    21    24    1
    26    24    25    1
    27    24    26    1
    28    24    27    1
    29    21    22   ar
    30    22    23   ar
    31    15    16    1
    32    16    17    1
    33     8     9   ar
    34     9    10   ar
    35    10    11    1
    36    28    29    1
    37    29    30    2
    38    29    31   am
    39    31    33    1
    40    33    34   ar
    41    34    35   ar
    42    35    36   ar
    43    36    37   ar
    44    37    38   ar
    45    44    45   ar
    46    45    46   ar
    47    46    47   ar
    48    47    48   ar
    49    48    40   ar
    50    47    43   ar
    51    10     5   ar
    52    38    33   ar
    53    17    12    1
    54    23    18   ar
    55     1     4    1
    56    31    32    1
    57    46    49    1
@<TRIPOS>MOLECULE
*****
 52 57 0 0 0
SMALL
GASTEIGER

@<TRIPOS>ATOM
      1 N           8.8810   78.6227   27.5210 N.am    1  UNL1       -0.2945
      2 C           9.0670   78.0511   26.2137 C.2     1  UNL1        0.2483
      3 O          10.2299   77.9480   25.7357 O.2     1  UNL1       -0.2701
      4 H           7.9102   78.7468   27.8820 H       1  UNL1        0.1501
      5 C           7.9258   77.5052   25.4429 C.ar    1  UNL1        0.0808
      6 C           8.1347   77.0935   24.1159 C.ar    1  UNL1        0.0080
      7 C           7.0851   76.5702   23.3582 C.ar    1  UNL1        0.0148
      8 C           5.7998   76.4508   23.9097 C.ar    1  UNL1        0.0502
      9 C           5.5896   76.8556   25.2376 C.ar    1  UNL1        0.0443
     10 C           6.6362   77.3894   25.9970 C.ar    1  UNL1        0.1457
     11 F           6.3653   77.8422   27.2467 F       1  UNL1       -0.2040
     12 N           4.7044   75.9397   23.1221 N.pl3   1  UNL1       -0.3040
     13 C           4.8800   74.7324   22.3065 C.3     1  UNL1        0.1123
     14 C           4.1591   74.9005   20.9707 C.3     1  UNL1        0.1136
     15 N           2.7814   75.3599   21.1922 N.pl3   1  UNL1       -0.2897
     16 C           2.5776   76.5418   22.0422 C.3     1  UNL1        0.1136
     17 C           3.3285   76.3863   23.3672 C.3     1  UNL1        0.1123
     18 C           1.7188   74.8457   20.3638 C.ar    1  UNL1        0.1318
     19 C           1.0717   75.6581   19.4183 C.ar    1  UNL1        0.0343
     20 C           0.0493   75.1226   18.6336 C.ar    1  UNL1        0.0083
     21 C          -0.3415   73.7853   18.7978 C.ar    1  UNL1        0.0906
     22 C           0.3530   72.9980   19.7290 C.ar    1  UNL1        0.1041
     23 N           1.3464   73.5409   20.4810 N.ar    1  UNL1       -0.2292
     24 C          -1.4089   73.1813   17.9215 C.3     1  UNL1        0.4200
     25 F          -1.2946   73.6461   16.6227 F       1  UNL1       -0.1658
     26 F          -2.6691   73.5107   18.3900 F       1  UNL1       -0.1658
     27 F          -1.2734   71.8056   17.9214 F       1  UNL1       -0.1658
     28 C           9.9713   78.6877   28.5020 C.3     1  UNL1        0.1535
     29 C           9.9559   80.0251   29.1953 C.2     1  UNL1        0.2443
     30 O          10.6070   80.9813   28.6934 O.2     1  UNL1       -0.2730
     31 N           9.1631   80.2304   30.3779 N.am    1  UNL1       -0.2825
     32 H           8.4104   79.5390   30.5940 H       1  UNL1        0.1549
     33 C           9.2726   81.3843   31.2284 C.ar    1  UNL1        0.0535
     34 C           9.8014   82.5983   30.7574 C.ar    1  UNL1        0.0353
     35 C           9.9127   83.6851   31.6284 C.ar    1  UNL1        0.1002
     36 N           9.5252   83.5631   32.9255 N.ar    1  UNL1       -0.2422
     37 C           9.0279   82.3959   33.4129 C.ar    1  UNL1        0.1002
     38 C           8.9010   81.2845   32.5762 C.ar    1  UNL1        0.0353
     39 C           9.8551   77.5378   29.5221 C.3     1  UNL1        0.0569
     40 C           5.9250   74.0112   28.8318 C.ar    1  UNL1        0.0361
     41 C           7.1803   74.0530   28.1638 C.ar    1  UNL1        0.0029
     42 C           8.0901   75.0963   28.4010 C.ar    1  UNL1        0.0013
     43 C           7.7248   76.0901   29.3056 C.ar    1  UNL1        0.0131
     44 C           8.4181   77.1857   29.7851 C.ar    1  UNL1       -0.0017
     45 C           7.5826   77.7726   30.7303 C.ar    1  UNL1        0.0681
     46 N           6.4202   77.0869   30.8225 N.ar    1  UNL1       -0.3523
     47 C           6.5215   76.0632   29.9567 C.ar    1  UNL1        0.0564
     48 C           5.5975   75.0412   29.7479 C.ar    1  UNL1        0.0198
     49 H           5.6251   77.2902   31.4681 H       1  UNL1        0.1660
     50 C           3.6388   72.8393   29.2886 C.3     1  UNL1        0.0773
     51 C           4.9631   72.9046   28.5883 C.2     1  UNL1        0.1735
     52 O           5.2578   71.9867   27.7753 O.2     1  UNL1       -0.2913
@<TRIPOS>BOND
     1    50    51    1
     2    51    52    2
     3    51    40    1
     4    40    41   ar
     5    41    42   ar
     6    42    43   ar
     7    43    44   ar
     8    44    39    1
     9    39    28    1
    10    28     1    1
    11     1     2   am
    12     2     3    2
    13     2     5    1
    14     5     6   ar
    15     6     7   ar
    16     7     8   ar
    17     8    12    1
    18    12    13    1
    19    13    14    1
    20    14    15    1
    21    15    18    1
    22    18    19   ar
    23    19    20   ar
    24    20    21   ar
    25    21    24    1
    26    24    25    1
    27    24    26    1
    28    24    27    1
    29    21    22   ar
    30    22    23   ar
    31    15    16    1
    32    16    17    1
    33     8     9   ar
    34     9    10   ar
    35    10    11    1
    36    28    29    1
    37    29    30    2
    38    29    31   am
    39    31    33    1
    40    33    34   ar
    41    34    35   ar
    42    35    36   ar
    43    36    37   ar
    44    37    38   ar
    45    44    45   ar
    46    45    46   ar
    47    46    47   ar
    48    47    48   ar
    49    48    40   ar
    50    47    43   ar
    51    10     5   ar
    52    38    33   ar
    53    17    12    1
    54    23    18   ar
    55     1     4    1
    56    31    32    1
    57    46    49    1
@<TRIPOS>MOLECULE
*****
 52 57 0 0 0
SMALL
GASTEIGER

@<TRIPOS>ATOM
      1 N           9.8397   80.2000   24.7418 N.am    1  UNL1       -0.2945
      2 C           9.8107   79.8481   23.3468 C.2     1  UNL1        0.2483
      3 O          10.7910   80.1385   22.6079 O.2     1  UNL1       -0.2701
      4 H           9.0016   79.9978   25.3289 H       1  UNL1        0.1501
      5 C           8.6839   79.0783   22.7707 C.ar    1  UNL1        0.0808
      6 C           8.2592   79.3678   21.4630 C.ar    1  UNL1        0.0080
      7 C           7.2032   78.6616   20.8835 C.ar    1  UNL1        0.0148
      8 C           6.5439   77.6515   21.6014 C.ar    1  UNL1        0.0502
      9 C           6.9702   77.3557   22.9061 C.ar    1  UNL1        0.0443
     10 C           8.0215   78.0675   23.4938 C.ar    1  UNL1        0.1457
     11 F           8.3428   77.8016   24.7846 F       1  UNL1       -0.2040
     12 N           5.4322   76.9394   21.0195 N.pl3   1  UNL1       -0.3040
     13 C           4.5127   77.6247   20.1038 C.3     1  UNL1        0.1123
     14 C           3.0791   77.1742   20.3764 C.3     1  UNL1        0.1136
     15 N           3.0077   75.7075   20.4176 N.pl3   1  UNL1       -0.2897
     16 C           3.9489   74.9963   21.2947 C.3     1  UNL1        0.1136
     17 C           5.3818   75.4733   21.0439 C.3     1  UNL1        0.1123
     18 C           1.8650   75.0353   19.8499 C.ar    1  UNL1        0.1318
     19 C           1.6217   73.6741   20.0964 C.ar    1  UNL1        0.0343
     20 C           0.5034   73.0601   19.5306 C.ar    1  UNL1        0.0083
     21 C          -0.3651   73.7927   18.7078 C.ar    1  UNL1        0.0906
     22 C          -0.1057   75.1582   18.5143 C.ar    1  UNL1        0.1041
     23 N           0.9890   75.7350   19.0768 N.ar    1  UNL1       -0.2292
     24 C          -1.6036   73.1543   18.1327 C.3     1  UNL1        0.4200
     25 F          -1.7338   73.4646   16.7901 F       1  UNL1       -0.1658
     26 F          -2.7349   73.6025   18.7925 F       1  UNL1       -0.1658
     27 F          -1.5148   71.7818   18.2716 F       1  UNL1       -0.1658
     28 C          11.0977   80.4755   25.4467 C.3     1  UNL1        0.1535
     29 C          10.8269   80.6792   26.9147 C.2     1  UNL1        0.2443
     30 O          11.4804   81.5574   27.5407 O.2     1  UNL1       -0.2730
     31 N           9.7972   79.9291   27.5826 N.am    1  UNL1       -0.2825
     32 H           9.0792   79.4463   26.9972 H       1  UNL1        0.1549
     33 C           9.6324   79.8855   29.0102 C.ar    1  UNL1        0.0535
     34 C           9.8444   81.0212   29.8105 C.ar    1  UNL1        0.0353
     35 C           9.6979   80.9240   31.1966 C.ar    1  UNL1        0.1002
     36 N           9.3669   79.7353   31.7666 N.ar    1  UNL1       -0.2422
     37 C           9.1743   78.6167   31.0191 C.ar    1  UNL1        0.1002
     38 C           9.3120   78.6698   29.6299 C.ar    1  UNL1        0.0353
     39 C          12.1068   79.3311   25.2270 C.3     1  UNL1        0.0569
     40 C          11.0614   74.5533   23.1201 C.ar    1  UNL1        0.0361
     41 C          11.5631   75.7049   22.4524 C.ar    1  UNL1        0.0029
     42 C          11.7173   76.9241   23.1324 C.ar    1  UNL1        0.0013
     43 C          11.3603   76.9727   24.4776 C.ar    1  UNL1        0.0131
     44 C          11.4569   77.9887   25.4101 C.ar    1  UNL1       -0.0017
     45 C          11.0264   77.4354   26.6119 C.ar    1  UNL1        0.0681
     46 N          10.6637   76.1445   26.4335 N.ar    1  UNL1       -0.3523
     47 C          10.8774   75.8734   25.1340 C.ar    1  UNL1        0.0564
     48 C          10.7156   74.6477   24.4908 C.ar    1  UNL1        0.0198
     49 H          10.3271   75.4834   27.1683 H       1  UNL1        0.1660
     50 C          12.0852   72.4844   21.9036 C.3     1  UNL1        0.0773
     51 C          10.9039   73.2599   22.4051 C.2     1  UNL1        0.1735
     52 O           9.7501   72.7919   22.2048 O.2     1  UNL1       -0.2913
@<TRIPOS>BOND
     1    50    51    1
     2    51    52    2
     3    51    40    1
     4    40    41   ar
     5    41    42   ar
     6    42    43   ar
     7    43    44   ar
     8    44    39    1
     9    39    28    1
    10    28     1    1
    11     1     2   am
    12     2     3    2
    13     2     5    1
    14     5     6   ar
    15     6     7   ar
    16     7     8   ar
    17     8    12    1
    18    12    13    1
    19    13    14    1
    20    14    15    1
    21    15    18    1
    22    18    19   ar
    23    19    20   ar
    24    20    21   ar
    25    21    24    1
    26    24    25    1
    27    24    26    1
    28    24    27    1
    29    21    22   ar
    30    22    23   ar
    31    15    16    1
    32    16    17    1
    33     8     9   ar
    34     9    10   ar
    35    10    11    1
    36    28    29    1
    37    29    30    2
    38    29    31   am
    39    31    33    1
    40    33    34   ar
    41    34    35   ar
    42    35    36   ar
    43    36    37   ar
    44    37    38   ar
    45    44    45   ar
    46    45    46   ar
    47    46    47   ar
    48    47    48   ar
    49    48    40   ar
    50    47    43   ar
    51    10     5   ar
    52    38    33   ar
    53    17    12    1
    54    23    18   ar
    55     1     4    1
    56    31    32    1
    57    46    49    1
@<TRIPOS>MOLECULE
*****
 52 57 0 0 0
SMALL
GASTEIGER

@<TRIPOS>ATOM
      1 N           9.0834   75.0610   24.4918 N.am    1  UNL1       -0.2945
      2 C          10.4282   75.3862   24.0963 C.2     1  UNL1        0.2483
      3 O          11.1217   74.5336   23.4772 O.2     1  UNL1       -0.2701
      4 H           8.5400   75.7576   25.0463 H       1  UNL1        0.1501
      5 C          10.9945   76.7347   24.3313 C.ar    1  UNL1        0.0808
      6 C          10.1504   77.7562   24.7985 C.ar    1  UNL1        0.0080
      7 C          10.6475   79.0393   25.0356 C.ar    1  UNL1        0.0148
      8 C          12.0012   79.3315   24.8062 C.ar    1  UNL1        0.0502
      9 C          12.8484   78.3112   24.3453 C.ar    1  UNL1        0.0443
     10 C          12.3522   77.0269   24.0972 C.ar    1  UNL1        0.1457
     11 F          13.1908   76.0974   23.5748 F       1  UNL1       -0.2040
     12 N          12.5141   80.6630   25.0199 N.pl3   1  UNL1       -0.3040
     13 C          11.5965   81.7722   25.3047 C.3     1  UNL1        0.1123
     14 C          12.0611   83.0295   24.5727 C.3     1  UNL1        0.1136
     15 N          13.4889   83.2649   24.8253 N.pl3   1  UNL1       -0.2897
     16 C          14.4226   82.1543   24.5892 C.3     1  UNL1        0.1136
     17 C          13.9378   80.8857   25.2959 C.3     1  UNL1        0.1123
     18 C          13.9660   84.6140   25.0050 C.ar    1  UNL1        0.1318
     19 C          14.3219   85.4150   23.9076 C.ar    1  UNL1        0.0343
     20 C          14.7770   86.7167   24.1228 C.ar    1  UNL1        0.0083
     21 C          14.8937   87.2182   25.4277 C.ar    1  UNL1        0.0906
     22 C          14.4957   86.3982   26.4946 C.ar    1  UNL1        0.1041
     23 N          14.0541   85.1342   26.2606 N.ar    1  UNL1       -0.2292
     24 C          15.3351   88.6390   25.6705 C.3     1  UNL1        0.4200
     25 F          15.8100   89.2088   24.5019 F       1  UNL1       -0.1658
     26 F          16.3463   88.6812   26.6149 F       1  UNL1       -0.1658
     27 F          14.2601   89.3779   26.1278 F       1  UNL1       -0.1658
     28 C           8.3242   73.9824   23.8470 C.3     1  UNL1        0.1535
     29 C           6.8472   74.2210   24.0234 C.2     1  UNL1        0.2443
     30 O           6.0540   73.2461   23.9206 O.2     1  UNL1       -0.2730
     31 N           6.3497   75.5268   24.3646 N.am    1  UNL1       -0.2825
     32 H           7.0249   76.2300   24.7401 H       1  UNL1        0.1549
     33 C           4.9606   75.8949   24.3184 C.ar    1  UNL1        0.0535
     34 C           4.2606   75.9749   23.1024 C.ar    1  UNL1        0.0353
     35 C           2.9183   76.3625   23.1048 C.ar    1  UNL1        0.1002
     36 N           2.2994   76.6737   24.2742 N.ar    1  UNL1       -0.2422
     37 C           2.9568   76.6231   25.4627 C.ar    1  UNL1        0.1002
     38 C           4.3000   76.2417   25.5049 C.ar    1  UNL1        0.0353
     39 C           8.6900   73.8768   22.3533 C.3     1  UNL1        0.0569
     40 C           4.4810   75.4106   19.4739 C.ar    1  UNL1        0.0361
     41 C           4.8093   74.0924   19.8964 C.ar    1  UNL1        0.0029
     42 C           6.0017   73.8329   20.5916 C.ar    1  UNL1        0.0013
     43 C           6.8544   74.9030   20.8506 C.ar    1  UNL1        0.0131
     44 C           8.0419   74.9724   21.5547 C.ar    1  UNL1       -0.0017
     45 C           8.3996   76.3170   21.5532 C.ar    1  UNL1        0.0681
     46 N           7.4893   77.0462   20.8680 N.ar    1  UNL1       -0.3523
     47 C           6.5520   76.1766   20.4517 C.ar    1  UNL1        0.0564
     48 C           5.3761   76.4699   19.7638 C.ar    1  UNL1        0.0198
     49 H           7.4949   78.0812   20.7295 H       1  UNL1        0.1660
     50 C           1.8793   75.3066   19.3043 C.3     1  UNL1        0.0773
     51 C           3.2165   75.6896   18.7444 C.2     1  UNL1        0.1735
     52 O           3.2552   76.2608   17.6207 O.2     1  UNL1       -0.2913
@<TRIPOS>BOND
     1    50    51    1
     2    51    52    2
     3    51    40    1
     4    40    41   ar
     5    41    42   ar
     6    42    43   ar
     7    43    44   ar
     8    44    39    1
     9    39    28    1
    10    28     1    1
    11     1     2   am
    12     2     3    2
    13     2     5    1
    14     5     6   ar
    15     6     7   ar
    16     7     8   ar
    17     8    12    1
    18    12    13    1
    19    13    14    1
    20    14    15    1
    21    15    18    1
    22    18    19   ar
    23    19    20   ar
    24    20    21   ar
    25    21    24    1
    26    24    25    1
    27    24    26    1
    28    24    27    1
    29    21    22   ar
    30    22    23   ar
    31    15    16    1
    32    16    17    1
    33     8     9   ar
    34     9    10   ar
    35    10    11    1
    36    28    29    1
    37    29    30    2
    38    29    31   am
    39    31    33    1
    40    33    34   ar
    41    34    35   ar
    42    35    36   ar
    43    36    37   ar
    44    37    38   ar
    45    44    45   ar
    46    45    46   ar
    47    46    47   ar
    48    47    48   ar
    49    48    40   ar
    50    47    43   ar
    51    10     5   ar
    52    38    33   ar
    53    17    12    1
    54    23    18   ar
    55     1     4    1
    56    31    32    1
    57    46    49    1
@<TRIPOS>MOLECULE
*****
 52 57 0 0 0
SMALL
GASTEIGER

@<TRIPOS>ATOM
      1 N           9.0354   74.6136   24.2244 N.am    1  UNL1       -0.2945
      2 C          10.0460   75.2730   23.4405 C.2     1  UNL1        0.2483
      3 O          10.4430   74.7495   22.3635 O.2     1  UNL1       -0.2701
      4 H           8.7533   75.0333   25.1367 H       1  UNL1        0.1501
      5 C          10.5787   76.5991   23.8301 C.ar    1  UNL1        0.0808
      6 C          11.9647   76.7529   24.0022 C.ar    1  UNL1        0.0080
      7 C          12.5054   77.9879   24.3653 C.ar    1  UNL1        0.0148
      8 C          11.6707   79.0979   24.5694 C.ar    1  UNL1        0.0502
      9 C          10.2859   78.9488   24.3920 C.ar    1  UNL1        0.0443
     10 C           9.7392   77.7107   24.0377 C.ar    1  UNL1        0.1457
     11 F           8.3898   77.5965   23.9586 F       1  UNL1       -0.2040
     12 N          12.2204   80.3687   24.9747 N.pl3   1  UNL1       -0.3040
     13 C          11.3313   81.4635   25.3804 C.3     1  UNL1        0.1123
     14 C          11.8614   82.7891   24.8377 C.3     1  UNL1        0.1136
     15 N          13.2872   82.9350   25.1598 N.pl3   1  UNL1       -0.2897
     16 C          14.1906   81.8317   24.8027 C.3     1  UNL1        0.1136
     17 C          13.6409   80.4991   25.3181 C.3     1  UNL1        0.1123
     18 C          13.8028   84.2291   25.5329 C.ar    1  UNL1        0.1318
     19 C          13.9861   85.2446   24.5801 C.ar    1  UNL1        0.0343
     20 C          14.4853   86.4847   24.9813 C.ar    1  UNL1        0.0083
     21 C          14.8170   86.7121   26.3252 C.ar    1  UNL1        0.0906
     22 C          14.5868   85.6833   27.2514 C.ar    1  UNL1        0.1041
     23 N          14.0985   84.4843   26.8376 N.ar    1  UNL1       -0.2292
     24 C          15.3084   88.0628   26.7796 C.3     1  UNL1        0.4200
     25 F          14.8981   89.0517   25.9023 F       1  UNL1       -0.1658
     26 F          16.6911   88.0840   26.8402 F       1  UNL1       -0.1658
     27 F          14.7980   88.3342   28.0353 F       1  UNL1       -0.1658
     28 C           8.1334   73.6115   23.6433 C.3     1  UNL1        0.1535
     29 C           6.7022   73.9862   23.9276 C.2     1  UNL1        0.2443
     30 O           5.8373   73.0728   24.0161 O.2     1  UNL1       -0.2730
     31 N           6.3335   75.3576   24.1565 N.am    1  UNL1       -0.2825
     32 H           7.0905   76.0417   24.3808 H       1  UNL1        0.1549
     33 C           4.9757   75.8286   24.1972 C.ar    1  UNL1        0.0535
     34 C           4.2289   76.0235   23.0227 C.ar    1  UNL1        0.0353
     35 C           2.9213   76.5081   23.1105 C.ar    1  UNL1        0.1002
     36 N           2.3820   76.8021   24.3230 N.ar    1  UNL1       -0.2422
     37 C           3.0874   76.6412   25.4736 C.ar    1  UNL1        0.1002
     38 C           4.3983   76.1604   25.4305 C.ar    1  UNL1        0.0353
     39 C           8.3757   73.4751   22.1271 C.3     1  UNL1        0.0569
     40 C           6.0574   77.5965   19.6780 C.ar    1  UNL1        0.0361
     41 C           7.1684   77.6283   20.5659 C.ar    1  UNL1        0.0029
     42 C           7.6223   76.4583   21.1965 C.ar    1  UNL1        0.0013
     43 C           6.9499   75.2682   20.9301 C.ar    1  UNL1        0.0131
     44 C           7.1957   73.9711   21.3398 C.ar    1  UNL1       -0.0017
     45 C           6.2462   73.1877   20.6913 C.ar    1  UNL1        0.0681
     46 N           5.4386   73.9603   19.9291 N.ar    1  UNL1       -0.3523
     47 C           5.8805   75.2215   20.0776 C.ar    1  UNL1        0.0564
     48 C           5.4067   76.3622   19.4325 C.ar    1  UNL1        0.0198
     49 H           4.6581   73.6338   19.3172 H       1  UNL1        0.1660
     50 C           6.5267   79.8977   18.5408 C.3     1  UNL1        0.0773
     51 C           5.5791   78.8317   19.0035 C.2     1  UNL1        0.1735
     52 O           4.3444   79.0021   18.8118 O.2     1  UNL1       -0.2913
@<TRIPOS>BOND
     1    50    51    1
     2    51    52    2
     3    51    40    1
     4    40    41   ar
     5    41    42   ar
     6    42    43   ar
     7    43    44   ar
     8    44    39    1
     9    39    28    1
    10    28     1    1
    11     1     2   am
    12     2     3    2
    13     2     5    1
    14     5     6   ar
    15     6     7   ar
    16     7     8   ar
    17     8    12    1
    18    12    13    1
    19    13    14    1
    20    14    15    1
    21    15    18    1
    22    18    19   ar
    23    19    20   ar
    24    20    21   ar
    25    21    24    1
    26    24    25    1
    27    24    26    1
    28    24    27    1
    29    21    22   ar
    30    22    23   ar
    31    15    16    1
    32    16    17    1
    33     8     9   ar
    34     9    10   ar
    35    10    11    1
    36    28    29    1
    37    29    30    2
    38    29    31   am
    39    31    33    1
    40    33    34   ar
    41    34    35   ar
    42    35    36   ar
    43    36    37   ar
    44    37    38   ar
    45    44    45   ar
    46    45    46   ar
    47    46    47   ar
    48    47    48   ar
    49    48    40   ar
    50    47    43   ar
    51    10     5   ar
    52    38    33   ar
    53    17    12    1
    54    23    18   ar
    55     1     4    1
    56    31    32    1
    57    46    49    1
@<TRIPOS>MOLECULE
*****
 52 57 0 0 0
SMALL
GASTEIGER

@<TRIPOS>ATOM
      1 N           8.1283   75.6233   25.3061 N.am    1  UNL1       -0.2945
      2 C           9.2668   76.0250   26.0890 C.2     1  UNL1        0.2483
      3 O           9.6567   75.2991   27.0442 O.2     1  UNL1       -0.2701
      4 H           7.7877   76.2581   24.5517 H       1  UNL1        0.1501
      5 C          10.0450   77.2387   25.7490 C.ar    1  UNL1        0.0808
      6 C           9.6137   78.4835   26.2375 C.ar    1  UNL1        0.0080
      7 C          10.3224   79.6498   25.9421 C.ar    1  UNL1        0.0148
      8 C          11.4777   79.5981   25.1466 C.ar    1  UNL1        0.0502
      9 C          11.9147   78.3548   24.6623 C.ar    1  UNL1        0.0443
     10 C          11.2020   77.1853   24.9479 C.ar    1  UNL1        0.1457
     11 F          11.6168   76.0205   24.3898 F       1  UNL1       -0.2040
     12 N          12.1968   80.8034   24.8123 N.pl3   1  UNL1       -0.3040
     13 C          13.6520   80.8699   24.9902 C.3     1  UNL1        0.1123
     14 C          14.0452   82.2425   25.5323 C.3     1  UNL1        0.1136
     15 N          13.4236   83.3027   24.7274 N.pl3   1  UNL1       -0.2897
     16 C          11.9731   83.2331   24.4985 C.3     1  UNL1        0.1136
     17 C          11.5761   81.8458   23.9872 C.3     1  UNL1        0.1123
     18 C          14.1665   84.5048   24.4397 C.ar    1  UNL1        0.1318
     19 C          14.7486   84.7195   23.1796 C.ar    1  UNL1        0.0343
     20 C          15.4580   85.8972   22.9394 C.ar    1  UNL1        0.0083
     21 C          15.6028   86.8549   23.9542 C.ar    1  UNL1        0.0906
     22 C          14.9772   86.6180   25.1878 C.ar    1  UNL1        0.1041
     23 N          14.2902   85.4643   25.3982 N.ar    1  UNL1       -0.2292
     24 C          16.3226   88.1530   23.6916 C.3     1  UNL1        0.4200
     25 F          17.2156   88.0123   22.6434 F       1  UNL1       -0.1658
     26 F          17.0295   88.5544   24.8119 F       1  UNL1       -0.1658
     27 F          15.3983   89.1288   23.3683 F       1  UNL1       -0.1658
     28 C           7.6672   74.2301   25.2649 C.3     1  UNL1        0.1535
     29 C           6.4261   74.0775   26.1052 C.2     1  UNL1        0.2443
     30 O           5.3259   74.4951   25.6518 O.2     1  UNL1       -0.2730
     31 N           6.4787   73.4113   27.3789 N.am    1  UNL1       -0.2825
     32 H           7.3104   72.8157   27.5908 H       1  UNL1        0.1549
     33 C           5.4101   73.4305   28.3406 C.ar    1  UNL1        0.0535
     34 C           5.2440   74.5018   29.2349 C.ar    1  UNL1        0.0353
     35 C           4.2063   74.4639   30.1697 C.ar    1  UNL1        0.1002
     36 N           3.3730   73.3913   30.2220 N.ar    1  UNL1       -0.2422
     37 C           3.5216   72.3332   29.3821 C.ar    1  UNL1        0.1002
     38 C           4.5469   72.3300   28.4334 C.ar    1  UNL1        0.0353
     39 C           7.4062   73.7857   23.8122 C.3     1  UNL1        0.0569
     40 C           7.6054   78.2059   20.8489 C.ar    1  UNL1        0.0361
     41 C           6.4726   77.6551   21.5101 C.ar    1  UNL1        0.0029
     42 C           6.5609   76.4333   22.1971 C.ar    1  UNL1        0.0013
     43 C           7.7884   75.7756   22.2075 C.ar    1  UNL1        0.0131
     44 C           8.1952   74.6149   22.8384 C.ar    1  UNL1       -0.0017
     45 C           9.5525   74.4929   22.5584 C.ar    1  UNL1        0.0681
     46 N           9.9667   75.5172   21.7779 N.ar    1  UNL1       -0.3523
     47 C           8.8872   76.2932   21.5771 C.ar    1  UNL1        0.0564
     48 C           8.8356   77.5045   20.8900 C.ar    1  UNL1        0.0198
     49 H          10.9389   75.6895   21.4380 H       1  UNL1        0.1660
     50 C           7.5044   79.5746   18.6296 C.3     1  UNL1        0.0773
     51 C           7.5170   79.5023   20.1272 C.2     1  UNL1        0.1735
     52 O           7.4538   80.5792   20.7805 O.2     1  UNL1       -0.2913
@<TRIPOS>BOND
     1    50    51    1
     2    51    52    2
     3    51    40    1
     4    40    41   ar
     5    41    42   ar
     6    42    43   ar
     7    43    44   ar
     8    44    39    1
     9    39    28    1
    10    28     1    1
    11     1     2   am
    12     2     3    2
    13     2     5    1
    14     5     6   ar
    15     6     7   ar
    16     7     8   ar
    17     8    12    1
    18    12    13    1
    19    13    14    1
    20    14    15    1
    21    15    18    1
    22    18    19   ar
    23    19    20   ar
    24    20    21   ar
    25    21    24    1
    26    24    25    1
    27    24    26    1
    28    24    27    1
    29    21    22   ar
    30    22    23   ar
    31    15    16    1
    32    16    17    1
    33     8     9   ar
    34     9    10   ar
    35    10    11    1
    36    28    29    1
    37    29    30    2
    38    29    31   am
    39    31    33    1
    40    33    34   ar
    41    34    35   ar
    42    35    36   ar
    43    36    37   ar
    44    37    38   ar
    45    44    45   ar
    46    45    46   ar
    47    46    47   ar
    48    47    48   ar
    49    48    40   ar
    50    47    43   ar
    51    10     5   ar
    52    38    33   ar
    53    17    12    1
    54    23    18   ar
    55     1     4    1
    56    31    32    1
    57    46    49    1
@<TRIPOS>MOLECULE
*****
 52 57 0 0 0
SMALL
GASTEIGER

@<TRIPOS>ATOM
      1 N          10.7356   79.9572   23.9505 N.am    1  UNL1       -0.2945
      2 C          10.7400   78.6423   23.3659 C.2     1  UNL1        0.2483
      3 O          11.7839   77.9363   23.4217 O.2     1  UNL1       -0.2701
      4 H           9.8816   80.5480   23.8529 H       1  UNL1        0.1501
      5 C           9.5160   78.0633   22.7651 C.ar    1  UNL1        0.0808
      6 C           8.6106   78.9145   22.1094 C.ar    1  UNL1        0.0080
      7 C           7.4478   78.4061   21.5272 C.ar    1  UNL1        0.0148
      8 C           7.1613   77.0334   21.5915 C.ar    1  UNL1        0.0502
      9 C           8.0673   76.1795   22.2406 C.ar    1  UNL1        0.0443
     10 C           9.2286   76.6863   22.8337 C.ar    1  UNL1        0.1457
     11 F          10.0310   75.8345   23.5198 F       1  UNL1       -0.2040
     12 N           5.9464   76.5066   21.0188 N.pl3   1  UNL1       -0.3040
     13 C           4.9119   77.4163   20.5131 C.3     1  UNL1        0.1123
     14 C           3.5286   76.8798   20.8751 C.3     1  UNL1        0.1136
     15 N           3.4170   75.4659   20.4923 N.pl3   1  UNL1       -0.2897
     16 C           4.4657   74.5432   20.9505 C.3     1  UNL1        0.1136
     17 C           5.8528   75.0986   20.6169 C.3     1  UNL1        0.1123
     18 C           2.1752   74.9722   19.9499 C.ar    1  UNL1        0.1318
     19 C           1.3732   75.7705   19.1179 C.ar    1  UNL1        0.0343
     20 C           0.1794   75.2556   18.6106 C.ar    1  UNL1        0.0083
     21 C          -0.2264   73.9541   18.9414 C.ar    1  UNL1        0.0906
     22 C           0.6197   73.1772   19.7475 C.ar    1  UNL1        0.1041
     23 N           1.7785   73.6996   20.2288 N.ar    1  UNL1       -0.2292
     24 C          -1.4875   73.3687   18.3591 C.3     1  UNL1        0.4200
     25 F          -2.5776   73.6653   19.1588 F       1  UNL1       -0.1658
     26 F          -1.3856   71.9918   18.2591 F       1  UNL1       -0.1658
     27 F          -1.6956   73.8979   17.0991 F       1  UNL1       -0.1658
     28 C          11.7077   80.3534   24.9769 C.3     1  UNL1        0.1535
     29 C          12.0706   81.8053   24.8037 C.2     1  UNL1        0.2443
     30 O          11.1594   82.6748   24.8672 O.2     1  UNL1       -0.2730
     31 N          13.4417   82.2041   24.6300 N.am    1  UNL1       -0.2825
     32 H          14.1905   81.5215   24.8841 H       1  UNL1        0.1549
     33 C          13.8501   83.5216   24.2247 C.ar    1  UNL1        0.0535
     34 C          13.6744   84.6367   25.0620 C.ar    1  UNL1        0.0353
     35 C          14.0628   85.9020   24.6143 C.ar    1  UNL1        0.1002
     36 N          14.5933   86.0538   23.3722 N.ar    1  UNL1       -0.2422
     37 C          14.7575   84.9963   22.5344 C.ar    1  UNL1        0.1002
     38 C          14.3812   83.7142   22.9420 C.ar    1  UNL1        0.0353
     39 C          11.1464   80.0911   26.3884 C.3     1  UNL1        0.0569
     40 C           7.5880   76.1364   26.1506 C.ar    1  UNL1        0.0361
     41 C           7.3390   77.5340   26.0585 C.ar    1  UNL1        0.0029
     42 C           8.3792   78.4646   26.2158 C.ar    1  UNL1        0.0013
     43 C           9.6594   77.9784   26.4688 C.ar    1  UNL1        0.0131
     44 C          10.8715   78.6294   26.6027 C.ar    1  UNL1       -0.0017
     45 C          11.8204   77.6242   26.7611 C.ar    1  UNL1        0.0681
     46 N          11.2269   76.4088   26.7439 N.ar    1  UNL1       -0.3523
     47 C           9.9148   76.6371   26.5591 C.ar    1  UNL1        0.0564
     48 C           8.9073   75.6868   26.4044 C.ar    1  UNL1        0.0198
     49 H          11.7013   75.4814   26.8166 H       1  UNL1        0.1660
     50 C           6.4488   74.2099   24.8093 C.3     1  UNL1        0.0773
     51 C           6.4907   75.1489   25.9774 C.2     1  UNL1        0.1735
     52 O           5.5609   75.0909   26.8275 O.2     1  UNL1       -0.2913
@<TRIPOS>BOND
     1    50    51    1
     2    51    52    2
     3    51    40    1
     4    40    41   ar
     5    41    42   ar
     6    42    43   ar
     7    43    44   ar
     8    44    39    1
     9    39    28    1
    10    28     1    1
    11     1     2   am
    12     2     3    2
    13     2     5    1
    14     5     6   ar
    15     6     7   ar
    16     7     8   ar
    17     8    12    1
    18    12    13    1
    19    13    14    1
    20    14    15    1
    21    15    18    1
    22    18    19   ar
    23    19    20   ar
    24    20    21   ar
    25    21    24    1
    26    24    25    1
    27    24    26    1
    28    24    27    1
    29    21    22   ar
    30    22    23   ar
    31    15    16    1
    32    16    17    1
    33     8     9   ar
    34     9    10   ar
    35    10    11    1
    36    28    29    1
    37    29    30    2
    38    29    31   am
    39    31    33    1
    40    33    34   ar
    41    34    35   ar
    42    35    36   ar
    43    36    37   ar
    44    37    38   ar
    45    44    45   ar
    46    45    46   ar
    47    46    47   ar
    48    47    48   ar
    49    48    40   ar
    50    47    43   ar
    51    10     5   ar
    52    38    33   ar
    53    17    12    1
    54    23    18   ar
    55     1     4    1
    56    31    32    1
    57    46    49    1
