@<TRIPOS>MOLECULE
*****
 40 44 0 0 0
SMALL
GASTEIGER

@<TRIPOS>ATOM
      1 C          49.9527   11.8120  -21.6493 C.2     1  UNL1        0.2506
      2 O          51.0987   12.0536  -22.1167 O.2     1  UNL1       -0.2699
      3 N          48.8895   11.3952  -22.5292 N.am    1  UNL1       -0.2680
      4 C          47.9349   10.3713  -22.0914 C.3     1  UNL1        0.1412
      5 C          46.6059   11.0198  -21.7103 C.3     1  UNL1        0.2268
      6 O          46.3350   12.1708  -22.5080 O.3     1  UNL1       -0.4739
      7 C          46.3761   12.1450  -23.9036 C.ar    1  UNL1        0.1362
      8 C          45.1888   12.3861  -24.6034 C.ar    1  UNL1        0.0366
      9 C          45.1656   12.3406  -25.9970 C.ar    1  UNL1        0.0031
     10 C          46.3367   12.0612  -26.7096 C.ar    1  UNL1       -0.0002
     11 C          47.5379   11.8576  -26.0180 C.ar    1  UNL1        0.0004
     12 C          47.5761   11.8876  -24.6128 C.ar    1  UNL1        0.0317
     13 C          48.9374   11.7891  -23.9445 C.3     1  UNL1        0.1236
     14 C          46.3191   12.0293  -28.1840 C.ar    1  UNL1       -0.0002
     15 C          46.5545   10.7899  -28.8317 C.ar    1  UNL1        0.0014
     16 C          46.5325   10.6929  -30.2322 C.ar    1  UNL1        0.0206
     17 C          46.2632   11.8465  -30.9573 C.ar    1  UNL1        0.0983
     18 N          46.1641   11.9655  -32.2933 N.ar    1  UNL1       -0.2241
     19 C          45.8609   13.2784  -32.4587 C.ar    1  UNL1        0.1750
     20 N          45.7682   13.9617  -31.2937 N.ar    1  UNL1       -0.3351
     21 C          46.0294   13.0448  -30.3498 C.ar    1  UNL1        0.0739
     22 C          46.0585   13.1996  -28.9552 C.ar    1  UNL1        0.0241
     23 H          45.5361   14.9724  -31.1744 H       1  UNL1        0.1675
     24 C          45.7170   14.5295  -28.3237 C.3     1  UNL1        0.1651
     25 O          46.1147   15.5764  -29.1651 O.3     1  UNL1       -0.3772
     26 H          45.4491   15.6160  -29.9010 H       1  UNL1        0.2109
     27 C          49.0161   13.0451  -19.6551 C.ar    1  UNL1        0.0503
     28 C          48.7866   13.0812  -18.2643 C.ar    1  UNL1        0.0328
     29 C          49.2806   12.0728  -17.4280 C.ar    1  UNL1        0.1069
     30 C          50.0049   11.0105  -17.9754 C.ar    1  UNL1        0.0186
     31 C          50.2336   10.9527  -19.3493 C.ar    1  UNL1        0.0071
     32 C          49.7315   11.9498  -20.1976 C.ar    1  UNL1        0.0667
     33 S          48.9674   12.1360  -15.6963 S.O2    1  UNL1        0.0105
     34 C          50.5120   12.0837  -14.8171 C.3     1  UNL1        0.1816
     35 O          48.2378   13.4040  -15.3507 O.2     1  UNL1       -0.1686
     36 O          48.1166   10.9646  -15.2929 O.2     1  UNL1       -0.1686
     37 N          48.5656   14.1191  -20.5120 N.pl3   1  UNL1       -0.3325
     38 H          47.5413   14.2837  -20.6321 H       1  UNL1        0.1468
     39 C          48.8235   15.4476  -22.5596 C.3     1  UNL1        0.0229
     40 C          49.4509   15.0332  -21.2334 C.3     1  UNL1        0.0871
@<TRIPOS>BOND
     1    39    40    1
     2    40    37    1
     3    37    27    1
     4    27    28   ar
     5    28    29   ar
     6    29    33    1
     7    33    34    1
     8    33    35    2
     9    33    36    2
    10    29    30   ar
    11    30    31   ar
    12    31    32   ar
    13    32     1    1
    14     1     2    2
    15     1     3   am
    16     3     4    1
    17     4     5    1
    18     5     6    1
    19     6     7    1
    20     7     8   ar
    21     8     9   ar
    22     9    10   ar
    23    10    14    1
    24    14    15   ar
    25    15    16   ar
    26    16    17   ar
    27    17    18   ar
    28    18    19   ar
    29    19    20   ar
    30    20    21   ar
    31    21    22   ar
    32    22    24    1
    33    24    25    1
    34    10    11   ar
    35    11    12   ar
    36    12    13    1
    37    32    27   ar
    38    13     3    1
    39    12     7   ar
    40    22    14   ar
    41    21    17   ar
    42    37    38    1
    43    20    23    1
    44    25    26    1
@<TRIPOS>MOLECULE
*****
 40 44 0 0 0
SMALL
GASTEIGER

@<TRIPOS>ATOM
      1 C          49.9074   12.2379  -21.4109 C.2     1  UNL1        0.2506
      2 O          51.0126   12.6364  -21.8690 O.2     1  UNL1       -0.2699
      3 N          48.9132   11.6934  -22.3016 N.am    1  UNL1       -0.2680
      4 C          48.1024   10.5457  -21.8812 C.3     1  UNL1        0.1412
      5 C          46.6971   11.0057  -21.5000 C.3     1  UNL1        0.2268
      6 O          46.2777   12.1198  -22.2858 O.3     1  UNL1       -0.4739
      7 C          46.3275   12.1170  -23.6813 C.ar    1  UNL1        0.1362
      8 C          45.1214   12.2056  -24.3848 C.ar    1  UNL1        0.0366
      9 C          45.1101   12.1746  -25.7790 C.ar    1  UNL1        0.0031
     10 C          46.3109   12.0633  -26.4883 C.ar    1  UNL1       -0.0002
     11 C          47.5258   12.0138  -25.7923 C.ar    1  UNL1        0.0004
     12 C          47.5540   12.0312  -24.3866 C.ar    1  UNL1        0.0317
     13 C          48.9135   12.1076  -23.7119 C.3     1  UNL1        0.1236
     14 C          46.3036   12.0475  -27.9630 C.ar    1  UNL1       -0.0002
     15 C          46.5409   10.8147  -28.6225 C.ar    1  UNL1        0.0014
     16 C          46.5286   10.7330  -30.0241 C.ar    1  UNL1        0.0206
     17 C          46.2670   11.8951  -30.7384 C.ar    1  UNL1        0.0983
     18 N          46.1776   12.0288  -32.0738 N.ar    1  UNL1       -0.2241
     19 C          45.8785   13.3441  -32.2269 C.ar    1  UNL1        0.1750
     20 N          45.7791   14.0150  -31.0552 N.ar    1  UNL1       -0.3351
     21 C          46.0315   13.0872  -30.1196 C.ar    1  UNL1        0.0739
     22 C          46.0511   13.2267  -28.7232 C.ar    1  UNL1        0.0241
     23 H          45.5485   15.0248  -30.9265 H       1  UNL1        0.1675
     24 C          45.7081   14.5505  -28.0796 C.3     1  UNL1        0.1651
     25 O          46.1557   15.6057  -28.8849 O.3     1  UNL1       -0.3772
     26 H          45.5197   15.6707  -29.6447 H       1  UNL1        0.2109
     27 C          50.7262   12.2886  -19.0231 C.ar    1  UNL1        0.0503
     28 C          50.4275   12.4428  -17.6537 C.ar    1  UNL1        0.0328
     29 C          49.1056   12.5998  -17.2198 C.ar    1  UNL1        0.1069
     30 C          48.0658   12.6120  -18.1534 C.ar    1  UNL1        0.0186
     31 C          48.3426   12.4706  -19.5123 C.ar    1  UNL1        0.0071
     32 C          49.6639   12.3269  -19.9590 C.ar    1  UNL1        0.0667
     33 S          48.7625   12.8039  -15.5048 S.O2    1  UNL1        0.0105
     34 C          50.2863   13.0678  -14.6275 C.3     1  UNL1        0.1816
     35 O          47.8553   13.9845  -15.2979 O.2     1  UNL1       -0.1686
     36 O          48.0811   11.5734  -14.9751 O.2     1  UNL1       -0.1686
     37 N          52.0828   12.0588  -19.4677 N.pl3   1  UNL1       -0.3325
     38 H          52.3269   11.1495  -19.9198 H       1  UNL1        0.1468
     39 C          52.7365   14.3867  -19.8890 C.3     1  UNL1        0.0229
     40 C          53.1713   13.0287  -19.3495 C.3     1  UNL1        0.0871
@<TRIPOS>BOND
     1    39    40    1
     2    40    37    1
     3    37    27    1
     4    27    28   ar
     5    28    29   ar
     6    29    33    1
     7    33    34    1
     8    33    35    2
     9    33    36    2
    10    29    30   ar
    11    30    31   ar
    12    31    32   ar
    13    32     1    1
    14     1     2    2
    15     1     3   am
    16     3     4    1
    17     4     5    1
    18     5     6    1
    19     6     7    1
    20     7     8   ar
    21     8     9   ar
    22     9    10   ar
    23    10    14    1
    24    14    15   ar
    25    15    16   ar
    26    16    17   ar
    27    17    18   ar
    28    18    19   ar
    29    19    20   ar
    30    20    21   ar
    31    21    22   ar
    32    22    24    1
    33    24    25    1
    34    10    11   ar
    35    11    12   ar
    36    12    13    1
    37    32    27   ar
    38    13     3    1
    39    12     7   ar
    40    22    14   ar
    41    21    17   ar
    42    37    38    1
    43    20    23    1
    44    25    26    1
@<TRIPOS>MOLECULE
*****
 40 44 0 0 0
SMALL
GASTEIGER

@<TRIPOS>ATOM
      1 C          49.6360   13.3887  -21.5663 C.2     1  UNL1        0.2506
      2 O          50.4082   14.3290  -21.8976 O.2     1  UNL1       -0.2699
      3 N          48.9289   12.6467  -22.5800 N.am    1  UNL1       -0.2680
      4 C          48.7521   11.1976  -22.4382 C.3     1  UNL1        0.1412
      5 C          47.3219   10.8819  -22.0059 C.3     1  UNL1        0.2268
      6 O          46.3910   11.8184  -22.5454 O.3     1  UNL1       -0.4739
      7 C          46.3341   12.1226  -23.9071 C.ar    1  UNL1        0.1362
      8 C          45.1682   11.7958  -24.6080 C.ar    1  UNL1        0.0366
      9 C          45.0694   12.0476  -25.9761 C.ar    1  UNL1        0.0031
     10 C          46.1370   12.6399  -26.6595 C.ar    1  UNL1       -0.0002
     11 C          47.2927   13.0062  -25.9573 C.ar    1  UNL1        0.0004
     12 C          47.4133   12.7480  -24.5804 C.ar    1  UNL1        0.0317
     13 C          48.6398   13.2934  -23.8680 C.3     1  UNL1        0.1236
     14 C          46.0291   12.9231  -28.1028 C.ar    1  UNL1       -0.0002
     15 C          45.6892   14.2398  -28.5053 C.ar    1  UNL1        0.0014
     16 C          45.5892   14.5746  -29.8651 C.ar    1  UNL1        0.0206
     17 C          45.8438   13.5778  -30.7982 C.ar    1  UNL1        0.0983
     18 N          45.8349   13.6935  -32.1381 N.ar    1  UNL1       -0.2241
     19 C          46.1769   12.4466  -32.5520 C.ar    1  UNL1        0.1750
     20 N          46.3953   11.5811  -31.5340 N.ar    1  UNL1       -0.3351
     21 C          46.1770   12.3084  -30.4279 C.ar    1  UNL1        0.0739
     22 C          46.2718   11.9172  -29.0834 C.ar    1  UNL1        0.0241
     23 H          46.6780   10.5793  -31.6103 H       1  UNL1        0.1675
     24 C          46.7197   10.5201  -28.7207 C.3     1  UNL1        0.1651
     25 O          47.4625    9.9664  -29.7714 O.3     1  UNL1       -0.3772
     26 H          48.3582   10.3939  -29.7401 H       1  UNL1        0.2109
     27 C          50.5864   12.6387  -19.3508 C.ar    1  UNL1        0.0503
     28 C          50.3848   12.4019  -17.9754 C.ar    1  UNL1        0.0328
     29 C          49.1173   12.5491  -17.3991 C.ar    1  UNL1        0.1069
     30 C          48.0361   12.9429  -18.1922 C.ar    1  UNL1        0.0186
     31 C          48.2182   13.1907  -19.5519 C.ar    1  UNL1        0.0071
     32 C          49.4860   13.0600  -20.1363 C.ar    1  UNL1        0.0667
     33 S          48.8969   12.2601  -15.6762 S.O2    1  UNL1        0.0105
     34 C          50.4874   12.0834  -14.9013 C.3     1  UNL1        0.1816
     35 O          48.1610   13.4119  -15.0507 O.2     1  UNL1       -0.1686
     36 O          48.0934   11.0064  -15.4721 O.2     1  UNL1       -0.1686
     37 N          51.8790   12.4223  -19.9616 N.pl3   1  UNL1       -0.3325
     38 H          52.0426   11.5563  -20.5220 H       1  UNL1        0.1468
     39 C          53.5554   13.6576  -21.2608 C.3     1  UNL1        0.0229
     40 C          53.0059   13.3506  -19.8723 C.3     1  UNL1        0.0871
@<TRIPOS>BOND
     1    39    40    1
     2    40    37    1
     3    37    27    1
     4    27    28   ar
     5    28    29   ar
     6    29    33    1
     7    33    34    1
     8    33    35    2
     9    33    36    2
    10    29    30   ar
    11    30    31   ar
    12    31    32   ar
    13    32     1    1
    14     1     2    2
    15     1     3   am
    16     3     4    1
    17     4     5    1
    18     5     6    1
    19     6     7    1
    20     7     8   ar
    21     8     9   ar
    22     9    10   ar
    23    10    14    1
    24    14    15   ar
    25    15    16   ar
    26    16    17   ar
    27    17    18   ar
    28    18    19   ar
    29    19    20   ar
    30    20    21   ar
    31    21    22   ar
    32    22    24    1
    33    24    25    1
    34    10    11   ar
    35    11    12   ar
    36    12    13    1
    37    32    27   ar
    38    13     3    1
    39    12     7   ar
    40    22    14   ar
    41    21    17   ar
    42    37    38    1
    43    20    23    1
    44    25    26    1
@<TRIPOS>MOLECULE
*****
 40 44 0 0 0
SMALL
GASTEIGER

@<TRIPOS>ATOM
      1 C          46.7672   12.3152  -20.2951 C.2     1  UNL1        0.2506
      2 O          45.5362   12.0510  -20.2251 O.2     1  UNL1       -0.2699
      3 N          47.3523   12.6907  -21.5581 N.am    1  UNL1       -0.2680
      4 C          48.3813   13.7347  -21.6076 C.3     1  UNL1        0.1412
      5 C          49.7602   13.1059  -21.7950 C.3     1  UNL1        0.2268
      6 O          49.6936   11.9186  -22.5828 O.3     1  UNL1       -0.4739
      7 C          49.0682   11.8784  -23.8307 C.ar    1  UNL1        0.1362
      8 C          49.8551   11.6053  -24.9548 C.ar    1  UNL1        0.0366
      9 C          49.2884   11.5849  -26.2289 C.ar    1  UNL1        0.0031
     10 C          47.9206   11.8295  -26.3926 C.ar    1  UNL1       -0.0002
     11 C          47.1184   12.0648  -25.2684 C.ar    1  UNL1        0.0004
     12 C          47.6761   12.1012  -23.9781 C.ar    1  UNL1        0.0317
     13 C          46.7210   12.2303  -22.8032 C.3     1  UNL1        0.1236
     14 C          47.3152   11.7917  -27.7368 C.ar    1  UNL1       -0.0002
     15 C          47.3323   10.5641  -28.4468 C.ar    1  UNL1        0.0014
     16 C          46.7556   10.4614  -29.7228 C.ar    1  UNL1        0.0206
     17 C          46.1616   11.5967  -30.2586 C.ar    1  UNL1        0.0983
     18 N          45.5297   11.7058  -31.4408 N.ar    1  UNL1       -0.2241
     19 C          45.1210   13.0004  -31.4474 C.ar    1  UNL1        0.1750
     20 N          45.4694   13.6819  -30.3307 N.ar    1  UNL1       -0.3351
     21 C          46.1320   12.7832  -29.5869 C.ar    1  UNL1        0.0739
     22 C          46.7099   12.9440  -28.3181 C.ar    1  UNL1        0.0241
     23 H          45.2550   14.6794  -30.1104 H       1  UNL1        0.1675
     24 C          46.5848   14.2563  -27.5790 C.3     1  UNL1        0.1651
     25 O          46.5409   15.3185  -28.4912 O.3     1  UNL1       -0.3772
     26 H          45.6302   15.3137  -28.8869 H       1  UNL1        0.2109
     27 C          48.4267   11.1424  -18.7968 C.ar    1  UNL1        0.0503
     28 C          49.2261   11.1709  -17.6355 C.ar    1  UNL1        0.0328
     29 C          49.1666   12.2526  -16.7485 C.ar    1  UNL1        0.1069
     30 C          48.3105   13.3240  -17.0174 C.ar    1  UNL1        0.0186
     31 C          47.5198   13.3179  -18.1655 C.ar    1  UNL1        0.0071
     32 C          47.5819   12.2464  -19.0676 C.ar    1  UNL1        0.0667
     33 S          50.1859   12.2683  -15.3128 S.O2    1  UNL1        0.0105
     34 C          49.6119   13.5288  -14.1978 C.3     1  UNL1        0.1816
     35 O          50.1312   10.9316  -14.6275 O.2     1  UNL1       -0.1686
     36 O          51.6089   12.5511  -15.7056 O.2     1  UNL1       -0.1686
     37 N          48.4362    9.9968  -19.6789 N.pl3   1  UNL1       -0.3325
     38 H          47.5426    9.4923  -19.8735 H       1  UNL1        0.1468
     39 C          49.2666    8.9664  -21.7460 C.3     1  UNL1        0.0229
     40 C          49.6251    9.4794  -20.3559 C.3     1  UNL1        0.0871
@<TRIPOS>BOND
     1    39    40    1
     2    40    37    1
     3    37    27    1
     4    27    28   ar
     5    28    29   ar
     6    29    33    1
     7    33    34    1
     8    33    35    2
     9    33    36    2
    10    29    30   ar
    11    30    31   ar
    12    31    32   ar
    13    32     1    1
    14     1     2    2
    15     1     3   am
    16     3     4    1
    17     4     5    1
    18     5     6    1
    19     6     7    1
    20     7     8   ar
    21     8     9   ar
    22     9    10   ar
    23    10    14    1
    24    14    15   ar
    25    15    16   ar
    26    16    17   ar
    27    17    18   ar
    28    18    19   ar
    29    19    20   ar
    30    20    21   ar
    31    21    22   ar
    32    22    24    1
    33    24    25    1
    34    10    11   ar
    35    11    12   ar
    36    12    13    1
    37    32    27   ar
    38    13     3    1
    39    12     7   ar
    40    22    14   ar
    41    21    17   ar
    42    37    38    1
    43    20    23    1
    44    25    26    1
@<TRIPOS>MOLECULE
*****
 40 44 0 0 0
SMALL
GASTEIGER

@<TRIPOS>ATOM
      1 C          48.6759    9.7189  -21.4337 C.2     1  UNL1        0.2506
      2 O          48.2203    8.5432  -21.4490 O.2     1  UNL1       -0.2699
      3 N          49.1112   10.3383  -22.6605 N.am    1  UNL1       -0.2680
      4 C          48.8426   11.7604  -22.8989 C.3     1  UNL1        0.1412
      5 C          50.1157   12.5781  -22.6924 C.3     1  UNL1        0.2268
      6 O          51.2791   11.8427  -23.0668 O.3     1  UNL1       -0.4739
      7 C          51.4071   11.2197  -24.3100 C.ar    1  UNL1        0.1362
      8 C          52.4096   11.6721  -25.1747 C.ar    1  UNL1        0.0366
      9 C          52.5614   11.1077  -26.4409 C.ar    1  UNL1        0.0031
     10 C          51.7143   10.0739  -26.8547 C.ar    1  UNL1       -0.0002
     11 C          50.7335    9.5885  -25.9799 C.ar    1  UNL1        0.0004
     12 C          50.5590   10.1548  -24.7048 C.ar    1  UNL1        0.0317
     13 C          49.5651    9.4867  -23.7692 C.3     1  UNL1        0.1236
     14 C          51.8833    9.4635  -28.1865 C.ar    1  UNL1       -0.0002
     15 C          53.0992    9.6908  -28.8800 C.ar    1  UNL1        0.0014
     16 C          53.3257    9.1215  -30.1433 C.ar    1  UNL1        0.0206
     17 C          52.3254    8.3232  -30.6829 C.ar    1  UNL1        0.0983
     18 N          52.3521    7.6627  -31.8542 N.ar    1  UNL1       -0.2241
     19 C          51.1529    7.0265  -31.8704 C.ar    1  UNL1        0.1750
     20 N          50.4011    7.2640  -30.7698 N.ar    1  UNL1       -0.3351
     21 C          51.1529    8.0903  -30.0268 C.ar    1  UNL1        0.0739
     22 C          50.8691    8.6502  -28.7715 C.ar    1  UNL1        0.0241
     23 H          49.4553    6.8762  -30.5589 H       1  UNL1        0.1675
     24 C          49.5889    8.3018  -28.0479 C.3     1  UNL1        0.1651
     25 O          49.2807    6.9492  -28.2423 O.3     1  UNL1       -0.3772
     26 H          49.8956    6.4325  -27.6584 H       1  UNL1        0.2109
     27 C          47.5916   11.0464  -19.5799 C.ar    1  UNL1        0.0503
     28 C          47.7094   11.6671  -18.3193 C.ar    1  UNL1        0.0328
     29 C          48.9405   11.7151  -17.6542 C.ar    1  UNL1        0.1069
     30 C          50.0688   11.1349  -18.2403 C.ar    1  UNL1        0.0186
     31 C          49.9695   10.5084  -19.4816 C.ar    1  UNL1        0.0071
     32 C          48.7387   10.4423  -20.1499 C.ar    1  UNL1        0.0667
     33 S          49.0562   12.4848  -16.0747 S.O2    1  UNL1        0.0105
     34 C          50.7618   12.5525  -15.5770 C.3     1  UNL1        0.1816
     35 O          48.4981   13.8790  -16.1390 O.2     1  UNL1       -0.1686
     36 O          48.2671   11.6953  -15.0681 O.2     1  UNL1       -0.1686
     37 N          46.3372   11.0544  -20.2991 N.pl3   1  UNL1       -0.3325
     38 H          46.0763   10.2293  -20.8837 H       1  UNL1        0.1468
     39 C          44.3237   11.8980  -19.1775 C.3     1  UNL1        0.0229
     40 C          45.3655   12.1472  -20.2622 C.3     1  UNL1        0.0871
@<TRIPOS>BOND
     1    39    40    1
     2    40    37    1
     3    37    27    1
     4    27    28   ar
     5    28    29   ar
     6    29    33    1
     7    33    34    1
     8    33    35    2
     9    33    36    2
    10    29    30   ar
    11    30    31   ar
    12    31    32   ar
    13    32     1    1
    14     1     2    2
    15     1     3   am
    16     3     4    1
    17     4     5    1
    18     5     6    1
    19     6     7    1
    20     7     8   ar
    21     8     9   ar
    22     9    10   ar
    23    10    14    1
    24    14    15   ar
    25    15    16   ar
    26    16    17   ar
    27    17    18   ar
    28    18    19   ar
    29    19    20   ar
    30    20    21   ar
    31    21    22   ar
    32    22    24    1
    33    24    25    1
    34    10    11   ar
    35    11    12   ar
    36    12    13    1
    37    32    27   ar
    38    13     3    1
    39    12     7   ar
    40    22    14   ar
    41    21    17   ar
    42    37    38    1
    43    20    23    1
    44    25    26    1
@<TRIPOS>MOLECULE
*****
 40 44 0 0 0
SMALL
GASTEIGER

@<TRIPOS>ATOM
      1 C          49.8779   11.9076  -21.7016 C.2     1  UNL1        0.2506
      2 O          51.0162   12.1412  -22.1915 O.2     1  UNL1       -0.2699
      3 N          48.7609   11.6385  -22.5723 N.am    1  UNL1       -0.2680
      4 C          47.7709   10.6218  -22.2014 C.3     1  UNL1        0.1412
      5 C          46.4940   11.2901  -21.6969 C.3     1  UNL1        0.2268
      6 O          46.2538   12.5310  -22.3582 O.3     1  UNL1       -0.4739
      7 C          46.2394   12.6511  -23.7494 C.ar    1  UNL1        0.1362
      8 C          45.0404   13.0224  -24.3674 C.ar    1  UNL1        0.0366
      9 C          44.9608   13.1259  -25.7558 C.ar    1  UNL1        0.0031
     10 C          46.0870   12.8668  -26.5445 C.ar    1  UNL1       -0.0002
     11 C          47.3016   12.5329  -25.9313 C.ar    1  UNL1        0.0004
     12 C          47.3957   12.4120  -24.5336 C.ar    1  UNL1        0.0317
     13 C          48.7747   12.1772  -23.9398 C.3     1  UNL1        0.1236
     14 C          46.0106   12.9921  -28.0120 C.ar    1  UNL1       -0.0002
     15 C          45.6670   14.2535  -28.5613 C.ar    1  UNL1        0.0014
     16 C          45.5959   14.4392  -29.9512 C.ar    1  UNL1        0.0206
     17 C          45.8828   13.3513  -30.7656 C.ar    1  UNL1        0.0983
     18 N          45.9045   13.3224  -32.1101 N.ar    1  UNL1       -0.2241
     19 C          46.2690   12.0427  -32.3795 C.ar    1  UNL1        0.1750
     20 N          46.4720   11.2944  -31.2697 N.ar    1  UNL1       -0.3351
     21 C          46.2200   12.1333  -30.2535 C.ar    1  UNL1        0.0739
     22 C          46.2868   11.8899  -28.8729 C.ar    1  UNL1        0.0241
     23 H          46.7666   10.2938  -31.2314 H       1  UNL1        0.1675
     24 C          46.7401   10.5456  -28.3520 C.3     1  UNL1        0.1651
     25 O          46.3529    9.5322  -29.2382 O.3     1  UNL1       -0.3772
     26 H          46.9745    9.5798  -30.0110 H       1  UNL1        0.2109
     27 C          49.1153   12.9816  -19.5477 C.ar    1  UNL1        0.0503
     28 C          48.9394   12.8822  -18.1522 C.ar    1  UNL1        0.0328
     29 C          49.3808   11.7536  -17.4509 C.ar    1  UNL1        0.1069
     30 C          49.9977   10.7059  -18.1401 C.ar    1  UNL1        0.0186
     31 C          50.1716   10.7822  -19.5211 C.ar    1  UNL1        0.0071
     32 C          49.7207   11.9015  -20.2351 C.ar    1  UNL1        0.0667
     33 S          49.1361   11.6498  -15.7102 S.O2    1  UNL1        0.0105
     34 C          49.0392   13.2902  -15.0312 C.3     1  UNL1        0.1816
     35 O          47.8625   10.9091  -15.4124 O.2     1  UNL1       -0.1686
     36 O          50.2830   10.9096  -15.0812 O.2     1  UNL1       -0.1686
     37 N          48.7217   14.1742  -20.2644 N.pl3   1  UNL1       -0.3325
     38 H          47.7443   14.5300  -20.1698 H       1  UNL1        0.1468
     39 C          48.8287   15.5642  -22.2844 C.3     1  UNL1        0.0229
     40 C          49.6090   14.9579  -21.1235 C.3     1  UNL1        0.0871
@<TRIPOS>BOND
     1    39    40    1
     2    40    37    1
     3    37    27    1
     4    27    28   ar
     5    28    29   ar
     6    29    33    1
     7    33    34    1
     8    33    35    2
     9    33    36    2
    10    29    30   ar
    11    30    31   ar
    12    31    32   ar
    13    32     1    1
    14     1     2    2
    15     1     3   am
    16     3     4    1
    17     4     5    1
    18     5     6    1
    19     6     7    1
    20     7     8   ar
    21     8     9   ar
    22     9    10   ar
    23    10    14    1
    24    14    15   ar
    25    15    16   ar
    26    16    17   ar
    27    17    18   ar
    28    18    19   ar
    29    19    20   ar
    30    20    21   ar
    31    21    22   ar
    32    22    24    1
    33    24    25    1
    34    10    11   ar
    35    11    12   ar
    36    12    13    1
    37    32    27   ar
    38    13     3    1
    39    12     7   ar
    40    22    14   ar
    41    21    17   ar
    42    37    38    1
    43    20    23    1
    44    25    26    1
