@<TRIPOS>MOLECULE
*****
 35 39 0 0 0
SMALL
GASTEIGER

@<TRIPOS>ATOM
      1 C         -21.3105   -8.3524   -9.2626 C.2     1  UNL1        0.2512
      2 O         -21.9120   -8.0915   -8.1850 O.2     1  UNL1       -0.2698
      3 N         -21.6982   -7.6622  -10.4684 N.am    1  UNL1       -0.2759
      4 C         -20.6982   -7.2092  -11.4439 C.3     1  UNL1        0.0954
      5 C         -21.1191   -7.5816  -12.8788 C.3     1  UNL1        0.0399
      6 C         -22.6657   -7.6080  -13.1097 C.3     1  UNL1        0.0645
      7 C         -23.3740   -6.7239  -12.0505 C.3     1  UNL1        0.0399
      8 C         -23.0883   -7.2090  -10.6173 C.3     1  UNL1        0.0954
      9 C         -23.2135   -9.0790  -13.0039 C.3     1  UNL1        0.0477
     10 C         -22.8860   -9.8666  -14.2350 C.ar    1  UNL1        0.0220
     11 C         -22.9287  -11.2220  -14.4663 C.ar    1  UNL1        0.0923
     12 N         -22.7689  -11.4238  -15.8002 N.ar    1  UNL1       -0.2534
     13 N         -22.6835  -10.2477  -16.4164 N.ar    1  UNL1       -0.1651
     14 C         -22.7481   -9.3020  -15.4640 C.ar    1  UNL1        0.1515
     15 C         -22.8157   -7.8590  -15.6378 C.2     1  UNL1        0.2650
     16 O         -22.7933   -7.3347  -16.7825 O.2     1  UNL1       -0.2684
     17 N         -22.9432   -7.0514  -14.4564 N.am    1  UNL1       -0.3023
     18 H         -23.0541   -6.0186  -14.5750 H       1  UNL1        0.1497
     19 C         -17.3839  -10.5047   -7.1383 C.ar    1  UNL1        0.2248
     20 N         -16.4257  -11.4738   -7.1548 N.ar    1  UNL1       -0.2101
     21 C         -16.3246  -12.3738   -8.1676 C.ar    1  UNL1        0.1021
     22 C         -17.2227  -12.3342   -9.2347 C.ar    1  UNL1        0.0210
     23 C         -18.2236  -11.3548   -9.2550 C.ar    1  UNL1        0.0083
     24 C         -19.1486  -11.2981  -10.3063 C.ar    1  UNL1        0.0300
     25 C         -20.1552  -10.3273  -10.3116 C.ar    1  UNL1        0.1445
     26 F         -21.0520  -10.3212  -11.3306 F       1  UNL1       -0.2040
     27 C         -20.2478   -9.3905   -9.2640 C.ar    1  UNL1        0.0811
     28 C         -19.2997   -9.4305   -8.2275 C.ar    1  UNL1        0.0114
     29 C         -18.3030  -10.4178   -8.2010 C.ar    1  UNL1        0.0535
     30 C         -17.7113  -10.0262   -4.7270 C.3     1  UNL1        0.2542
     31 O         -17.4648   -9.6097   -6.0640 O.3     1  UNL1       -0.4561
     32 C         -22.8570  -12.7049  -16.5311 C.3     1  UNL1        0.0867
     33 C         -21.8973  -13.7639  -15.9440 C.3     1  UNL1        0.0244
     34 C         -24.3002  -13.2290  -16.4423 C.3     1  UNL1        0.0244
     35 C         -22.4844  -12.4748  -18.0092 C.3     1  UNL1        0.0244
@<TRIPOS>BOND
     1    30    31    1
     2    31    19    1
     3    19    20   ar
     4    20    21   ar
     5    21    22   ar
     6    22    23   ar
     7    23    24   ar
     8    24    25   ar
     9    25    26    1
    10    25    27   ar
    11    27     1    1
    12     1     2    2
    13     1     3   am
    14     3     4    1
    15     4     5    1
    16     5     6    1
    17     6     7    1
    18     7     8    1
    19     6     9    1
    20     9    10    1
    21    10    11   ar
    22    11    12   ar
    23    12    32    1
    24    32    33    1
    25    32    34    1
    26    32    35    1
    27    12    13   ar
    28    13    14   ar
    29    14    15    1
    30    15    16    2
    31    15    17   am
    32    27    28   ar
    33    28    29   ar
    34    29    19   ar
    35    29    23   ar
    36     8     3    1
    37    14    10   ar
    38    17     6    1
    39    17    18    1
@<TRIPOS>MOLECULE
*****
 35 39 0 0 0
SMALL
GASTEIGER

@<TRIPOS>ATOM
      1 C         -21.4408   -7.6171   -9.8171 C.2     1  UNL1        0.2512
      2 O         -21.9302   -6.9891   -8.8387 O.2     1  UNL1       -0.2698
      3 N         -21.8902   -7.3005  -11.1507 N.am    1  UNL1       -0.2759
      4 C         -20.9535   -7.2534  -12.2809 C.3     1  UNL1        0.0954
      5 C         -21.5184   -8.0119  -13.4976 C.3     1  UNL1        0.0399
      6 C         -23.0780   -7.9795  -13.6091 C.3     1  UNL1        0.0645
      7 C         -23.6385   -6.7574  -12.8360 C.3     1  UNL1        0.0399
      8 C         -23.2588   -6.8012  -11.3443 C.3     1  UNL1        0.0954
      9 C         -23.7004   -9.2963  -13.0142 C.3     1  UNL1        0.0477
     10 C         -23.5278  -10.4479  -13.9559 C.ar    1  UNL1        0.0220
     11 C         -23.6703  -11.8004  -13.7491 C.ar    1  UNL1        0.0923
     12 N         -23.6389  -12.4144  -14.9606 N.ar    1  UNL1       -0.2534
     13 N         -23.5379  -11.4955  -15.9174 N.ar    1  UNL1       -0.1651
     14 C         -23.4639  -10.3012  -15.3060 C.ar    1  UNL1        0.1515
     15 C         -23.4611   -8.9808  -15.9172 C.2     1  UNL1        0.2650
     16 O         -23.5070   -8.8369  -17.1673 O.2     1  UNL1       -0.2684
     17 N         -23.4379   -7.8420  -15.0415 N.am    1  UNL1       -0.3023
     18 H         -23.4975   -6.8899  -15.4695 H       1  UNL1        0.1497
     19 C         -19.5852  -12.1023  -10.8184 C.ar    1  UNL1        0.2248
     20 N         -18.6537  -13.0672  -10.5758 N.ar    1  UNL1       -0.2101
     21 C         -17.6916  -12.9216   -9.6275 C.ar    1  UNL1        0.1021
     22 C         -17.6254  -11.7532   -8.8677 C.ar    1  UNL1        0.0210
     23 C         -18.5632  -10.7363   -9.0871 C.ar    1  UNL1        0.0083
     24 C         -18.5141   -9.5458   -8.3493 C.ar    1  UNL1        0.0300
     25 C         -19.4440   -8.5283   -8.5851 C.ar    1  UNL1        0.1445
     26 F         -19.3477   -7.3768   -7.8727 F       1  UNL1       -0.2040
     27 C         -20.4453   -8.6900   -9.5622 C.ar    1  UNL1        0.0811
     28 C         -20.5110   -9.8974  -10.2782 C.ar    1  UNL1        0.0114
     29 C         -19.5656  -10.9125  -10.0664 C.ar    1  UNL1        0.0535
     30 C         -20.3758  -13.1933  -12.9006 C.3     1  UNL1        0.2542
     31 O         -20.5471  -12.2852  -11.8199 O.3     1  UNL1       -0.4561
     32 C         -23.8654  -13.8460  -15.2475 C.3     1  UNL1        0.0867
     33 C         -22.5435  -14.6460  -15.2380 C.3     1  UNL1        0.0244
     34 C         -24.8105  -14.4228  -14.1800 C.3     1  UNL1        0.0244
     35 C         -24.5132  -13.9905  -16.6388 C.3     1  UNL1        0.0244
@<TRIPOS>BOND
     1    30    31    1
     2    31    19    1
     3    19    20   ar
     4    20    21   ar
     5    21    22   ar
     6    22    23   ar
     7    23    24   ar
     8    24    25   ar
     9    25    26    1
    10    25    27   ar
    11    27     1    1
    12     1     2    2
    13     1     3   am
    14     3     4    1
    15     4     5    1
    16     5     6    1
    17     6     7    1
    18     7     8    1
    19     6     9    1
    20     9    10    1
    21    10    11   ar
    22    11    12   ar
    23    12    32    1
    24    32    33    1
    25    32    34    1
    26    32    35    1
    27    12    13   ar
    28    13    14   ar
    29    14    15    1
    30    15    16    2
    31    15    17   am
    32    27    28   ar
    33    28    29   ar
    34    29    19   ar
    35    29    23   ar
    36     8     3    1
    37    14    10   ar
    38    17     6    1
    39    17    18    1
@<TRIPOS>MOLECULE
*****
 35 39 0 0 0
SMALL
GASTEIGER

@<TRIPOS>ATOM
      1 C         -21.6282   -7.7406   -9.4197 C.2     1  UNL1        0.2512
      2 O         -22.3325   -7.3227   -8.4602 O.2     1  UNL1       -0.2698
      3 N         -21.9288   -7.2944  -10.7581 N.am    1  UNL1       -0.2759
      4 C         -20.8609   -6.9729  -11.7136 C.3     1  UNL1        0.0954
      5 C         -21.1385   -7.6135  -13.0874 C.3     1  UNL1        0.0399
      6 C         -22.6563   -7.7559  -13.4364 C.3     1  UNL1        0.0645
      7 C         -23.4860   -6.7340  -12.6163 C.3     1  UNL1        0.0399
      8 C         -23.3142   -6.9432  -11.1005 C.3     1  UNL1        0.0954
      9 C         -23.1621   -9.2100  -13.1123 C.3     1  UNL1        0.0477
     10 C         -22.6992  -10.1860  -14.1496 C.ar    1  UNL1        0.0220
     11 C         -22.6758  -11.5614  -14.1352 C.ar    1  UNL1        0.0923
     12 N         -22.3901  -11.9880  -15.3930 N.ar    1  UNL1       -0.2534
     13 N         -22.2889  -10.9368  -16.2022 N.ar    1  UNL1       -0.1651
     14 C         -22.4703   -9.8417  -15.4448 C.ar    1  UNL1        0.1515
     15 C         -22.5701   -8.4574  -15.8813 C.2     1  UNL1        0.2650
     16 O         -22.4623   -8.1435  -17.0960 O.2     1  UNL1       -0.2684
     17 N         -22.8301   -7.4607  -14.8797 N.am    1  UNL1       -0.3023
     18 H         -22.9642   -6.4718  -15.1916 H       1  UNL1        0.1497
     19 C         -18.0484   -9.4796   -6.4662 C.ar    1  UNL1        0.2248
     20 N         -17.0591  -10.3872   -6.2314 N.ar    1  UNL1       -0.2101
     21 C         -16.7379  -11.3554   -7.1290 C.ar    1  UNL1        0.1021
     22 C         -17.4323  -11.4531   -8.3353 C.ar    1  UNL1        0.0210
     23 C         -18.4574  -10.5407   -8.6144 C.ar    1  UNL1        0.0083
     24 C         -19.1819  -10.6218   -9.8114 C.ar    1  UNL1        0.0300
     25 C         -20.2150   -9.7173  -10.0760 C.ar    1  UNL1        0.1445
     26 F         -20.9152   -9.8445  -11.2319 F       1  UNL1       -0.2040
     27 C         -20.5358   -8.7094   -9.1460 C.ar    1  UNL1        0.0811
     28 C         -19.7867   -8.6112   -7.9611 C.ar    1  UNL1        0.0114
     29 C         -18.7664   -9.5313   -7.6759 C.ar    1  UNL1        0.0535
     30 C         -17.3992   -7.6038   -4.9794 C.3     1  UNL1        0.2542
     31 O         -18.3605   -8.5105   -5.5043 O.3     1  UNL1       -0.4561
     32 C         -22.3695  -13.3810  -15.8853 C.3     1  UNL1        0.0867
     33 C         -21.7224  -13.4820  -17.2847 C.3     1  UNL1        0.0244
     34 C         -21.5686  -14.2451  -14.8966 C.3     1  UNL1        0.0244
     35 C         -23.8143  -13.9106  -15.9764 C.3     1  UNL1        0.0244
@<TRIPOS>BOND
     1    30    31    1
     2    31    19    1
     3    19    20   ar
     4    20    21   ar
     5    21    22   ar
     6    22    23   ar
     7    23    24   ar
     8    24    25   ar
     9    25    26    1
    10    25    27   ar
    11    27     1    1
    12     1     2    2
    13     1     3   am
    14     3     4    1
    15     4     5    1
    16     5     6    1
    17     6     7    1
    18     7     8    1
    19     6     9    1
    20     9    10    1
    21    10    11   ar
    22    11    12   ar
    23    12    32    1
    24    32    33    1
    25    32    34    1
    26    32    35    1
    27    12    13   ar
    28    13    14   ar
    29    14    15    1
    30    15    16    2
    31    15    17   am
    32    27    28   ar
    33    28    29   ar
    34    29    19   ar
    35    29    23   ar
    36     8     3    1
    37    14    10   ar
    38    17     6    1
    39    17    18    1
@<TRIPOS>MOLECULE
*****
 35 39 0 0 0
SMALL
GASTEIGER

@<TRIPOS>ATOM
      1 C         -20.6224  -11.3934  -11.1009 C.2     1  UNL1        0.2512
      2 O         -20.4048  -12.2394  -10.1909 O.2     1  UNL1       -0.2698
      3 N         -20.5501   -9.9878  -10.7851 N.am    1  UNL1       -0.2759
      4 C         -19.9523   -9.0252  -11.7194 C.3     1  UNL1        0.0954
      5 C         -20.8465   -7.7799  -11.8758 C.3     1  UNL1        0.0399
      6 C         -21.6688   -7.4132  -10.5971 C.3     1  UNL1        0.0645
      7 C         -20.9854   -8.0100   -9.3392 C.3     1  UNL1        0.0399
      8 C         -20.8742   -9.5436   -9.4222 C.3     1  UNL1        0.0954
      9 C         -23.1342   -7.9758  -10.7042 C.3     1  UNL1        0.0477
     10 C         -23.9643   -7.1453  -11.6338 C.ar    1  UNL1        0.0220
     11 C         -25.1811   -7.4063  -12.2200 C.ar    1  UNL1        0.0923
     12 N         -25.6282   -6.2551  -12.7859 N.ar    1  UNL1       -0.2534
     13 N         -24.7664   -5.2745  -12.5293 N.ar    1  UNL1       -0.1651
     14 C         -23.7522   -5.8175  -11.8347 C.ar    1  UNL1        0.1515
     15 C         -22.6225   -5.1374  -11.2199 C.2     1  UNL1        0.2650
     16 O         -22.4770   -3.8902  -11.3153 O.2     1  UNL1       -0.2684
     17 N         -21.6932   -5.9356  -10.4692 N.am    1  UNL1       -0.3023
     18 H         -20.9129   -5.4476   -9.9732 H       1  UNL1        0.1497
     19 C         -23.0251  -10.7717  -15.3908 C.ar    1  UNL1        0.2248
     20 N         -23.3331  -11.2241  -16.6390 N.ar    1  UNL1       -0.2101
     21 C         -22.8606  -12.4049  -17.1173 C.ar    1  UNL1        0.1021
     22 C         -22.0239  -13.1970  -16.3304 C.ar    1  UNL1        0.0210
     23 C         -21.6819  -12.7672  -15.0422 C.ar    1  UNL1        0.0083
     24 C         -20.8326  -13.5344  -14.2332 C.ar    1  UNL1        0.0300
     25 C         -20.4826  -13.0909  -12.9541 C.ar    1  UNL1        0.1445
     26 F         -19.6338  -13.8452  -12.2103 F       1  UNL1       -0.2040
     27 C         -20.9844  -11.8711  -12.4602 C.ar    1  UNL1        0.0811
     28 C         -21.8607  -11.1196  -13.2616 C.ar    1  UNL1        0.0114
     29 C         -22.1956  -11.5444  -14.5564 C.ar    1  UNL1        0.0535
     30 C         -22.9836   -8.2920  -15.3730 C.3     1  UNL1        0.2542
     31 O         -23.5175   -9.5385  -14.9452 O.3     1  UNL1       -0.4561
     32 C         -26.9373   -6.0209  -13.4299 C.3     1  UNL1        0.0867
     33 C         -27.7252   -7.3369  -13.6161 C.3     1  UNL1        0.0244
     34 C         -27.7586   -5.0624  -12.5511 C.3     1  UNL1        0.0244
     35 C         -26.7163   -5.3842  -14.8163 C.3     1  UNL1        0.0244
@<TRIPOS>BOND
     1    30    31    1
     2    31    19    1
     3    19    20   ar
     4    20    21   ar
     5    21    22   ar
     6    22    23   ar
     7    23    24   ar
     8    24    25   ar
     9    25    26    1
    10    25    27   ar
    11    27     1    1
    12     1     2    2
    13     1     3   am
    14     3     4    1
    15     4     5    1
    16     5     6    1
    17     6     7    1
    18     7     8    1
    19     6     9    1
    20     9    10    1
    21    10    11   ar
    22    11    12   ar
    23    12    32    1
    24    32    33    1
    25    32    34    1
    26    32    35    1
    27    12    13   ar
    28    13    14   ar
    29    14    15    1
    30    15    16    2
    31    15    17   am
    32    27    28   ar
    33    28    29   ar
    34    29    19   ar
    35    29    23   ar
    36     8     3    1
    37    14    10   ar
    38    17     6    1
    39    17    18    1
@<TRIPOS>MOLECULE
*****
 35 39 0 0 0
SMALL
GASTEIGER

@<TRIPOS>ATOM
      1 C         -23.2738   -6.5908  -11.1618 C.2     1  UNL1        0.2512
      2 O         -22.8781   -5.3945  -11.2221 O.2     1  UNL1       -0.2698
      3 N         -22.3398   -7.6211  -10.7786 N.am    1  UNL1       -0.2759
      4 C         -22.7413   -8.7268   -9.8994 C.3     1  UNL1        0.0954
      5 C         -22.2526  -10.0786  -10.4549 C.3     1  UNL1        0.0399
      6 C         -20.9135   -9.9981  -11.2586 C.3     1  UNL1        0.0645
      7 C         -20.1165   -8.7372  -10.8342 C.3     1  UNL1        0.0399
      8 C         -20.9139   -7.4445  -11.0879 C.3     1  UNL1        0.0954
      9 C         -21.2015   -9.9308  -12.8038 C.3     1  UNL1        0.0477
     10 C         -21.5923  -11.2740  -13.3388 C.ar    1  UNL1        0.0220
     11 C         -22.1734  -11.6246  -14.5354 C.ar    1  UNL1        0.0923
     12 N         -22.1115  -12.9769  -14.6500 N.ar    1  UNL1       -0.2534
     13 N         -21.4668  -13.4788  -13.5999 N.ar    1  UNL1       -0.1651
     14 C         -21.1573  -12.4441  -12.8003 C.ar    1  UNL1        0.1515
     15 C         -20.3503  -12.4578  -11.5897 C.2     1  UNL1        0.2650
     16 O         -19.8568  -13.5266  -11.1429 O.2     1  UNL1       -0.2684
     17 N         -20.1068  -11.2010  -10.9377 N.am    1  UNL1       -0.3023
     18 H         -19.4780  -11.1927  -10.1025 H       1  UNL1        0.1497
     19 C         -27.1105   -6.2110  -14.2760 C.ar    1  UNL1        0.2248
     20 N         -28.3982   -6.5242  -14.5945 N.ar    1  UNL1       -0.2101
     21 C         -29.1774   -7.2896  -13.7864 C.ar    1  UNL1        0.1021
     22 C         -28.6667   -7.7925  -12.5893 C.ar    1  UNL1        0.0210
     23 C         -27.3472   -7.4952  -12.2260 C.ar    1  UNL1        0.0083
     24 C         -26.8018   -7.9969  -11.0364 C.ar    1  UNL1        0.0300
     25 C         -25.4784   -7.7092  -10.6882 C.ar    1  UNL1        0.1445
     26 F         -24.9741   -8.2369   -9.5437 F       1  UNL1       -0.2040
     27 C         -24.6793   -6.9062  -11.5250 C.ar    1  UNL1        0.0811
     28 C         -25.2390   -6.3789  -12.7013 C.ar    1  UNL1        0.0114
     29 C         -26.5576   -6.6847  -13.0713 C.ar    1  UNL1        0.0535
     30 C         -26.8550   -4.3187  -15.8586 C.3     1  UNL1        0.2542
     31 O         -26.3359   -5.4356  -15.1481 O.3     1  UNL1       -0.4561
     32 C         -22.5070  -13.7982  -15.8128 C.3     1  UNL1        0.0867
     33 C         -23.0407  -15.1819  -15.3790 C.3     1  UNL1        0.0244
     34 C         -23.6055  -13.0571  -16.5935 C.3     1  UNL1        0.0244
     35 C         -21.2833  -14.0115  -16.7257 C.3     1  UNL1        0.0244
@<TRIPOS>BOND
     1    30    31    1
     2    31    19    1
     3    19    20   ar
     4    20    21   ar
     5    21    22   ar
     6    22    23   ar
     7    23    24   ar
     8    24    25   ar
     9    25    26    1
    10    25    27   ar
    11    27     1    1
    12     1     2    2
    13     1     3   am
    14     3     4    1
    15     4     5    1
    16     5     6    1
    17     6     7    1
    18     7     8    1
    19     6     9    1
    20     9    10    1
    21    10    11   ar
    22    11    12   ar
    23    12    32    1
    24    32    33    1
    25    32    34    1
    26    32    35    1
    27    12    13   ar
    28    13    14   ar
    29    14    15    1
    30    15    16    2
    31    15    17   am
    32    27    28   ar
    33    28    29   ar
    34    29    19   ar
    35    29    23   ar
    36     8     3    1
    37    14    10   ar
    38    17     6    1
    39    17    18    1
@<TRIPOS>MOLECULE
*****
 35 39 0 0 0
SMALL
GASTEIGER

@<TRIPOS>ATOM
      1 C         -23.7325   -7.9419  -13.3778 C.2     1  UNL1        0.2512
      2 O         -23.8384   -7.1446  -14.3495 O.2     1  UNL1       -0.2698
      3 N         -23.2340   -7.4499  -12.1167 N.am    1  UNL1       -0.2759
      4 C         -23.8094   -7.8970  -10.8416 C.3     1  UNL1        0.0954
      5 C         -22.7018   -8.2688   -9.8368 C.3     1  UNL1        0.0399
      6 C         -21.3829   -7.4440   -9.9981 C.3     1  UNL1        0.0645
      7 C         -21.6825   -6.1015  -10.7144 C.3     1  UNL1        0.0399
      8 C         -22.2916   -6.3222  -12.1113 C.3     1  UNL1        0.0954
      9 C         -20.3266   -8.2526  -10.8381 C.3     1  UNL1        0.0477
     10 C         -19.7005   -9.3375  -10.0171 C.ar    1  UNL1        0.0220
     11 C         -18.9490  -10.4252  -10.3973 C.ar    1  UNL1        0.0923
     12 N         -18.4162  -10.9778   -9.2765 N.ar    1  UNL1       -0.2534
     13 N         -18.7597  -10.2470   -8.2191 N.ar    1  UNL1       -0.1651
     14 C         -19.5456   -9.2542   -8.6689 C.ar    1  UNL1        0.1515
     15 C         -20.0791   -8.1257   -7.9214 C.2     1  UNL1        0.2650
     16 O         -19.8512   -7.9878   -6.6907 O.2     1  UNL1       -0.2684
     17 N         -20.8496   -7.1525   -8.6449 N.am    1  UNL1       -0.3023
     18 H         -21.1852   -6.3072   -8.1292 H       1  UNL1        0.1497
     19 C         -22.3904  -12.6805  -13.9317 C.ar    1  UNL1        0.2248
     20 N         -22.7407  -13.9871  -14.0984 N.ar    1  UNL1       -0.2101
     21 C         -24.0373  -14.3812  -14.1972 C.ar    1  UNL1        0.1021
     22 C         -25.0651  -13.4408  -14.1203 C.ar    1  UNL1        0.0210
     23 C         -24.7476  -12.0877  -13.9475 C.ar    1  UNL1        0.0083
     24 C         -25.7583  -11.1214  -13.8531 C.ar    1  UNL1        0.0300
     25 C         -25.4340   -9.7743  -13.6644 C.ar    1  UNL1        0.1445
     26 F         -26.4397   -8.8701  -13.5471 F       1  UNL1       -0.2040
     27 C         -24.0877   -9.3710  -13.5735 C.ar    1  UNL1        0.0811
     28 C         -23.0759  -10.3381  -13.7000 C.ar    1  UNL1        0.0114
     29 C         -23.3934  -11.6952  -13.8628 C.ar    1  UNL1        0.0535
     30 C         -20.0930  -13.0996  -13.0968 C.3     1  UNL1        0.2542
     31 O         -21.0420  -12.3205  -13.8139 O.3     1  UNL1       -0.4561
     32 C         -17.4515  -12.0941   -9.1976 C.3     1  UNL1        0.0867
     33 C         -16.0200  -11.6379   -9.5584 C.3     1  UNL1        0.0244
     34 C         -17.4555  -12.6535   -7.7649 C.3     1  UNL1        0.0244
     35 C         -17.8731  -13.2024  -10.1826 C.3     1  UNL1        0.0244
@<TRIPOS>BOND
     1    30    31    1
     2    31    19    1
     3    19    20   ar
     4    20    21   ar
     5    21    22   ar
     6    22    23   ar
     7    23    24   ar
     8    24    25   ar
     9    25    26    1
    10    25    27   ar
    11    27     1    1
    12     1     2    2
    13     1     3   am
    14     3     4    1
    15     4     5    1
    16     5     6    1
    17     6     7    1
    18     7     8    1
    19     6     9    1
    20     9    10    1
    21    10    11   ar
    22    11    12   ar
    23    12    32    1
    24    32    33    1
    25    32    34    1
    26    32    35    1
    27    12    13   ar
    28    13    14   ar
    29    14    15    1
    30    15    16    2
    31    15    17   am
    32    27    28   ar
    33    28    29   ar
    34    29    19   ar
    35    29    23   ar
    36     8     3    1
    37    14    10   ar
    38    17     6    1
    39    17    18    1
@<TRIPOS>MOLECULE
*****
 35 39 0 0 0
SMALL
GASTEIGER

@<TRIPOS>ATOM
      1 C         -22.4057   -6.0628  -11.4397 C.2     1  UNL1        0.2512
      2 O         -21.8094   -4.9527  -11.4984 O.2     1  UNL1       -0.2698
      3 N         -21.6864   -7.2226  -10.9726 N.am    1  UNL1       -0.2759
      4 C         -22.3245   -8.2160  -10.0993 C.3     1  UNL1        0.0954
      5 C         -22.0387   -9.6480  -10.5917 C.3     1  UNL1        0.0399
      6 C         -20.6574   -9.8199  -11.3047 C.3     1  UNL1        0.0645
      7 C         -19.6861   -8.6979  -10.8543 C.3     1  UNL1        0.0399
      8 C         -20.2346   -7.2985  -11.1885 C.3     1  UNL1        0.0954
      9 C         -20.8319   -9.7551  -12.8670 C.3     1  UNL1        0.0477
     10 C         -21.4109  -11.0299  -13.3986 C.ar    1  UNL1        0.0220
     11 C         -21.9667  -11.3162  -14.6240 C.ar    1  UNL1        0.0923
     12 N         -22.1284  -12.6626  -14.7055 N.ar    1  UNL1       -0.2534
     13 N         -21.6458  -13.2316  -13.6039 N.ar    1  UNL1       -0.1651
     14 C         -21.2159  -12.2385  -12.8073 C.ar    1  UNL1        0.1515
     15 C         -20.5008  -12.3487  -11.5450 C.2     1  UNL1        0.2650
     16 O         -20.2253  -13.4703  -11.0433 O.2     1  UNL1       -0.2684
     17 N         -20.0888  -11.1303  -10.9047 N.am    1  UNL1       -0.3023
     18 H         -19.5215  -11.2010  -10.0293 H       1  UNL1        0.1497
     19 C         -26.1996   -8.6852  -13.2539 C.ar    1  UNL1        0.2248
     20 N         -27.5025   -8.7432  -13.6499 N.ar    1  UNL1       -0.2101
     21 C         -28.3161   -7.6554  -13.6214 C.ar    1  UNL1        0.1021
     22 C         -27.8317   -6.4277  -13.1687 C.ar    1  UNL1        0.0210
     23 C         -26.4988   -6.3261  -12.7510 C.ar    1  UNL1        0.0083
     24 C         -25.9873   -5.1099  -12.2785 C.ar    1  UNL1        0.0300
     25 C         -24.6598   -5.0200  -11.8480 C.ar    1  UNL1        0.1445
     26 F         -24.2071   -3.8336  -11.3683 F       1  UNL1       -0.2040
     27 C         -23.8186   -6.1488  -11.8902 C.ar    1  UNL1        0.0811
     28 C         -24.3257   -7.3588  -12.3940 C.ar    1  UNL1        0.0114
     29 C         -25.6639   -7.4641  -12.8029 C.ar    1  UNL1        0.0535
     30 C         -25.4834  -10.8107  -14.3123 C.3     1  UNL1        0.2542
     31 O         -25.4016   -9.8360  -13.2803 O.3     1  UNL1       -0.4561
     32 C         -22.5838  -13.4428  -15.8747 C.3     1  UNL1        0.0867
     33 C         -23.7314  -14.4088  -15.5043 C.3     1  UNL1        0.0244
     34 C         -23.0751  -12.4700  -16.9599 C.3     1  UNL1        0.0244
     35 C         -21.4060  -14.2722  -16.4237 C.3     1  UNL1        0.0244
@<TRIPOS>BOND
     1    30    31    1
     2    31    19    1
     3    19    20   ar
     4    20    21   ar
     5    21    22   ar
     6    22    23   ar
     7    23    24   ar
     8    24    25   ar
     9    25    26    1
    10    25    27   ar
    11    27     1    1
    12     1     2    2
    13     1     3   am
    14     3     4    1
    15     4     5    1
    16     5     6    1
    17     6     7    1
    18     7     8    1
    19     6     9    1
    20     9    10    1
    21    10    11   ar
    22    11    12   ar
    23    12    32    1
    24    32    33    1
    25    32    34    1
    26    32    35    1
    27    12    13   ar
    28    13    14   ar
    29    14    15    1
    30    15    16    2
    31    15    17   am
    32    27    28   ar
    33    28    29   ar
    34    29    19   ar
    35    29    23   ar
    36     8     3    1
    37    14    10   ar
    38    17     6    1
    39    17    18    1
@<TRIPOS>MOLECULE
*****
 35 39 0 0 0
SMALL
GASTEIGER

@<TRIPOS>ATOM
      1 C         -22.6117   -8.9258  -14.7244 C.2     1  UNL1        0.2512
      2 O         -22.5994   -8.1239  -15.6981 O.2     1  UNL1       -0.2698
      3 N         -22.6630   -8.4000  -13.3821 N.am    1  UNL1       -0.2759
      4 C         -23.4803   -9.0391  -12.3427 C.3     1  UNL1        0.0954
      5 C         -22.6841   -9.1941  -11.0324 C.3     1  UNL1        0.0399
      6 C         -21.6197   -8.0743  -10.7897 C.3     1  UNL1        0.0645
      7 C         -21.9960   -6.8030  -11.5943 C.3     1  UNL1        0.0399
      8 C         -22.0694   -7.0842  -13.1064 C.3     1  UNL1        0.0954
      9 C         -20.1929   -8.5643  -11.2365 C.3     1  UNL1        0.0477
     10 C         -19.6109   -9.5145  -10.2358 C.ar    1  UNL1        0.0220
     11 C         -18.5400  -10.3722  -10.3357 C.ar    1  UNL1        0.0923
     12 N         -18.2648  -10.8442   -9.0919 N.ar    1  UNL1       -0.2534
     13 N         -19.0848  -10.2739   -8.2130 N.ar    1  UNL1       -0.1651
     14 C         -19.9069   -9.4709   -8.9095 C.ar    1  UNL1        0.1515
     15 C         -20.9011   -8.5424   -8.3936 C.2     1  UNL1        0.2650
     16 O         -21.1067   -8.4223   -7.1570 O.2     1  UNL1       -0.2684
     17 N         -21.6194   -7.7399   -9.3445 N.am    1  UNL1       -0.3023
     18 H         -22.2915   -7.0269   -8.9798 H       1  UNL1        0.1497
     19 C         -24.3941  -13.5137  -14.1435 C.ar    1  UNL1        0.2248
     20 N         -24.3095  -14.8475  -14.4108 N.ar    1  UNL1       -0.2101
     21 C         -23.3173  -15.3698  -15.1781 C.ar    1  UNL1        0.1021
     22 C         -22.3443  -14.5365  -15.7309 C.ar    1  UNL1        0.0210
     23 C         -22.3963  -13.1594  -15.4818 C.ar    1  UNL1        0.0083
     24 C         -21.4411  -12.2953  -16.0343 C.ar    1  UNL1        0.0300
     25 C         -21.5088  -10.9193  -15.7944 C.ar    1  UNL1        0.1445
     26 F         -20.5844  -10.1090  -16.3703 F       1  UNL1       -0.2040
     27 C         -22.5337  -10.3855  -14.9892 C.ar    1  UNL1        0.0811
     28 C         -23.4714  -11.2581  -14.4112 C.ar    1  UNL1        0.0114
     29 C         -23.4262  -12.6368  -14.6687 C.ar    1  UNL1        0.0535
     30 C         -26.2754  -13.8452  -12.5620 C.3     1  UNL1        0.2542
     31 O         -25.4456  -13.0149  -13.3642 O.3     1  UNL1       -0.4561
     32 C         -17.1335  -11.7046   -8.6884 C.3     1  UNL1        0.0867
     33 C         -15.8503  -11.3690   -9.4810 C.3     1  UNL1        0.0244
     34 C         -16.8657  -11.5013   -7.1875 C.3     1  UNL1        0.0244
     35 C         -17.4967  -13.1798   -8.9499 C.3     1  UNL1        0.0244
@<TRIPOS>BOND
     1    30    31    1
     2    31    19    1
     3    19    20   ar
     4    20    21   ar
     5    21    22   ar
     6    22    23   ar
     7    23    24   ar
     8    24    25   ar
     9    25    26    1
    10    25    27   ar
    11    27     1    1
    12     1     2    2
    13     1     3   am
    14     3     4    1
    15     4     5    1
    16     5     6    1
    17     6     7    1
    18     7     8    1
    19     6     9    1
    20     9    10    1
    21    10    11   ar
    22    11    12   ar
    23    12    32    1
    24    32    33    1
    25    32    34    1
    26    32    35    1
    27    12    13   ar
    28    13    14   ar
    29    14    15    1
    30    15    16    2
    31    15    17   am
    32    27    28   ar
    33    28    29   ar
    34    29    19   ar
    35    29    23   ar
    36     8     3    1
    37    14    10   ar
    38    17     6    1
    39    17    18    1
@<TRIPOS>MOLECULE
*****
 35 39 0 0 0
SMALL
GASTEIGER

@<TRIPOS>ATOM
      1 C         -21.8902   -8.1154  -14.4782 C.2     1  UNL1        0.2512
      2 O         -21.7547   -7.2435  -15.3797 O.2     1  UNL1       -0.2698
      3 N         -21.9686   -7.6950  -13.1005 N.am    1  UNL1       -0.2759
      4 C         -22.8942   -8.3367  -12.1581 C.3     1  UNL1        0.0954
      5 C         -22.1873   -8.6671  -10.8292 C.3     1  UNL1        0.0399
      6 C         -21.0439   -7.6723  -10.4435 C.3     1  UNL1        0.0645
      7 C         -21.2632   -6.3122  -11.1558 C.3     1  UNL1        0.0399
      8 C         -21.2782   -6.4649  -12.6880 C.3     1  UNL1        0.0954
      9 C         -19.6431   -8.2539  -10.8618 C.3     1  UNL1        0.0477
     10 C         -19.2019   -9.3296   -9.9177 C.ar    1  UNL1        0.0220
     11 C         -18.2063  -10.2711  -10.0383 C.ar    1  UNL1        0.0923
     12 N         -18.0417  -10.8633   -8.8267 N.ar    1  UNL1       -0.2534
     13 N         -18.8555  -10.2916   -7.9430 N.ar    1  UNL1       -0.1651
     14 C         -19.5650   -9.3641   -8.6079 C.ar    1  UNL1        0.1515
     15 C         -20.5009   -8.3922   -8.0637 C.2     1  UNL1        0.2650
     16 O         -20.7624   -8.3520   -6.8326 O.2     1  UNL1       -0.2684
     17 N         -21.0933   -7.4547   -8.9770 N.am    1  UNL1       -0.3023
     18 H         -21.7194   -6.7142   -8.5861 H       1  UNL1        0.1497
     19 C         -21.1747  -12.8916  -13.3652 C.ar    1  UNL1        0.2248
     20 N         -21.2279  -14.2026  -13.7339 N.ar    1  UNL1       -0.2101
     21 C         -21.6344  -14.5900  -14.9712 C.ar    1  UNL1        0.1021
     22 C         -22.0242  -13.6370  -15.9128 C.ar    1  UNL1        0.0210
     23 C         -21.9858  -12.2789  -15.5731 C.ar    1  UNL1        0.0083
     24 C         -22.3840  -11.2992  -16.4928 C.ar    1  UNL1        0.0300
     25 C         -22.3584   -9.9461  -16.1408 C.ar    1  UNL1        0.1445
     26 F         -22.7797   -9.0270  -17.0466 F       1  UNL1       -0.2040
     27 C         -21.9257   -9.5505  -14.8602 C.ar    1  UNL1        0.0811
     28 C         -21.4974  -10.5330  -13.9514 C.ar    1  UNL1        0.0114
     29 C         -21.5453  -11.8946  -14.2873 C.ar    1  UNL1        0.0535
     30 C         -19.6806  -13.1630  -11.4044 C.3     1  UNL1        0.2542
     31 O         -20.7689  -12.5375  -12.0722 O.3     1  UNL1       -0.4561
     32 C         -17.0136  -11.8529   -8.4436 C.3     1  UNL1        0.0867
     33 C         -17.5736  -13.2929   -8.4597 C.3     1  UNL1        0.0244
     34 C         -15.8400  -11.7581   -9.4331 C.3     1  UNL1        0.0244
     35 C         -16.5114  -11.5406   -7.0200 C.3     1  UNL1        0.0244
@<TRIPOS>BOND
     1    30    31    1
     2    31    19    1
     3    19    20   ar
     4    20    21   ar
     5    21    22   ar
     6    22    23   ar
     7    23    24   ar
     8    24    25   ar
     9    25    26    1
    10    25    27   ar
    11    27     1    1
    12     1     2    2
    13     1     3   am
    14     3     4    1
    15     4     5    1
    16     5     6    1
    17     6     7    1
    18     7     8    1
    19     6     9    1
    20     9    10    1
    21    10    11   ar
    22    11    12   ar
    23    12    32    1
    24    32    33    1
    25    32    34    1
    26    32    35    1
    27    12    13   ar
    28    13    14   ar
    29    14    15    1
    30    15    16    2
    31    15    17   am
    32    27    28   ar
    33    28    29   ar
    34    29    19   ar
    35    29    23   ar
    36     8     3    1
    37    14    10   ar
    38    17     6    1
    39    17    18    1
