@<TRIPOS>MOLECULE
*****
 36 41 0 0 0
SMALL
GASTEIGER

@<TRIPOS>ATOM
      1 C         -21.6799   -8.4231  -13.8121 C.ar    1  UNL1        0.1379
      2 N         -20.8043   -7.8450  -14.6882 N.ar    1  UNL1       -0.2089
      3 C         -20.8138   -8.1514  -16.0239 C.ar    1  UNL1        0.2014
      4 N         -21.6935   -9.0721  -16.5172 N.ar    1  UNL1       -0.2050
      5 C         -22.5662   -9.6466  -15.6550 C.ar    1  UNL1        0.1654
      6 C         -22.6088   -9.3283  -14.3324 C.ar    1  UNL1        0.0865
      7 C         -23.6677  -10.0758  -13.8297 C.ar    1  UNL1        0.1095
      8 N         -24.1951  -10.8168  -14.8372 N.ar    1  UNL1       -0.1677
      9 N         -23.5069  -10.5590  -15.9430 N.ar    1  UNL1       -0.2319
     10 C         -23.8243  -11.1082  -17.2544 C.3     1  UNL1        0.1554
     11 C         -24.2594  -10.0202  -12.4846 C.ar    1  UNL1        0.0577
     12 C         -23.9251  -10.8032  -11.3962 C.ar    1  UNL1        0.1231
     13 N         -24.6193  -10.3887  -10.3185 N.ar    1  UNL1       -0.1676
     14 N         -25.3771   -9.3678  -10.6893 N.ar    1  UNL1       -0.2488
     15 C         -26.2792   -8.6759   -9.7745 C.3     1  UNL1        0.1537
     16 C         -25.1675   -9.0968  -11.9974 C.ar    1  UNL1        0.0809
     17 C         -25.8381   -8.0338  -12.7776 C.ar    1  UNL1        0.0174
     18 C         -25.1473   -6.8550  -13.1005 C.ar    1  UNL1        0.0012
     19 C         -25.7801   -5.8412  -13.8250 C.ar    1  UNL1       -0.0042
     20 C         -27.1173   -5.9853  -14.2231 C.ar    1  UNL1       -0.0218
     21 C         -27.7844   -4.9139  -15.0335 C.3     1  UNL1        0.0310
     22 C         -27.8048   -7.1680  -13.9122 C.ar    1  UNL1       -0.0042
     23 C         -27.1720   -8.1819  -13.1868 C.ar    1  UNL1        0.0012
     24 C         -21.6883   -8.6724  -10.0771 C.3     1  UNL1        0.0791
     25 C         -21.8200   -7.1553  -10.3020 C.3     1  UNL1        0.0391
     26 C         -22.1298   -6.9928  -11.7786 C.3     1  UNL1        0.0937
     27 N         -21.5594   -8.1686  -12.4083 N.pl3   1  UNL1       -0.2917
     28 C         -21.2422   -9.2110  -11.4470 C.3     1  UNL1        0.1081
     29 C         -19.4826   -8.1558   -7.0240 C.3     1  UNL1        0.1313
     30 C         -18.8010   -9.5387   -7.1286 C.3     1  UNL1        0.0324
     31 C         -18.3697   -9.8370   -8.5646 C.3     1  UNL1        0.0199
     32 C         -19.5752   -9.7959   -9.5297 C.3     1  UNL1        0.0723
     33 N         -20.7230   -9.0116   -8.9978 N.3     1  UNL1       -0.2703
     34 C         -20.2214   -7.7897   -8.3289 C.3     1  UNL1        0.1020
     35 C         -17.8402   -7.4158   -5.5489 C.3     1  UNL1        0.1741
     36 O         -18.5092   -7.1568   -6.7639 O.3     1  UNL1       -0.3522
@<TRIPOS>BOND
     1    35    36    1
     2    36    29    1
     3    29    30    1
     4    30    31    1
     5    31    32    1
     6    32    33    1
     7    33    24    1
     8    24    25    1
     9    25    26    1
    10    26    27    1
    11    27     1    1
    12     1     2   ar
    13     2     3   ar
    14     3     4   ar
    15     4     5   ar
    16     5     6   ar
    17     6     7   ar
    18     7    11    1
    19    11    12   ar
    20    12    13   ar
    21    13    14   ar
    22    14    15    1
    23    14    16   ar
    24    16    17    1
    25    17    18   ar
    26    18    19   ar
    27    19    20   ar
    28    20    21    1
    29    20    22   ar
    30    22    23   ar
    31     7     8   ar
    32     8     9   ar
    33     9    10    1
    34    27    28    1
    35    33    34    1
    36    34    29    1
    37    28    24    1
    38     6     1   ar
    39    16    11   ar
    40    23    17   ar
    41     9     5   ar
@<TRIPOS>MOLECULE
*****
 36 41 0 0 0
SMALL
GASTEIGER

@<TRIPOS>ATOM
      1 C         -24.9250  -12.0934  -13.4090 C.ar    1  UNL1        0.1379
      2 N         -26.1551  -12.6107  -13.7057 N.ar    1  UNL1       -0.2089
      3 C         -26.2955  -13.7621  -14.4355 C.ar    1  UNL1        0.2014
      4 N         -25.1970  -14.4183  -14.9122 N.ar    1  UNL1       -0.2050
      5 C         -23.9746  -13.9130  -14.6193 C.ar    1  UNL1        0.1654
      6 C         -23.8046  -12.7968  -13.8593 C.ar    1  UNL1        0.0865
      7 C         -22.4257  -12.6624  -13.7442 C.ar    1  UNL1        0.1095
      8 N         -21.8305  -13.6633  -14.4417 N.ar    1  UNL1       -0.1677
      9 N         -22.7836  -14.4119  -14.9838 N.ar    1  UNL1       -0.2319
     10 C         -22.5381  -15.6293  -15.7452 C.3     1  UNL1        0.1554
     11 C         -21.6732  -11.7103  -12.9137 C.ar    1  UNL1        0.0577
     12 C         -20.9846  -11.9872  -11.7481 C.ar    1  UNL1        0.1231
     13 N         -20.3450  -10.8763  -11.3333 N.ar    1  UNL1       -0.1676
     14 N         -20.6034   -9.9090  -12.2004 N.ar    1  UNL1       -0.2488
     15 C         -20.0825   -8.5536  -12.0554 C.3     1  UNL1        0.1537
     16 C         -21.3900  -10.3848  -13.1920 C.ar    1  UNL1        0.0809
     17 C         -21.9007   -9.6034  -14.3395 C.ar    1  UNL1        0.0174
     18 C         -22.3118   -8.2732  -14.1587 C.ar    1  UNL1        0.0012
     19 C         -22.8085   -7.5345  -15.2360 C.ar    1  UNL1       -0.0042
     20 C         -22.9160   -8.1205  -16.5058 C.ar    1  UNL1       -0.0218
     21 C         -23.4129   -7.3160  -17.6700 C.3     1  UNL1        0.0310
     22 C         -22.4937   -9.4454  -16.6908 C.ar    1  UNL1       -0.0042
     23 C         -21.9974  -10.1847  -15.6130 C.ar    1  UNL1        0.0012
     24 C         -24.9532   -9.2999  -10.9175 C.3     1  UNL1        0.0791
     25 C         -25.1275   -8.5490  -12.2499 C.3     1  UNL1        0.0391
     26 C         -25.4311   -9.6215  -13.2796 C.3     1  UNL1        0.0937
     27 N         -24.8222  -10.8268  -12.7496 N.pl3   1  UNL1       -0.2917
     28 C         -24.4818  -10.7008  -11.3426 C.3     1  UNL1        0.1081
     29 C         -22.5144   -6.6610   -9.6758 C.3     1  UNL1        0.1313
     30 C         -22.0558   -7.4834   -8.4506 C.3     1  UNL1        0.0324
     31 C         -21.7619   -8.9336   -8.8347 C.3     1  UNL1        0.0199
     32 C         -23.0038   -9.6089   -9.4578 C.3     1  UNL1        0.0723
     33 N         -23.9864   -8.6338  -10.0047 N.3     1  UNL1       -0.2703
     34 C         -23.2674   -7.5403  -10.6969 C.3     1  UNL1        0.1020
     35 C         -21.7933   -5.1421  -11.2864 C.3     1  UNL1        0.1741
     36 O         -21.3880   -6.0883  -10.3212 O.3     1  UNL1       -0.3522
@<TRIPOS>BOND
     1    35    36    1
     2    36    29    1
     3    29    30    1
     4    30    31    1
     5    31    32    1
     6    32    33    1
     7    33    24    1
     8    24    25    1
     9    25    26    1
    10    26    27    1
    11    27     1    1
    12     1     2   ar
    13     2     3   ar
    14     3     4   ar
    15     4     5   ar
    16     5     6   ar
    17     6     7   ar
    18     7    11    1
    19    11    12   ar
    20    12    13   ar
    21    13    14   ar
    22    14    15    1
    23    14    16   ar
    24    16    17    1
    25    17    18   ar
    26    18    19   ar
    27    19    20   ar
    28    20    21    1
    29    20    22   ar
    30    22    23   ar
    31     7     8   ar
    32     8     9   ar
    33     9    10    1
    34    27    28    1
    35    33    34    1
    36    34    29    1
    37    28    24    1
    38     6     1   ar
    39    16    11   ar
    40    23    17   ar
    41     9     5   ar
@<TRIPOS>MOLECULE
*****
 36 41 0 0 0
SMALL
GASTEIGER

@<TRIPOS>ATOM
      1 C         -24.1529   -8.3050  -11.2704 C.ar    1  UNL1        0.1379
      2 N         -24.4055   -8.1702   -9.9338 N.ar    1  UNL1       -0.2089
      3 C         -23.5657   -8.6932   -8.9856 C.ar    1  UNL1        0.2014
      4 N         -22.4529   -9.3928   -9.3559 N.ar    1  UNL1       -0.2050
      5 C         -22.1948   -9.5276  -10.6789 C.ar    1  UNL1        0.1654
      6 C         -22.9870   -8.9805  -11.6409 C.ar    1  UNL1        0.0865
      7 C         -22.3451   -9.2883  -12.8351 C.ar    1  UNL1        0.1095
      8 N         -21.2310  -10.0120  -12.5571 N.ar    1  UNL1       -0.1677
      9 N         -21.1562  -10.1651  -11.2404 N.ar    1  UNL1       -0.2319
     10 C         -20.0542  -10.8233  -10.5516 C.3     1  UNL1        0.1554
     11 C         -22.6797   -8.8256  -14.1903 C.ar    1  UNL1        0.0577
     12 C         -22.6991   -7.5198  -14.6418 C.ar    1  UNL1        0.1231
     13 N         -22.9585   -7.5088  -15.9638 N.ar    1  UNL1       -0.1676
     14 N         -23.0991   -8.7640  -16.3624 N.ar    1  UNL1       -0.2488
     15 C         -23.4046   -9.1289  -17.7419 C.3     1  UNL1        0.1537
     16 C         -22.9117   -9.5980  -15.3146 C.ar    1  UNL1        0.0809
     17 C         -22.9979  -11.0741  -15.3594 C.ar    1  UNL1        0.0174
     18 C         -24.2326  -11.7136  -15.1658 C.ar    1  UNL1        0.0012
     19 C         -24.3179  -13.1083  -15.1928 C.ar    1  UNL1       -0.0042
     20 C         -23.1670  -13.8834  -15.3981 C.ar    1  UNL1       -0.0218
     21 C         -23.2648  -15.3786  -15.4654 C.3     1  UNL1        0.0310
     22 C         -21.9348  -13.2454  -15.6045 C.ar    1  UNL1       -0.0042
     23 C         -21.8494  -11.8503  -15.5768 C.ar    1  UNL1        0.0012
     24 C         -26.8043   -6.4158  -13.1179 C.3     1  UNL1        0.0791
     25 C         -26.9470   -7.8324  -13.7029 C.3     1  UNL1        0.0391
     26 C         -26.1214   -8.7270  -12.7970 C.3     1  UNL1        0.0937
     27 N         -25.1143   -7.8507  -12.2291 N.pl3   1  UNL1       -0.2917
     28 C         -25.4408   -6.4460  -12.4069 C.3     1  UNL1        0.1081
     29 C         -28.3769   -3.9904  -15.5873 C.3     1  UNL1        0.1313
     30 C         -27.0305   -3.5583  -16.2105 C.3     1  UNL1        0.0324
     31 C         -26.1446   -4.7678  -16.5099 C.3     1  UNL1        0.0199
     32 C         -25.8668   -5.5869  -15.2300 C.3     1  UNL1        0.0723
     33 N         -26.8730   -5.3550  -14.1579 N.3     1  UNL1       -0.2703
     34 C         -28.2259   -5.2815  -14.7548 C.3     1  UNL1        0.1020
     35 C         -29.6334   -3.0299  -17.2959 C.3     1  UNL1        0.1741
     36 O         -29.3293   -4.2262  -16.6123 O.3     1  UNL1       -0.3522
@<TRIPOS>BOND
     1    35    36    1
     2    36    29    1
     3    29    30    1
     4    30    31    1
     5    31    32    1
     6    32    33    1
     7    33    24    1
     8    24    25    1
     9    25    26    1
    10    26    27    1
    11    27     1    1
    12     1     2   ar
    13     2     3   ar
    14     3     4   ar
    15     4     5   ar
    16     5     6   ar
    17     6     7   ar
    18     7    11    1
    19    11    12   ar
    20    12    13   ar
    21    13    14   ar
    22    14    15    1
    23    14    16   ar
    24    16    17    1
    25    17    18   ar
    26    18    19   ar
    27    19    20   ar
    28    20    21    1
    29    20    22   ar
    30    22    23   ar
    31     7     8   ar
    32     8     9   ar
    33     9    10    1
    34    27    28    1
    35    33    34    1
    36    34    29    1
    37    28    24    1
    38     6     1   ar
    39    16    11   ar
    40    23    17   ar
    41     9     5   ar
@<TRIPOS>MOLECULE
*****
 36 41 0 0 0
SMALL
GASTEIGER

@<TRIPOS>ATOM
      1 C         -22.4206   -9.5381  -10.4986 C.ar    1  UNL1        0.1379
      2 N         -22.7925   -9.9494   -9.2491 N.ar    1  UNL1       -0.2089
      3 C         -22.8947   -9.0710   -8.2022 C.ar    1  UNL1        0.2014
      4 N         -22.6006   -7.7489   -8.3760 N.ar    1  UNL1       -0.2050
      5 C         -22.2343   -7.3338   -9.6125 C.ar    1  UNL1        0.1654
      6 C         -22.1679   -8.1757  -10.6798 C.ar    1  UNL1        0.0865
      7 C         -21.8277   -7.3544  -11.7487 C.ar    1  UNL1        0.1095
      8 N         -21.6814   -6.0842  -11.2930 N.ar    1  UNL1       -0.1677
      9 N         -21.9171   -6.0848   -9.9863 N.ar    1  UNL1       -0.2319
     10 C         -21.9315   -4.8894   -9.1541 C.3     1  UNL1        0.1554
     11 C         -21.7579   -7.7043  -13.1753 C.ar    1  UNL1        0.0577
     12 C         -20.6199   -7.9799  -13.9090 C.ar    1  UNL1        0.1231
     13 N         -20.9718   -8.3512  -15.1553 N.ar    1  UNL1       -0.1676
     14 N         -22.2938   -8.3232  -15.2314 N.ar    1  UNL1       -0.2488
     15 C         -23.0256   -8.6544  -16.4497 C.3     1  UNL1        0.1537
     16 C         -22.8108   -7.9574  -14.0367 C.ar    1  UNL1        0.0809
     17 C         -24.2494   -7.8020  -13.7292 C.ar    1  UNL1        0.0174
     18 C         -24.9913   -8.8973  -13.2591 C.ar    1  UNL1        0.0012
     19 C         -26.3540   -8.7603  -12.9804 C.ar    1  UNL1       -0.0042
     20 C         -26.9972   -7.5305  -13.1830 C.ar    1  UNL1       -0.0218
     21 C         -28.4506   -7.3733  -12.8476 C.3     1  UNL1        0.0310
     22 C         -26.2543   -6.4319  -13.6405 C.ar    1  UNL1       -0.0042
     23 C         -24.8914   -6.5690  -13.9200 C.ar    1  UNL1        0.0012
     24 C         -22.6898  -12.4350  -12.8540 C.3     1  UNL1        0.0791
     25 C         -21.1783  -12.1438  -12.8681 C.3     1  UNL1        0.0391
     26 C         -20.9420  -11.1872  -11.7141 C.3     1  UNL1        0.0937
     27 N         -22.2084  -10.5027  -11.5351 N.pl3   1  UNL1       -0.2917
     28 C         -23.3017  -11.1774  -12.2139 C.3     1  UNL1        0.1081
     29 C         -22.7597  -12.6624  -16.6482 C.3     1  UNL1        0.1313
     30 C         -24.2711  -12.9747  -16.7255 C.3     1  UNL1        0.0324
     31 C         -25.0769  -12.0420  -15.8211 C.3     1  UNL1        0.0199
     32 C         -24.6146  -12.1526  -14.3512 C.3     1  UNL1        0.0723
     33 N         -23.2369  -12.6983  -14.2115 N.3     1  UNL1       -0.2703
     34 C         -22.3652  -12.1188  -15.2584 C.3     1  UNL1        0.1020
     35 C         -23.0729  -11.9568  -18.8449 C.3     1  UNL1        0.1741
     36 O         -22.4175  -11.6907  -17.6239 O.3     1  UNL1       -0.3522
@<TRIPOS>BOND
     1    35    36    1
     2    36    29    1
     3    29    30    1
     4    30    31    1
     5    31    32    1
     6    32    33    1
     7    33    24    1
     8    24    25    1
     9    25    26    1
    10    26    27    1
    11    27     1    1
    12     1     2   ar
    13     2     3   ar
    14     3     4   ar
    15     4     5   ar
    16     5     6   ar
    17     6     7   ar
    18     7    11    1
    19    11    12   ar
    20    12    13   ar
    21    13    14   ar
    22    14    15    1
    23    14    16   ar
    24    16    17    1
    25    17    18   ar
    26    18    19   ar
    27    19    20   ar
    28    20    21    1
    29    20    22   ar
    30    22    23   ar
    31     7     8   ar
    32     8     9   ar
    33     9    10    1
    34    27    28    1
    35    33    34    1
    36    34    29    1
    37    28    24    1
    38     6     1   ar
    39    16    11   ar
    40    23    17   ar
    41     9     5   ar
@<TRIPOS>MOLECULE
*****
 36 41 0 0 0
SMALL
GASTEIGER

@<TRIPOS>ATOM
      1 C         -21.4998   -8.6427  -14.7661 C.ar    1  UNL1        0.1379
      2 N         -20.4844   -8.7824  -15.6706 N.ar    1  UNL1       -0.2089
      3 C         -20.5797   -8.2834  -16.9434 C.ar    1  UNL1        0.2014
      4 N         -21.7155   -7.6466  -17.3546 N.ar    1  UNL1       -0.2050
      5 C         -22.7246   -7.5018  -16.4623 C.ar    1  UNL1        0.1654
      6 C         -22.6396   -7.9477  -15.1793 C.ar    1  UNL1        0.0865
      7 C         -23.8350   -7.5473  -14.5931 C.ar    1  UNL1        0.1095
      8 N         -24.5874   -6.9125  -15.5276 N.ar    1  UNL1       -0.1677
      9 N         -23.9075   -6.9030  -16.6680 N.ar    1  UNL1       -0.2319
     10 C         -24.3564   -6.2420  -17.8860 C.3     1  UNL1        0.1554
     11 C         -24.2265   -7.6371  -13.1784 C.ar    1  UNL1        0.0577
     12 C         -24.2597   -6.6069  -12.2581 C.ar    1  UNL1        0.1231
     13 N         -24.7631   -7.0640  -11.0950 N.ar    1  UNL1       -0.1676
     14 N         -25.0527   -8.3469  -11.2519 N.ar    1  UNL1       -0.2488
     15 C         -25.6058   -9.1720  -10.1829 C.3     1  UNL1        0.1537
     16 C         -24.7628   -8.7275  -12.5167 C.ar    1  UNL1        0.0809
     17 C         -24.9380  -10.0878  -13.0709 C.ar    1  UNL1        0.0174
     18 C         -24.6154  -11.2118  -12.2940 C.ar    1  UNL1        0.0012
     19 C         -24.7653  -12.4990  -12.8171 C.ar    1  UNL1       -0.0042
     20 C         -25.2249  -12.6798  -14.1299 C.ar    1  UNL1       -0.0218
     21 C         -25.4223  -14.0619  -14.6781 C.3     1  UNL1        0.0310
     22 C         -25.5598  -11.5581  -14.9030 C.ar    1  UNL1       -0.0042
     23 C         -25.4091  -10.2704  -14.3800 C.ar    1  UNL1        0.0012
     24 C         -20.4795   -9.7516  -11.3395 C.3     1  UNL1        0.0791
     25 C         -21.2888  -10.9596  -11.8447 C.3     1  UNL1        0.0391
     26 C         -21.4812  -10.7220  -13.3310 C.3     1  UNL1        0.0937
     27 N         -21.4115   -9.2815  -13.4879 N.pl3   1  UNL1       -0.2917
     28 C         -20.8460   -8.6256  -12.3211 C.3     1  UNL1        0.1081
     29 C         -22.2033   -7.9846   -8.4483 C.3     1  UNL1        0.1313
     30 C         -21.2641   -8.5683   -7.3690 C.3     1  UNL1        0.0324
     31 C         -19.7996   -8.4701   -7.7966 C.3     1  UNL1        0.0199
     32 C         -19.5562   -9.2114   -9.1299 C.3     1  UNL1        0.0723
     33 N         -20.7971   -9.3956   -9.9310 N.3     1  UNL1       -0.2703
     34 C         -21.6175   -8.1649   -9.8650 C.3     1  UNL1        0.1020
     35 C         -21.8899   -5.8361   -9.2891 C.3     1  UNL1        0.1741
     36 O         -22.4008   -6.5986   -8.2174 O.3     1  UNL1       -0.3522
@<TRIPOS>BOND
     1    35    36    1
     2    36    29    1
     3    29    30    1
     4    30    31    1
     5    31    32    1
     6    32    33    1
     7    33    24    1
     8    24    25    1
     9    25    26    1
    10    26    27    1
    11    27     1    1
    12     1     2   ar
    13     2     3   ar
    14     3     4   ar
    15     4     5   ar
    16     5     6   ar
    17     6     7   ar
    18     7    11    1
    19    11    12   ar
    20    12    13   ar
    21    13    14   ar
    22    14    15    1
    23    14    16   ar
    24    16    17    1
    25    17    18   ar
    26    18    19   ar
    27    19    20   ar
    28    20    21    1
    29    20    22   ar
    30    22    23   ar
    31     7     8   ar
    32     8     9   ar
    33     9    10    1
    34    27    28    1
    35    33    34    1
    36    34    29    1
    37    28    24    1
    38     6     1   ar
    39    16    11   ar
    40    23    17   ar
    41     9     5   ar
@<TRIPOS>MOLECULE
*****
 36 41 0 0 0
SMALL
GASTEIGER

@<TRIPOS>ATOM
      1 C         -19.7043  -10.6017   -9.9116 C.ar    1  UNL1        0.1379
      2 N         -18.4788  -11.2068   -9.9344 N.ar    1  UNL1       -0.2089
      3 C         -17.5674  -11.0261   -8.9271 C.ar    1  UNL1        0.2014
      4 N         -17.8536  -10.2072   -7.8725 N.ar    1  UNL1       -0.2050
      5 C         -19.0676   -9.6067   -7.8420 C.ar    1  UNL1        0.1654
      6 C         -20.0084   -9.8035   -8.8056 C.ar    1  UNL1        0.0865
      7 C         -21.1092   -9.0750   -8.3694 C.ar    1  UNL1        0.1095
      8 N         -20.7909   -8.4618   -7.2010 N.ar    1  UNL1       -0.1677
      9 N         -19.5387   -8.7806   -6.8955 N.ar    1  UNL1       -0.2319
     10 C         -18.8635   -8.3740   -5.6704 C.3     1  UNL1        0.1554
     11 C         -22.4610   -9.0402   -8.9474 C.ar    1  UNL1        0.0577
     12 C         -23.4713   -9.9630   -8.7553 C.ar    1  UNL1        0.1231
     13 N         -24.5898   -9.5347   -9.3721 N.ar    1  UNL1       -0.1676
     14 N         -24.3204   -8.3705   -9.9433 N.ar    1  UNL1       -0.2488
     15 C         -25.3039   -7.6199  -10.7171 C.3     1  UNL1        0.1537
     16 C         -23.0392   -8.0230   -9.6861 C.ar    1  UNL1        0.0809
     17 C         -22.3647   -6.7958  -10.1628 C.ar    1  UNL1        0.0174
     18 C         -22.1783   -6.5835  -11.5381 C.ar    1  UNL1        0.0012
     19 C         -21.5292   -5.4328  -11.9938 C.ar    1  UNL1       -0.0042
     20 C         -21.0435   -4.4860  -11.0801 C.ar    1  UNL1       -0.0218
     21 C         -20.3811   -3.2328  -11.5705 C.3     1  UNL1        0.0310
     22 C         -21.2404   -4.6904   -9.7063 C.ar    1  UNL1       -0.0042
     23 C         -21.8891   -5.8419   -9.2503 C.ar    1  UNL1        0.0012
     24 C         -21.4937  -11.7271  -13.0010 C.3     1  UNL1        0.0791
     25 C         -21.7215  -10.2050  -13.0295 C.3     1  UNL1        0.0391
     26 C         -20.7782   -9.6373  -11.9853 C.3     1  UNL1        0.0937
     27 N         -20.5802  -10.7181  -11.0382 N.pl3   1  UNL1       -0.2917
     28 C         -21.0120  -12.0011  -11.5662 C.3     1  UNL1        0.1081
     29 C         -23.9157  -13.7552  -15.1160 C.3     1  UNL1        0.1313
     30 C         -25.0432  -13.7422  -14.0595 C.3     1  UNL1        0.0324
     31 C         -25.2421  -12.3424  -13.4781 C.3     1  UNL1        0.0199
     32 C         -23.9412  -11.8160  -12.8323 C.3     1  UNL1        0.0723
     33 N         -22.7194  -12.4981  -13.3398 N.3     1  UNL1       -0.2703
     34 C         -22.8346  -12.6991  -14.8020 C.3     1  UNL1        0.1020
     35 C         -23.8245  -12.3535  -16.9729 C.3     1  UNL1        0.1741
     36 O         -24.4541  -13.4786  -16.3994 O.3     1  UNL1       -0.3522
@<TRIPOS>BOND
     1    35    36    1
     2    36    29    1
     3    29    30    1
     4    30    31    1
     5    31    32    1
     6    32    33    1
     7    33    24    1
     8    24    25    1
     9    25    26    1
    10    26    27    1
    11    27     1    1
    12     1     2   ar
    13     2     3   ar
    14     3     4   ar
    15     4     5   ar
    16     5     6   ar
    17     6     7   ar
    18     7    11    1
    19    11    12   ar
    20    12    13   ar
    21    13    14   ar
    22    14    15    1
    23    14    16   ar
    24    16    17    1
    25    17    18   ar
    26    18    19   ar
    27    19    20   ar
    28    20    21    1
    29    20    22   ar
    30    22    23   ar
    31     7     8   ar
    32     8     9   ar
    33     9    10    1
    34    27    28    1
    35    33    34    1
    36    34    29    1
    37    28    24    1
    38     6     1   ar
    39    16    11   ar
    40    23    17   ar
    41     9     5   ar
@<TRIPOS>MOLECULE
*****
 36 41 0 0 0
SMALL
GASTEIGER

@<TRIPOS>ATOM
      1 C         -22.1603   -6.9893  -11.0663 C.ar    1  UNL1        0.1379
      2 N         -22.0591   -5.6395  -10.8755 N.ar    1  UNL1       -0.2089
      3 C         -21.5252   -5.1120   -9.7289 C.ar    1  UNL1        0.2014
      4 N         -21.0969   -5.9310   -8.7236 N.ar    1  UNL1       -0.2050
      5 C         -21.1914   -7.2699   -8.9074 C.ar    1  UNL1        0.1654
      6 C         -21.6757   -7.8213  -10.0535 C.ar    1  UNL1        0.0865
      7 C         -21.5398   -9.1918   -9.8634 C.ar    1  UNL1        0.1095
      8 N         -21.0146   -9.4109   -8.6311 N.ar    1  UNL1       -0.1677
      9 N         -20.8195   -8.2330   -8.0503 N.ar    1  UNL1       -0.2319
     10 C         -20.1968   -8.0540   -6.7456 C.3     1  UNL1        0.1554
     11 C         -21.7722  -10.2700  -10.8360 C.ar    1  UNL1        0.0577
     12 C         -22.8582  -10.4093  -11.6790 C.ar    1  UNL1        0.1231
     13 N         -22.6624  -11.4695  -12.4871 N.ar    1  UNL1       -0.1676
     14 N         -21.4875  -12.0011  -12.1852 N.ar    1  UNL1       -0.2488
     15 C         -20.9554  -13.1827  -12.8561 C.3     1  UNL1        0.1537
     16 C         -20.9027  -11.2830  -11.1998 C.ar    1  UNL1        0.0809
     17 C         -19.5885  -11.5707  -10.5848 C.ar    1  UNL1        0.0174
     18 C         -19.0518  -12.8667  -10.6441 C.ar    1  UNL1        0.0012
     19 C         -17.8173  -13.1480  -10.0525 C.ar    1  UNL1       -0.0042
     20 C         -17.1095  -12.1410   -9.3799 C.ar    1  UNL1       -0.0218
     21 C         -15.7670  -12.4334   -8.7784 C.3     1  UNL1        0.0310
     22 C         -17.6384  -10.8426   -9.3310 C.ar    1  UNL1       -0.0042
     23 C         -18.8738  -10.5613   -9.9221 C.ar    1  UNL1        0.0012
     24 C         -23.1865   -7.8826  -14.5536 C.3     1  UNL1        0.0791
     25 C         -24.5241   -7.9462  -13.7947 C.3     1  UNL1        0.0391
     26 C         -24.2528   -7.3047  -12.4465 C.3     1  UNL1        0.0937
     27 N         -22.8328   -7.4994  -12.2227 N.pl3   1  UNL1       -0.2917
     28 C         -22.1288   -7.8754  -13.4370 C.3     1  UNL1        0.1081
     29 C         -23.9715  -11.1455  -16.3397 C.3     1  UNL1        0.1313
     30 C         -22.6049  -11.2259  -17.0566 C.3     1  UNL1        0.0324
     31 C         -21.4552  -10.9305  -16.0932 C.3     1  UNL1        0.0199
     32 C         -21.6071   -9.5320  -15.4546 C.3     1  UNL1        0.0723
     33 N         -23.0044   -9.0205  -15.4936 N.3     1  UNL1       -0.2703
     34 C         -23.9446  -10.1217  -15.1848 C.3     1  UNL1        0.1020
     35 C         -25.3845  -12.3036  -14.8964 C.3     1  UNL1        0.1741
     36 O         -24.3115  -12.4154  -15.8059 O.3     1  UNL1       -0.3522
@<TRIPOS>BOND
     1    35    36    1
     2    36    29    1
     3    29    30    1
     4    30    31    1
     5    31    32    1
     6    32    33    1
     7    33    24    1
     8    24    25    1
     9    25    26    1
    10    26    27    1
    11    27     1    1
    12     1     2   ar
    13     2     3   ar
    14     3     4   ar
    15     4     5   ar
    16     5     6   ar
    17     6     7   ar
    18     7    11    1
    19    11    12   ar
    20    12    13   ar
    21    13    14   ar
    22    14    15    1
    23    14    16   ar
    24    16    17    1
    25    17    18   ar
    26    18    19   ar
    27    19    20   ar
    28    20    21    1
    29    20    22   ar
    30    22    23   ar
    31     7     8   ar
    32     8     9   ar
    33     9    10    1
    34    27    28    1
    35    33    34    1
    36    34    29    1
    37    28    24    1
    38     6     1   ar
    39    16    11   ar
    40    23    17   ar
    41     9     5   ar
@<TRIPOS>MOLECULE
*****
 36 41 0 0 0
SMALL
GASTEIGER

@<TRIPOS>ATOM
      1 C         -26.6714   -7.9699  -12.3072 C.ar    1  UNL1        0.1379
      2 N         -27.9063   -8.5438  -12.4256 N.ar    1  UNL1       -0.2089
      3 C         -28.8552   -8.0420  -13.2776 C.ar    1  UNL1        0.2014
      4 N         -28.5971   -6.9269  -14.0224 N.ar    1  UNL1       -0.2050
      5 C         -27.3741   -6.3549  -13.9123 C.ar    1  UNL1        0.1654
      6 C         -26.3981   -6.8579  -13.1081 C.ar    1  UNL1        0.0865
      7 C         -25.3024   -6.0327  -13.3348 C.ar    1  UNL1        0.1095
      8 N         -25.6571   -5.0725  -14.2262 N.ar    1  UNL1       -0.1677
      9 N         -26.9268   -5.2689  -14.5611 N.ar    1  UNL1       -0.2319
     10 C         -27.6442   -4.4840  -15.5566 C.3     1  UNL1        0.1554
     11 C         -23.9274   -6.1936  -12.8388 C.ar    1  UNL1        0.0577
     12 C         -23.3743   -5.6066  -11.7168 C.ar    1  UNL1        0.1231
     13 N         -22.1228   -6.0732  -11.5404 N.ar    1  UNL1       -0.1676
     14 N         -21.8693   -6.9381  -12.5108 N.ar    1  UNL1       -0.2488
     15 C         -20.5919   -7.6313  -12.6421 C.3     1  UNL1        0.1537
     16 C         -22.9543   -7.0576  -13.3089 C.ar    1  UNL1        0.0809
     17 C         -23.0549   -7.9204  -14.5063 C.ar    1  UNL1        0.0174
     18 C         -23.4779   -9.2532  -14.3804 C.ar    1  UNL1        0.0012
     19 C         -23.5613  -10.0774  -15.5060 C.ar    1  UNL1       -0.0042
     20 C         -23.2077   -9.5850  -16.7709 C.ar    1  UNL1       -0.0218
     21 C         -23.3339  -10.4578  -17.9841 C.3     1  UNL1        0.0310
     22 C         -22.7972   -8.2498  -16.9001 C.ar    1  UNL1       -0.0042
     23 C         -22.7131   -7.4255  -15.7740 C.ar    1  UNL1        0.0012
     24 C         -24.3887  -10.0619  -10.2034 C.3     1  UNL1        0.0791
     25 C         -24.7856   -8.9360   -9.2317 C.3     1  UNL1        0.0391
     26 C         -25.9416   -8.2158   -9.9008 C.3     1  UNL1        0.0937
     27 N         -25.7519   -8.4494  -11.3200 N.pl3   1  UNL1       -0.2917
     28 C         -24.8115   -9.5257  -11.5816 C.3     1  UNL1        0.1081
     29 C         -20.7109   -9.6450   -9.3359 C.3     1  UNL1        0.1313
     30 C         -20.2446  -10.8407  -10.1966 C.3     1  UNL1        0.0324
     31 C         -20.8966  -10.8164  -11.5791 C.3     1  UNL1        0.0199
     32 C         -22.4373  -10.8450  -11.4705 C.3     1  UNL1        0.0723
     33 N         -22.9383  -10.3855  -10.1464 N.3     1  UNL1       -0.2703
     34 C         -22.1494   -9.2165   -9.6959 C.3     1  UNL1        0.1020
     35 C         -20.2388   -7.4446   -8.7387 C.3     1  UNL1        0.1741
     36 O         -19.8480   -8.5375   -9.5412 O.3     1  UNL1       -0.3522
@<TRIPOS>BOND
     1    35    36    1
     2    36    29    1
     3    29    30    1
     4    30    31    1
     5    31    32    1
     6    32    33    1
     7    33    24    1
     8    24    25    1
     9    25    26    1
    10    26    27    1
    11    27     1    1
    12     1     2   ar
    13     2     3   ar
    14     3     4   ar
    15     4     5   ar
    16     5     6   ar
    17     6     7   ar
    18     7    11    1
    19    11    12   ar
    20    12    13   ar
    21    13    14   ar
    22    14    15    1
    23    14    16   ar
    24    16    17    1
    25    17    18   ar
    26    18    19   ar
    27    19    20   ar
    28    20    21    1
    29    20    22   ar
    30    22    23   ar
    31     7     8   ar
    32     8     9   ar
    33     9    10    1
    34    27    28    1
    35    33    34    1
    36    34    29    1
    37    28    24    1
    38     6     1   ar
    39    16    11   ar
    40    23    17   ar
    41     9     5   ar
@<TRIPOS>MOLECULE
*****
 36 41 0 0 0
SMALL
GASTEIGER

@<TRIPOS>ATOM
      1 C         -26.7348   -7.9588  -12.9233 C.ar    1  UNL1        0.1379
      2 N         -28.0470   -8.1961  -12.6227 N.ar    1  UNL1       -0.2089
      3 C         -29.0589   -7.4626  -13.1850 C.ar    1  UNL1        0.2014
      4 N         -28.7781   -6.4465  -14.0530 N.ar    1  UNL1       -0.2050
      5 C         -27.4799   -6.2079  -14.3578 C.ar    1  UNL1        0.1654
      6 C         -26.4582   -6.9492  -13.8490 C.ar    1  UNL1        0.0865
      7 C         -25.3189   -6.4312  -14.4545 C.ar    1  UNL1        0.1095
      8 N         -25.6844   -5.4068  -15.2665 N.ar    1  UNL1       -0.1677
      9 N         -27.0027   -5.2690  -15.1891 N.ar    1  UNL1       -0.2319
     10 C         -27.7768   -4.3204  -15.9783 C.3     1  UNL1        0.1554
     11 C         -23.9419   -6.9424  -14.3839 C.ar    1  UNL1        0.0577
     12 C         -23.1574   -7.0645  -13.2529 C.ar    1  UNL1        0.1231
     13 N         -21.9948   -7.6621  -13.5789 N.ar    1  UNL1       -0.1676
     14 N         -22.0211   -7.9250  -14.8767 N.ar    1  UNL1       -0.2488
     15 C         -20.9117   -8.5605  -15.5802 C.3     1  UNL1        0.1537
     16 C         -23.2022   -7.5235  -15.3986 C.ar    1  UNL1        0.0809
     17 C         -23.6026   -7.6375  -16.8181 C.ar    1  UNL1        0.0174
     18 C         -24.0822   -6.5122  -17.5071 C.ar    1  UNL1        0.0012
     19 C         -24.4754   -6.6169  -18.8441 C.ar    1  UNL1       -0.0042
     20 C         -24.4094   -7.8517  -19.5061 C.ar    1  UNL1       -0.0218
     21 C         -24.7950   -7.9558  -20.9518 C.3     1  UNL1        0.0310
     22 C         -23.9182   -8.9741  -18.8228 C.ar    1  UNL1       -0.0042
     23 C         -23.5255   -8.8696  -17.4851 C.ar    1  UNL1        0.0012
     24 C         -24.5082  -10.5792  -11.4440 C.3     1  UNL1        0.0791
     25 C         -24.2825   -9.3877  -10.4958 C.3     1  UNL1        0.0391
     26 C         -25.3705   -8.3876  -10.8404 C.3     1  UNL1        0.0937
     27 N         -25.7027   -8.6640  -12.2252 N.pl3   1  UNL1       -0.2917
     28 C         -25.1946   -9.9511  -12.6687 C.3     1  UNL1        0.1081
     29 C         -20.8326  -11.5346  -11.2694 C.3     1  UNL1        0.1313
     30 C         -20.8628  -12.3788  -12.5633 C.3     1  UNL1        0.0324
     31 C         -21.5945  -11.6449  -13.6872 C.3     1  UNL1        0.0199
     32 C         -23.0435  -11.2995  -13.2777 C.3     1  UNL1        0.0723
     33 N         -23.2440  -11.2752  -11.8030 N.3     1  UNL1       -0.2703
     34 C         -22.0791  -10.6314  -11.1546 C.3     1  UNL1        0.1020
     35 C         -19.9651   -9.4571  -10.6758 C.3     1  UNL1        0.1741
     36 O         -19.6782  -10.7098  -11.2584 O.3     1  UNL1       -0.3522
@<TRIPOS>BOND
     1    35    36    1
     2    36    29    1
     3    29    30    1
     4    30    31    1
     5    31    32    1
     6    32    33    1
     7    33    24    1
     8    24    25    1
     9    25    26    1
    10    26    27    1
    11    27     1    1
    12     1     2   ar
    13     2     3   ar
    14     3     4   ar
    15     4     5   ar
    16     5     6   ar
    17     6     7   ar
    18     7    11    1
    19    11    12   ar
    20    12    13   ar
    21    13    14   ar
    22    14    15    1
    23    14    16   ar
    24    16    17    1
    25    17    18   ar
    26    18    19   ar
    27    19    20   ar
    28    20    21    1
    29    20    22   ar
    30    22    23   ar
    31     7     8   ar
    32     8     9   ar
    33     9    10    1
    34    27    28    1
    35    33    34    1
    36    34    29    1
    37    28    24    1
    38     6     1   ar
    39    16    11   ar
    40    23    17   ar
    41     9     5   ar
