@<TRIPOS>MOLECULE
*****
 47 52 0 0 0
SMALL
GASTEIGER

@<TRIPOS>ATOM
      1 O          63.8447   89.8661   10.0128 O.2     1  UNL1       -0.2701
      2 C          62.8240   89.3467   10.5397 C.2     1  UNL1        0.2483
      3 N          62.4100   89.7981   11.8344 N.am    1  UNL1       -0.2945
      4 H          61.5079   90.3185   11.9166 H       1  UNL1        0.1501
      5 C          62.1054   88.2463    9.8428 C.ar    1  UNL1        0.0808
      6 C          62.8389   87.1775    9.2958 C.ar    1  UNL1        0.0080
      7 C          62.1882   86.0825    8.7224 C.ar    1  UNL1        0.0148
      8 C          60.7870   86.0268    8.6779 C.ar    1  UNL1        0.0502
      9 C          60.0506   87.1004    9.2050 C.ar    1  UNL1        0.0443
     10 C          60.6963   88.2038    9.7690 C.ar    1  UNL1        0.1457
     11 F          59.9284   89.2075   10.2606 F       1  UNL1       -0.2040
     12 N          60.1197   84.8575    8.1560 N.pl3   1  UNL1       -0.3040
     13 C          58.6523   84.7690    8.1143 C.3     1  UNL1        0.1122
     14 C          58.1870   83.6481    9.0518 C.3     1  UNL1        0.1122
     15 N          59.0635   82.4681    8.9453 N.pl3   1  UNL1       -0.3040
     16 C          60.0293   82.3957    7.8376 C.3     1  UNL1        0.1122
     17 C          60.9092   83.6531    7.8417 C.3     1  UNL1        0.1122
     18 C          59.0521   81.4768    9.9942 C.ar    1  UNL1        0.0488
     19 C          58.1825   81.6030   11.0919 C.ar    1  UNL1        0.0154
     20 C          58.1474   80.6212   12.0847 C.ar    1  UNL1        0.0135
     21 C          58.9764   79.4989   11.9976 C.ar    1  UNL1        0.0683
     22 CL         58.8986   78.2820   13.2644 Cl      1  UNL1       -0.0814
     23 C          59.8473   79.3596   10.9048 C.ar    1  UNL1        0.0694
     24 CL         60.9046   77.9625   10.7552 Cl      1  UNL1       -0.0813
     25 C          59.8799   80.3438    9.9098 C.ar    1  UNL1        0.0268
     26 C          63.1200   89.4167   13.0583 C.3     1  UNL1        0.1535
     27 C          62.7512   88.0013   13.4466 C.2     1  UNL1        0.2443
     28 O          63.6010   87.2517   14.0008 O.2     1  UNL1       -0.2730
     29 N          61.4406   87.5031   13.1360 N.am    1  UNL1       -0.2825
     30 H          60.6751   88.2041   13.0125 H       1  UNL1        0.1549
     31 C          61.1138   86.1118   12.9579 C.ar    1  UNL1        0.0535
     32 C          61.9057   85.2558   12.1702 C.ar    1  UNL1        0.0353
     33 C          61.5154   83.9272   11.9888 C.ar    1  UNL1        0.1002
     34 N          60.3710   83.4674   12.5586 N.ar    1  UNL1       -0.2422
     35 C          59.5772   84.2735   13.3105 C.ar    1  UNL1        0.1002
     36 C          59.9306   85.6090   13.5181 C.ar    1  UNL1        0.0353
     37 C          64.6377   89.6268   12.8838 C.3     1  UNL1        0.0569
     38 C          65.2472   90.2864   14.0883 C.ar    1  UNL1       -0.0017
     39 C          64.5763   90.7228   15.2272 C.ar    1  UNL1        0.0681
     40 N          65.4376   91.3185   16.0832 N.ar    1  UNL1       -0.3523
     41 C          66.6440   91.2680   15.4921 C.ar    1  UNL1        0.0563
     42 C          67.8487   91.7666   15.9859 C.ar    1  UNL1        0.0170
     43 C          68.9989   91.6144   15.1899 C.ar    1  UNL1        0.0015
     44 C          68.9197   90.9760   13.9321 C.ar    1  UNL1        0.0001
     45 C          67.6898   90.4834   13.4589 C.ar    1  UNL1        0.0012
     46 C          66.5677   90.6476   14.2715 C.ar    1  UNL1        0.0131
     47 H          65.2063   91.7394   17.0105 H       1  UNL1        0.1660
@<TRIPOS>BOND
     1     1     2    2
     2     2     3   am
     3     3    26    1
     4    26    37    1
     5    37    38    1
     6    38    39   ar
     7    39    40   ar
     8    40    41   ar
     9    41    42   ar
    10    42    43   ar
    11    43    44   ar
    12    44    45   ar
    13    45    46   ar
    14    26    27    1
    15    27    28    2
    16    27    29   am
    17    29    31    1
    18    31    32   ar
    19    32    33   ar
    20    33    34   ar
    21    34    35   ar
    22    35    36   ar
    23     2     5    1
    24     5     6   ar
    25     6     7   ar
    26     7     8   ar
    27     8    12    1
    28    12    13    1
    29    13    14    1
    30    14    15    1
    31    15    18    1
    32    18    19   ar
    33    19    20   ar
    34    20    21   ar
    35    21    22    1
    36    21    23   ar
    37    23    24    1
    38    23    25   ar
    39    15    16    1
    40    16    17    1
    41     8     9   ar
    42     9    10   ar
    43    10    11    1
    44    46    38   ar
    45    36    31   ar
    46    10     5   ar
    47    46    41   ar
    48    17    12    1
    49    25    18   ar
    50     3     4    1
    51    40    47    1
    52    29    30    1
@<TRIPOS>MOLECULE
*****
 47 52 0 0 0
SMALL
GASTEIGER

@<TRIPOS>ATOM
      1 O          63.3367   90.1808    9.4601 O.2     1  UNL1       -0.2701
      2 C          62.7074   89.3824   10.2054 C.2     1  UNL1        0.2483
      3 N          62.7727   89.5655   11.6245 N.am    1  UNL1       -0.2945
      4 H          61.9056   89.8530   12.1311 H       1  UNL1        0.1501
      5 C          61.9605   88.2415    9.6107 C.ar    1  UNL1        0.0808
      6 C          62.6675   87.1156    9.1503 C.ar    1  UNL1        0.0080
      7 C          61.9900   85.9893    8.6777 C.ar    1  UNL1        0.0148
      8 C          60.5876   85.9583    8.6501 C.ar    1  UNL1        0.0502
      9 C          59.8775   87.0872    9.0903 C.ar    1  UNL1        0.0443
     10 C          60.5501   88.2213    9.5530 C.ar    1  UNL1        0.1457
     11 F          59.8069   89.2783    9.9640 F       1  UNL1       -0.2040
     12 N          59.8925   84.7625    8.2352 N.pl3   1  UNL1       -0.3040
     13 C          58.4234   84.7025    8.2074 C.3     1  UNL1        0.1122
     14 C          57.9400   83.6781    9.2413 C.3     1  UNL1        0.1122
     15 N          58.7906   82.4747    9.2348 N.pl3   1  UNL1       -0.3040
     16 C          59.7480   82.2848    8.1338 C.3     1  UNL1        0.1122
     17 C          60.6544   83.5184    8.0242 C.3     1  UNL1        0.1122
     18 C          58.7644   81.5793   10.3665 C.ar    1  UNL1        0.0488
     19 C          59.0826   82.0420   11.6556 C.ar    1  UNL1        0.0154
     20 C          59.0180   81.1810   12.7535 C.ar    1  UNL1        0.0135
     21 C          58.6338   79.8477   12.5836 C.ar    1  UNL1        0.0683
     22 CL         58.5588   78.7967   13.9914 Cl      1  UNL1       -0.0814
     23 C          58.3106   79.3740   11.3018 C.ar    1  UNL1        0.0694
     24 CL         57.8200   77.7051   11.0445 Cl      1  UNL1       -0.0813
     25 C          58.3742   80.2387   10.2027 C.ar    1  UNL1        0.0268
     26 C          63.9611   89.2081   12.4040 C.3     1  UNL1        0.1535
     27 C          65.0426   90.2464   12.1975 C.2     1  UNL1        0.2443
     28 O          65.1570   91.2138   12.9989 O.2     1  UNL1       -0.2730
     29 N          65.9071   90.1473   11.0551 N.am    1  UNL1       -0.2825
     30 H          66.0309   89.2028   10.6247 H       1  UNL1        0.1549
     31 C          66.5926   91.2585   10.4474 C.ar    1  UNL1        0.0535
     32 C          66.0333   92.5493   10.4122 C.ar    1  UNL1        0.0353
     33 C          66.7176   93.5806    9.7651 C.ar    1  UNL1        0.1002
     34 N          67.9099   93.3359    9.1616 N.ar    1  UNL1       -0.2422
     35 C          68.4674   92.0972    9.1643 C.ar    1  UNL1        0.1002
     36 C          67.8170   91.0372    9.8007 C.ar    1  UNL1        0.0353
     37 C          63.5867   89.0017   13.8856 C.3     1  UNL1        0.0569
     38 C          63.4645   87.5439   14.2277 C.ar    1  UNL1       -0.0017
     39 C          64.2840   86.8194   15.0887 C.ar    1  UNL1        0.0681
     40 N          63.9110   85.5195   15.1129 N.ar    1  UNL1       -0.3523
     41 C          62.8685   85.4159   14.2704 C.ar    1  UNL1        0.0563
     42 C          62.1497   84.2643   13.9526 C.ar    1  UNL1        0.0170
     43 C          61.0943   84.3818   13.0296 C.ar    1  UNL1        0.0015
     44 C          60.7857   85.6329   12.4503 C.ar    1  UNL1        0.0001
     45 C          61.5292   86.7781   12.7892 C.ar    1  UNL1        0.0012
     46 C          62.5681   86.6303   13.7086 C.ar    1  UNL1        0.0131
     47 H          64.3521   84.7530   15.6682 H       1  UNL1        0.1660
@<TRIPOS>BOND
     1     1     2    2
     2     2     3   am
     3     3    26    1
     4    26    37    1
     5    37    38    1
     6    38    39   ar
     7    39    40   ar
     8    40    41   ar
     9    41    42   ar
    10    42    43   ar
    11    43    44   ar
    12    44    45   ar
    13    45    46   ar
    14    26    27    1
    15    27    28    2
    16    27    29   am
    17    29    31    1
    18    31    32   ar
    19    32    33   ar
    20    33    34   ar
    21    34    35   ar
    22    35    36   ar
    23     2     5    1
    24     5     6   ar
    25     6     7   ar
    26     7     8   ar
    27     8    12    1
    28    12    13    1
    29    13    14    1
    30    14    15    1
    31    15    18    1
    32    18    19   ar
    33    19    20   ar
    34    20    21   ar
    35    21    22    1
    36    21    23   ar
    37    23    24    1
    38    23    25   ar
    39    15    16    1
    40    16    17    1
    41     8     9   ar
    42     9    10   ar
    43    10    11    1
    44    46    38   ar
    45    36    31   ar
    46    10     5   ar
    47    46    41   ar
    48    17    12    1
    49    25    18   ar
    50     3     4    1
    51    40    47    1
    52    29    30    1
@<TRIPOS>MOLECULE
*****
 47 52 0 0 0
SMALL
GASTEIGER

@<TRIPOS>ATOM
      1 O          63.8307   89.7686    9.7369 O.2     1  UNL1       -0.2701
      2 C          62.9536   89.1645   10.4113 C.2     1  UNL1        0.2483
      3 N          62.8035   89.4899   11.7981 N.am    1  UNL1       -0.2945
      4 H          61.9249   89.9627   12.1076 H       1  UNL1        0.1501
      5 C          62.1349   88.0953    9.7793 C.ar    1  UNL1        0.0808
      6 C          62.7724   86.9651    9.2354 C.ar    1  UNL1        0.0080
      7 C          62.0272   85.9002    8.7238 C.ar    1  UNL1        0.0148
      8 C          60.6247   85.9368    8.7396 C.ar    1  UNL1        0.0502
      9 C          59.9837   87.0713    9.2636 C.ar    1  UNL1        0.0443
     10 C          60.7241   88.1446    9.7658 C.ar    1  UNL1        0.1457
     11 F          60.0457   89.2106   10.2578 F       1  UNL1       -0.2040
     12 N          59.8602   84.8002    8.2823 N.pl3   1  UNL1       -0.3040
     13 C          58.3904   84.7980    8.3297 C.3     1  UNL1        0.1122
     14 C          57.9185   83.7226    9.3160 C.3     1  UNL1        0.1122
     15 N          58.7170   82.4912    9.1817 N.pl3   1  UNL1       -0.3040
     16 C          59.6081   82.3431    8.0202 C.3     1  UNL1        0.1122
     17 C          60.5581   83.5461    7.9462 C.3     1  UNL1        0.1122
     18 C          58.7117   81.5203   10.2495 C.ar    1  UNL1        0.0488
     19 C          59.1459   81.8702   11.5402 C.ar    1  UNL1        0.0154
     20 C          59.1021   80.9381   12.5796 C.ar    1  UNL1        0.0135
     21 C          58.6237   79.6450   12.3488 C.ar    1  UNL1        0.0683
     22 CL         58.5788   78.5022   13.6844 Cl      1  UNL1       -0.0814
     23 C          58.1843   79.2840   11.0648 C.ar    1  UNL1        0.0694
     24 CL         57.5727   77.6692   10.7322 Cl      1  UNL1       -0.0813
     25 C          58.2272   80.2199   10.0247 C.ar    1  UNL1        0.0268
     26 C          63.7595   89.0400   12.8136 C.3     1  UNL1        0.1535
     27 C          64.7374   90.1515   13.1272 C.2     1  UNL1        0.2443
     28 O          64.8629   91.1293   12.3402 O.2     1  UNL1       -0.2730
     29 N          65.5556   90.0604   14.3039 N.am    1  UNL1       -0.2825
     30 H          65.2073   89.4637   15.0883 H       1  UNL1        0.1549
     31 C          66.8302   90.7105   14.4680 C.ar    1  UNL1        0.0535
     32 C          67.9065   90.4706   13.5939 C.ar    1  UNL1        0.0353
     33 C          69.1370   91.0882   13.8284 C.ar    1  UNL1        0.1002
     34 N          69.2976   91.9055   14.9017 N.ar    1  UNL1       -0.2422
     35 C          68.2826   92.1437   15.7724 C.ar    1  UNL1        0.1002
     36 C          67.0350   91.5468   15.5749 C.ar    1  UNL1        0.0353
     37 C          63.0122   88.5147   14.0560 C.3     1  UNL1        0.0569
     38 C          63.2743   87.0527   14.2824 C.ar    1  UNL1       -0.0017
     39 C          64.1897   86.4992   15.1732 C.ar    1  UNL1        0.0681
     40 N          64.1938   85.1507   15.0686 N.ar    1  UNL1       -0.3523
     41 C          63.2948   84.8488   14.1158 C.ar    1  UNL1        0.0563
     42 C          62.9549   83.5810   13.6456 C.ar    1  UNL1        0.0170
     43 C          61.9884   83.4950   12.6268 C.ar    1  UNL1        0.0015
     44 C          61.3915   84.6646   12.1055 C.ar    1  UNL1        0.0001
     45 C          61.7550   85.9309   12.5987 C.ar    1  UNL1        0.0012
     46 C          62.7145   85.9838   13.6102 C.ar    1  UNL1        0.0131
     47 H          64.7841   84.4835   15.6134 H       1  UNL1        0.1660
@<TRIPOS>BOND
     1     1     2    2
     2     2     3   am
     3     3    26    1
     4    26    37    1
     5    37    38    1
     6    38    39   ar
     7    39    40   ar
     8    40    41   ar
     9    41    42   ar
    10    42    43   ar
    11    43    44   ar
    12    44    45   ar
    13    45    46   ar
    14    26    27    1
    15    27    28    2
    16    27    29   am
    17    29    31    1
    18    31    32   ar
    19    32    33   ar
    20    33    34   ar
    21    34    35   ar
    22    35    36   ar
    23     2     5    1
    24     5     6   ar
    25     6     7   ar
    26     7     8   ar
    27     8    12    1
    28    12    13    1
    29    13    14    1
    30    14    15    1
    31    15    18    1
    32    18    19   ar
    33    19    20   ar
    34    20    21   ar
    35    21    22    1
    36    21    23   ar
    37    23    24    1
    38    23    25   ar
    39    15    16    1
    40    16    17    1
    41     8     9   ar
    42     9    10   ar
    43    10    11    1
    44    46    38   ar
    45    36    31   ar
    46    10     5   ar
    47    46    41   ar
    48    17    12    1
    49    25    18   ar
    50     3     4    1
    51    40    47    1
    52    29    30    1
@<TRIPOS>MOLECULE
*****
 47 52 0 0 0
SMALL
GASTEIGER

@<TRIPOS>ATOM
      1 O          58.8555   80.2248   11.7459 O.2     1  UNL1       -0.2701
      2 C          58.6005   81.4593   11.7462 C.2     1  UNL1        0.2483
      3 N          57.6002   81.9579   10.8504 N.am    1  UNL1       -0.2945
      4 H          56.7138   82.3366   11.2530 H       1  UNL1        0.1501
      5 C          59.3719   82.3781   12.6258 C.ar    1  UNL1        0.0808
      6 C          60.6703   82.0199   13.0325 C.ar    1  UNL1        0.0080
      7 C          61.4563   82.9030   13.7765 C.ar    1  UNL1        0.0148
      8 C          60.9653   84.1671   14.1363 C.ar    1  UNL1        0.0502
      9 C          59.6625   84.5217   13.7494 C.ar    1  UNL1        0.0443
     10 C          58.8674   83.6377   13.0154 C.ar    1  UNL1        0.1457
     11 F          57.6186   84.0398   12.6728 F       1  UNL1       -0.2040
     12 N          61.8104   85.1056   14.8365 N.pl3   1  UNL1       -0.3040
     13 C          61.2451   86.2674   15.5389 C.3     1  UNL1        0.1122
     14 C          61.7236   87.5535   14.8543 C.3     1  UNL1        0.1122
     15 N          63.1459   87.4586   14.4798 N.pl3   1  UNL1       -0.3040
     16 C          63.9518   86.3512   15.0174 C.3     1  UNL1        0.1122
     17 C          63.2737   85.0152   14.6848 C.3     1  UNL1        0.1122
     18 C          63.6844   88.3674   13.4964 C.ar    1  UNL1        0.0488
     19 C          63.1824   88.3839   12.1831 C.ar    1  UNL1        0.0154
     20 C          63.6799   89.2920   11.2456 C.ar    1  UNL1        0.0135
     21 C          64.6829   90.1977   11.6032 C.ar    1  UNL1        0.0683
     22 CL         65.2789   91.3292   10.3964 Cl      1  UNL1       -0.0814
     23 C          65.1906   90.1934   12.9125 C.ar    1  UNL1        0.0694
     24 CL         66.4503   91.3174   13.4046 Cl      1  UNL1       -0.0813
     25 C          64.6896   89.2838   13.8513 C.ar    1  UNL1        0.0268
     26 C          57.8427   82.1042    9.4126 C.3     1  UNL1        0.1535
     27 C          57.9199   83.5717    9.0510 C.2     1  UNL1        0.2443
     28 O          57.2436   84.0261    8.0881 O.2     1  UNL1       -0.2730
     29 N          58.8057   84.4331    9.7829 N.am    1  UNL1       -0.2825
     30 H          59.0716   84.1411   10.7507 H       1  UNL1        0.1549
     31 C          59.3719   85.6536    9.2691 C.ar    1  UNL1        0.0535
     32 C          59.2406   86.0243    7.9180 C.ar    1  UNL1        0.0353
     33 C          59.8529   87.1932    7.4604 C.ar    1  UNL1        0.1002
     34 N          60.5819   87.9609    8.3119 N.ar    1  UNL1       -0.2422
     35 C          60.7406   87.6208    9.6174 C.ar    1  UNL1        0.1002
     36 C          60.1446   86.4602   10.1168 C.ar    1  UNL1        0.0353
     37 C          59.0947   81.3056    8.9973 C.3     1  UNL1        0.0569
     38 C          59.9831   82.1037    8.0856 C.ar    1  UNL1       -0.0017
     39 C          59.8728   82.2134    6.7023 C.ar    1  UNL1        0.0681
     40 N          60.8781   82.9708    6.2073 N.ar    1  UNL1       -0.3523
     41 C          61.6252   83.3342    7.2642 C.ar    1  UNL1        0.0563
     42 C          62.7817   84.1128    7.2542 C.ar    1  UNL1        0.0170
     43 C          63.4163   84.3633    8.4847 C.ar    1  UNL1        0.0015
     44 C          62.8879   83.8345    9.6835 C.ar    1  UNL1        0.0001
     45 C          61.7197   83.0510    9.6630 C.ar    1  UNL1        0.0012
     46 C          61.1121   82.8218    8.4282 C.ar    1  UNL1        0.0131
     47 H          61.0422   83.2140    5.2050 H       1  UNL1        0.1660
@<TRIPOS>BOND
     1     1     2    2
     2     2     3   am
     3     3    26    1
     4    26    37    1
     5    37    38    1
     6    38    39   ar
     7    39    40   ar
     8    40    41   ar
     9    41    42   ar
    10    42    43   ar
    11    43    44   ar
    12    44    45   ar
    13    45    46   ar
    14    26    27    1
    15    27    28    2
    16    27    29   am
    17    29    31    1
    18    31    32   ar
    19    32    33   ar
    20    33    34   ar
    21    34    35   ar
    22    35    36   ar
    23     2     5    1
    24     5     6   ar
    25     6     7   ar
    26     7     8   ar
    27     8    12    1
    28    12    13    1
    29    13    14    1
    30    14    15    1
    31    15    18    1
    32    18    19   ar
    33    19    20   ar
    34    20    21   ar
    35    21    22    1
    36    21    23   ar
    37    23    24    1
    38    23    25   ar
    39    15    16    1
    40    16    17    1
    41     8     9   ar
    42     9    10   ar
    43    10    11    1
    44    46    38   ar
    45    36    31   ar
    46    10     5   ar
    47    46    41   ar
    48    17    12    1
    49    25    18   ar
    50     3     4    1
    51    40    47    1
    52    29    30    1
@<TRIPOS>MOLECULE
*****
 47 52 0 0 0
SMALL
GASTEIGER

@<TRIPOS>ATOM
      1 O          63.4400   89.1567   10.9085 O.2     1  UNL1       -0.2701
      2 C          62.5402   88.4508   11.4387 C.2     1  UNL1        0.2483
      3 N          62.2656   88.6165   12.8347 N.am    1  UNL1       -0.2945
      4 H          61.3446   89.0202   13.1176 H       1  UNL1        0.1501
      5 C          61.8236   87.4283   10.6299 C.ar    1  UNL1        0.0808
      6 C          62.3769   86.1421   10.4920 C.ar    1  UNL1        0.0080
      7 C          61.6821   85.1324    9.8221 C.ar    1  UNL1        0.0148
      8 C          60.4166   85.3811    9.2698 C.ar    1  UNL1        0.0502
      9 C          59.8686   86.6689    9.3878 C.ar    1  UNL1        0.0443
     10 C          60.5642   87.6860   10.0465 C.ar    1  UNL1        0.1457
     11 F          59.9806   88.9074   10.1265 F       1  UNL1       -0.2040
     12 N          59.6693   84.3133    8.6481 N.pl3   1  UNL1       -0.3040
     13 C          58.1988   84.3032    8.6564 C.3     1  UNL1        0.1122
     14 C          57.7064   83.1076    9.4810 C.3     1  UNL1        0.1122
     15 N          58.5137   81.9052    9.2080 N.pl3   1  UNL1       -0.3040
     16 C          59.4352   81.9111    8.0609 C.3     1  UNL1        0.1122
     17 C          60.3813   83.1146    8.1695 C.3     1  UNL1        0.1122
     18 C          58.4852   80.8031   10.1393 C.ar    1  UNL1        0.0488
     19 C          57.7931   79.6190    9.8295 C.ar    1  UNL1        0.0154
     20 C          57.8010   78.5406   10.7171 C.ar    1  UNL1        0.0135
     21 C          58.4997   78.6253   11.9250 C.ar    1  UNL1        0.0683
     22 CL         58.4906   77.2442   13.0132 Cl      1  UNL1       -0.0814
     23 C          59.1974   79.8013   12.2448 C.ar    1  UNL1        0.0694
     24 CL         60.0912   79.9486   13.7521 Cl      1  UNL1       -0.0813
     25 C          59.1899   80.8805   11.3533 C.ar    1  UNL1        0.0268
     26 C          63.1569   88.0928   13.8734 C.3     1  UNL1        0.1535
     27 C          63.9544   89.2244   14.4846 C.2     1  UNL1        0.2443
     28 O          63.3640   90.1972   15.0290 O.2     1  UNL1       -0.2730
     29 N          65.3877   89.2050   14.3978 N.am    1  UNL1       -0.2825
     30 H          65.8506   88.2761   14.2738 H       1  UNL1        0.1549
     31 C          66.2273   90.3742   14.4434 C.ar    1  UNL1        0.0535
     32 C          67.2551   90.5163   15.3940 C.ar    1  UNL1        0.0353
     33 C          68.0067   91.6930   15.4271 C.ar    1  UNL1        0.1002
     34 N          67.7384   92.6998   14.5553 N.ar    1  UNL1       -0.2422
     35 C          66.7423   92.5990   13.6372 C.ar    1  UNL1        0.1002
     36 C          65.9666   91.4391   13.5690 C.ar    1  UNL1        0.0353
     37 C          62.3524   87.2825   14.9097 C.3     1  UNL1        0.0569
     38 C          61.7616   86.0410   14.3040 C.ar    1  UNL1       -0.0017
     39 C          62.4371   84.8647   13.9913 C.ar    1  UNL1        0.0681
     40 N          61.5973   83.9787   13.4090 N.ar    1  UNL1       -0.3523
     41 C          60.4004   84.5874   13.3453 C.ar    1  UNL1        0.0563
     42 C          59.2183   84.0741   12.8131 C.ar    1  UNL1        0.0170
     43 C          58.0751   84.8938   12.8392 C.ar    1  UNL1        0.0015
     44 C          58.1387   86.1938   13.3887 C.ar    1  UNL1        0.0001
     45 C          59.3458   86.6858   13.9177 C.ar    1  UNL1        0.0012
     46 C          60.4615   85.8490   13.8794 C.ar    1  UNL1        0.0131
     47 H          61.8367   83.0202   13.0706 H       1  UNL1        0.1660
@<TRIPOS>BOND
     1     1     2    2
     2     2     3   am
     3     3    26    1
     4    26    37    1
     5    37    38    1
     6    38    39   ar
     7    39    40   ar
     8    40    41   ar
     9    41    42   ar
    10    42    43   ar
    11    43    44   ar
    12    44    45   ar
    13    45    46   ar
    14    26    27    1
    15    27    28    2
    16    27    29   am
    17    29    31    1
    18    31    32   ar
    19    32    33   ar
    20    33    34   ar
    21    34    35   ar
    22    35    36   ar
    23     2     5    1
    24     5     6   ar
    25     6     7   ar
    26     7     8   ar
    27     8    12    1
    28    12    13    1
    29    13    14    1
    30    14    15    1
    31    15    18    1
    32    18    19   ar
    33    19    20   ar
    34    20    21   ar
    35    21    22    1
    36    21    23   ar
    37    23    24    1
    38    23    25   ar
    39    15    16    1
    40    16    17    1
    41     8     9   ar
    42     9    10   ar
    43    10    11    1
    44    46    38   ar
    45    36    31   ar
    46    10     5   ar
    47    46    41   ar
    48    17    12    1
    49    25    18   ar
    50     3     4    1
    51    40    47    1
    52    29    30    1
@<TRIPOS>MOLECULE
*****
 47 52 0 0 0
SMALL
GASTEIGER

@<TRIPOS>ATOM
      1 O          62.2873   89.3180   13.9448 O.2     1  UNL1       -0.2701
      2 C          63.0852   88.5641   13.3251 C.2     1  UNL1        0.2483
      3 N          63.9389   89.1344   12.3263 N.am    1  UNL1       -0.2945
      4 H          64.9681   89.1578   12.5036 H       1  UNL1        0.1501
      5 C          63.0895   87.1015   13.5965 C.ar    1  UNL1        0.0808
      6 C          62.2573   86.2546   12.8417 C.ar    1  UNL1        0.0080
      7 C          62.3102   84.8684   13.0049 C.ar    1  UNL1        0.0148
      8 C          63.1944   84.2909   13.9285 C.ar    1  UNL1        0.0502
      9 C          64.0133   85.1331   14.6983 C.ar    1  UNL1        0.0443
     10 C          63.9561   86.5211   14.5478 C.ar    1  UNL1        0.1457
     11 F          64.7725   87.2790   15.3209 F       1  UNL1       -0.2040
     12 N          63.3013   82.8548   14.0363 N.pl3   1  UNL1       -0.3040
     13 C          64.1577   82.0811   13.1250 C.3     1  UNL1        0.1122
     14 C          63.2806   81.1630   12.2650 C.3     1  UNL1        0.1122
     15 N          62.2060   80.5509   13.0667 N.pl3   1  UNL1       -0.3040
     16 C          62.2652   80.6527   14.5334 C.3     1  UNL1        0.1122
     17 C          62.3925   82.1270   14.9402 C.3     1  UNL1        0.1122
     18 C          61.0573   79.9843   12.4016 C.ar    1  UNL1        0.0488
     19 C          60.2189   79.0732   13.0680 C.ar    1  UNL1        0.0154
     20 C          59.0864   78.5576   12.4334 C.ar    1  UNL1        0.0135
     21 C          58.7718   78.9433   11.1271 C.ar    1  UNL1        0.0683
     22 CL         57.3344   78.2767   10.3647 Cl      1  UNL1       -0.0814
     23 C          59.5995   79.8549   10.4518 C.ar    1  UNL1        0.0694
     24 CL         59.2386   80.3685    8.8091 Cl      1  UNL1       -0.0813
     25 C          60.7331   80.3720   11.0898 C.ar    1  UNL1        0.0268
     26 C          63.4397   89.5332   11.0075 C.3     1  UNL1        0.1535
     27 C          64.2515   90.6967   10.4808 C.2     1  UNL1        0.2443
     28 O          63.7975   91.4209    9.5531 O.2     1  UNL1       -0.2730
     29 N          65.5628   90.9405   11.0130 N.am    1  UNL1       -0.2825
     30 H          65.7685   90.5799   11.9723 H       1  UNL1        0.1549
     31 C          66.6189   91.6219   10.3098 C.ar    1  UNL1        0.0535
     32 C          66.4976   92.9633    9.9024 C.ar    1  UNL1        0.0353
     33 C          67.5315   93.5609    9.1782 C.ar    1  UNL1        0.1002
     34 N          68.6422   92.8473    8.8576 N.ar    1  UNL1       -0.2422
     35 C          68.7814   91.5461    9.2223 C.ar    1  UNL1        0.1002
     36 C          67.7716   90.9098    9.9482 C.ar    1  UNL1        0.0353
     37 C          63.4190   88.3211   10.0544 C.3     1  UNL1        0.0569
     38 C          62.0150   87.8985    9.7267 C.ar    1  UNL1       -0.0017
     39 C          60.8427   88.5622   10.0772 C.ar    1  UNL1        0.0681
     40 N          59.7621   87.8629    9.6614 N.ar    1  UNL1       -0.3523
     41 C          60.2415   86.7614    9.0582 C.ar    1  UNL1        0.0563
     42 C          59.5072   85.7281    8.4777 C.ar    1  UNL1        0.0170
     43 C          60.2180   84.6561    7.9075 C.ar    1  UNL1        0.0015
     44 C          61.6305   84.6403    7.9314 C.ar    1  UNL1        0.0001
     45 C          62.3452   85.6965    8.5252 C.ar    1  UNL1        0.0012
     46 C          61.6126   86.7461    9.0805 C.ar    1  UNL1        0.0131
     47 H          58.7598   88.1250    9.7927 H       1  UNL1        0.1660
@<TRIPOS>BOND
     1     1     2    2
     2     2     3   am
     3     3    26    1
     4    26    37    1
     5    37    38    1
     6    38    39   ar
     7    39    40   ar
     8    40    41   ar
     9    41    42   ar
    10    42    43   ar
    11    43    44   ar
    12    44    45   ar
    13    45    46   ar
    14    26    27    1
    15    27    28    2
    16    27    29   am
    17    29    31    1
    18    31    32   ar
    19    32    33   ar
    20    33    34   ar
    21    34    35   ar
    22    35    36   ar
    23     2     5    1
    24     5     6   ar
    25     6     7   ar
    26     7     8   ar
    27     8    12    1
    28    12    13    1
    29    13    14    1
    30    14    15    1
    31    15    18    1
    32    18    19   ar
    33    19    20   ar
    34    20    21   ar
    35    21    22    1
    36    21    23   ar
    37    23    24    1
    38    23    25   ar
    39    15    16    1
    40    16    17    1
    41     8     9   ar
    42     9    10   ar
    43    10    11    1
    44    46    38   ar
    45    36    31   ar
    46    10     5   ar
    47    46    41   ar
    48    17    12    1
    49    25    18   ar
    50     3     4    1
    51    40    47    1
    52    29    30    1
@<TRIPOS>MOLECULE
*****
 47 52 0 0 0
SMALL
GASTEIGER

@<TRIPOS>ATOM
      1 O          62.4094   88.9953   14.7089 O.2     1  UNL1       -0.2701
      2 C          63.1588   88.2621   14.0090 C.2     1  UNL1        0.2483
      3 N          64.2113   88.8724   13.2531 N.am    1  UNL1       -0.2945
      4 H          65.2004   88.6764   13.5263 H       1  UNL1        0.1501
      5 C          62.9078   86.7977   13.9343 C.ar    1  UNL1        0.0808
      6 C          61.8004   86.3211   13.2089 C.ar    1  UNL1        0.0080
      7 C          61.5932   84.9503   13.0382 C.ar    1  UNL1        0.0148
      8 C          62.4856   84.0186   13.5896 C.ar    1  UNL1        0.0502
      9 C          63.5816   84.4890   14.3311 C.ar    1  UNL1        0.0443
     10 C          63.7873   85.8587   14.5152 C.ar    1  UNL1        0.1457
     11 F          64.8642   86.2484   15.2412 F       1  UNL1       -0.2040
     12 N          62.3103   82.6065   13.3431 N.pl3   1  UNL1       -0.3040
     13 C          63.3121   81.8303   12.5971 C.3     1  UNL1        0.1122
     14 C          62.6923   81.3346   11.2849 C.3     1  UNL1        0.1122
     15 N          61.3101   80.8674   11.4932 N.pl3   1  UNL1       -0.3040
     16 C          60.8227   80.6749   12.8681 C.3     1  UNL1        0.1122
     17 C          61.0217   81.9692   13.6684 C.3     1  UNL1        0.1122
     18 C          60.4255   80.7363   10.3604 C.ar    1  UNL1        0.0488
     19 C          59.2675   79.9429   10.4418 C.ar    1  UNL1        0.0154
     20 C          58.3940   79.8504    9.3557 C.ar    1  UNL1        0.0135
     21 C          58.6604   80.5480    8.1740 C.ar    1  UNL1        0.0683
     22 CL         57.5336   80.4106    6.8311 Cl      1  UNL1       -0.0814
     23 C          59.8121   81.3462    8.0810 C.ar    1  UNL1        0.0694
     24 CL         60.1831   82.2422    6.6141 Cl      1  UNL1       -0.0813
     25 C          60.6855   81.4392    9.1710 C.ar    1  UNL1        0.0268
     26 C          63.9539   89.6236   12.0215 C.3     1  UNL1        0.1535
     27 C          65.0335   90.6646   11.8192 C.2     1  UNL1        0.2443
     28 O          65.0640   91.6982   12.5417 O.2     1  UNL1       -0.2730
     29 N          65.9946   90.4892   10.7666 N.am    1  UNL1       -0.2825
     30 H          66.1691   89.5150   10.4306 H       1  UNL1        0.1549
     31 C          66.7131   91.5605   10.1262 C.ar    1  UNL1        0.0535
     32 C          66.1775   92.8575   10.0202 C.ar    1  UNL1        0.0353
     33 C          66.8944   93.8471    9.3440 C.ar    1  UNL1        0.1002
     34 N          68.0958   93.5558    8.7804 N.ar    1  UNL1       -0.2422
     35 C          68.6312   92.3094    8.8516 C.ar    1  UNL1        0.1002
     36 C          67.9480   91.2901    9.5192 C.ar    1  UNL1        0.0353
     37 C          63.8037   88.6588   10.8280 C.3     1  UNL1        0.0569
     38 C          62.3764   88.5646   10.3685 C.ar    1  UNL1       -0.0017
     39 C          61.3388   89.4344   10.6917 C.ar    1  UNL1        0.0681
     40 N          60.1778   89.0085   10.1438 N.ar    1  UNL1       -0.3523
     41 C          60.4720   87.8749    9.4838 C.ar    1  UNL1        0.0563
     42 C          59.5946   87.0617    8.7677 C.ar    1  UNL1        0.0170
     43 C          60.1176   85.9060    8.1591 C.ar    1  UNL1        0.0015
     44 C          61.4897   85.5917    8.2799 C.ar    1  UNL1        0.0001
     45 C          62.3515   86.4305    9.0099 C.ar    1  UNL1        0.0012
     46 C          61.8040   87.5699    9.6001 C.ar    1  UNL1        0.0131
     47 H          59.2427   89.4659   10.2267 H       1  UNL1        0.1660
@<TRIPOS>BOND
     1     1     2    2
     2     2     3   am
     3     3    26    1
     4    26    37    1
     5    37    38    1
     6    38    39   ar
     7    39    40   ar
     8    40    41   ar
     9    41    42   ar
    10    42    43   ar
    11    43    44   ar
    12    44    45   ar
    13    45    46   ar
    14    26    27    1
    15    27    28    2
    16    27    29   am
    17    29    31    1
    18    31    32   ar
    19    32    33   ar
    20    33    34   ar
    21    34    35   ar
    22    35    36   ar
    23     2     5    1
    24     5     6   ar
    25     6     7   ar
    26     7     8   ar
    27     8    12    1
    28    12    13    1
    29    13    14    1
    30    14    15    1
    31    15    18    1
    32    18    19   ar
    33    19    20   ar
    34    20    21   ar
    35    21    22    1
    36    21    23   ar
    37    23    24    1
    38    23    25   ar
    39    15    16    1
    40    16    17    1
    41     8     9   ar
    42     9    10   ar
    43    10    11    1
    44    46    38   ar
    45    36    31   ar
    46    10     5   ar
    47    46    41   ar
    48    17    12    1
    49    25    18   ar
    50     3     4    1
    51    40    47    1
    52    29    30    1
