@<TRIPOS>MOLECULE
*****
 37 42 0 0 0
SMALL
GASTEIGER

@<TRIPOS>ATOM
      1 C          47.8309   15.4015  -23.7287 C.ar    1  UNL1        0.1095
      2 N          46.7605   16.1990  -23.9720 N.ar    1  UNL1       -0.1677
      3 N          47.1837   17.2708  -24.6313 N.ar    1  UNL1       -0.2319
      4 C          46.3346   18.3953  -25.0008 C.3     1  UNL1        0.1554
      5 C          48.5129   17.1765  -24.7858 C.ar    1  UNL1        0.1654
      6 N          49.3373   18.0931  -25.3474 N.ar    1  UNL1       -0.2050
      7 C          50.6726   17.8128  -25.3962 C.ar    1  UNL1        0.2014
      8 N          51.1516   16.6240  -24.9114 N.ar    1  UNL1       -0.2089
      9 C          50.3257   15.6933  -24.3453 C.ar    1  UNL1        0.1379
     10 C          48.9663   16.0071  -24.2569 C.ar    1  UNL1        0.0865
     11 N          50.8463   14.4157  -23.9603 N.pl3   1  UNL1       -0.2902
     12 C          51.4307   14.1687  -22.6495 C.3     1  UNL1        0.1090
     13 C          52.2647   12.8861  -22.7995 C.3     1  UNL1        0.0874
     14 N          53.6851   13.2172  -22.9511 N.3     1  UNL1       -0.3197
     15 C          51.7038   12.2299  -24.0722 C.3     1  UNL1        0.0934
     16 C          51.2435   13.4114  -24.9322 C.3     1  UNL1        0.1095
     17 H          53.9968   13.7226  -22.0899 H       1  UNL1        0.1189
     18 H          54.2314   12.3256  -22.9565 H       1  UNL1        0.1189
     19 N          52.6522   11.2438  -24.6740 N.3     1  UNL1       -0.2713
     20 C          53.2970   11.5622  -25.9690 C.3     1  UNL1        0.0721
     21 C          52.3922   11.2563  -27.1804 C.3     1  UNL1        0.0174
     22 C          51.8315    9.8336  -27.1136 C.3     1  UNL1        0.0029
     23 C          51.1706    9.5733  -25.7595 C.3     1  UNL1        0.0174
     24 C          52.1657    9.8496  -24.6287 C.3     1  UNL1        0.0721
     25 C          47.4584   12.9009  -23.3041 C.ar    1  UNL1        0.0809
     26 C          47.7551   14.1890  -22.8996 C.ar    1  UNL1        0.0577
     27 C          48.0190   14.0858  -21.5463 C.ar    1  UNL1        0.1231
     28 N          47.8963   12.7986  -21.1641 N.ar    1  UNL1       -0.1676
     29 N          47.5590   12.0894  -22.2306 N.ar    1  UNL1       -0.2488
     30 C          47.3543   10.6451  -22.2054 C.3     1  UNL1        0.1537
     31 C          46.4653   11.1946  -28.7402 C.3     1  UNL1        0.0310
     32 C          46.7173   11.6013  -27.3188 C.ar    1  UNL1       -0.0218
     33 C          45.6545   12.0227  -26.5048 C.ar    1  UNL1       -0.0042
     34 C          45.8944   12.4384  -25.1919 C.ar    1  UNL1        0.0012
     35 C          47.2005   12.4521  -24.6838 C.ar    1  UNL1        0.0174
     36 C          48.2648   12.0445  -25.5000 C.ar    1  UNL1        0.0012
     37 C          48.0260   11.6286  -26.8126 C.ar    1  UNL1       -0.0042
@<TRIPOS>BOND
     1    31    32    1
     2    32    33   ar
     3    33    34   ar
     4    34    35   ar
     5    35    25    1
     6    25    26   ar
     7    26     1    1
     8     1     2   ar
     9     2     3   ar
    10     3     4    1
    11     3     5   ar
    12     5     6   ar
    13     6     7   ar
    14     7     8   ar
    15     8     9   ar
    16     9    11    1
    17    11    12    1
    18    12    13    1
    19    13    14    1
    20    13    15    1
    21    15    19    1
    22    19    20    1
    23    20    21    1
    24    21    22    1
    25    22    23    1
    26    23    24    1
    27    15    16    1
    28     9    10   ar
    29    26    27   ar
    30    27    28   ar
    31    28    29   ar
    32    29    30    1
    33    35    36   ar
    34    36    37   ar
    35    37    32   ar
    36    29    25   ar
    37    10     1   ar
    38    10     5   ar
    39    16    11    1
    40    24    19    1
    41    14    17    1
    42    14    18    1
@<TRIPOS>MOLECULE
*****
 37 42 0 0 0
SMALL
GASTEIGER

@<TRIPOS>ATOM
      1 C          46.6341   11.3956  -27.8172 C.ar    1  UNL1        0.1095
      2 N          46.9359   10.1513  -28.2664 N.ar    1  UNL1       -0.1677
      3 N          46.8907   10.1675  -29.5932 N.ar    1  UNL1       -0.2319
      4 C          47.0805    8.9941  -30.4352 C.3     1  UNL1        0.1554
      5 C          46.5377   11.3992  -29.9907 C.ar    1  UNL1        0.1654
      6 N          46.3168   11.8159  -31.2606 N.ar    1  UNL1       -0.2050
      7 C          45.9478   13.1159  -31.4559 C.ar    1  UNL1        0.2014
      8 N          45.8323   13.9729  -30.3930 N.ar    1  UNL1       -0.2089
      9 C          46.0559   13.5603  -29.1090 C.ar    1  UNL1        0.1379
     10 C          46.3880   12.2166  -28.9127 C.ar    1  UNL1        0.0865
     11 N          46.0425   14.5130  -28.0395 N.pl3   1  UNL1       -0.2902
     12 C          44.8365   15.2222  -27.6351 C.3     1  UNL1        0.1090
     13 C          45.3188   16.4388  -26.8286 C.3     1  UNL1        0.0874
     14 N          45.2928   17.6450  -27.6620 N.3     1  UNL1       -0.3197
     15 C          46.7557   16.0669  -26.4264 C.3     1  UNL1        0.0934
     16 C          47.2476   15.1762  -27.5720 C.3     1  UNL1        0.1095
     17 H          44.3056   17.8119  -27.9651 H       1  UNL1        0.1189
     18 H          45.5354   18.4651  -27.0605 H       1  UNL1        0.1189
     19 N          47.5747   17.2615  -26.0573 N.3     1  UNL1       -0.2713
     20 C          48.7606   17.6031  -26.8764 C.3     1  UNL1        0.0721
     21 C          50.0075   16.7764  -26.5001 C.3     1  UNL1        0.0174
     22 C          50.2749   16.8232  -24.9936 C.3     1  UNL1        0.0029
     23 C          49.0177   16.4499  -24.2071 C.3     1  UNL1        0.0174
     24 C          47.8565   17.3631  -24.6106 C.3     1  UNL1        0.0721
     25 C          47.4407   11.9136  -25.4397 C.ar    1  UNL1        0.0809
     26 C          46.4589   11.7125  -26.3917 C.ar    1  UNL1        0.0577
     27 C          45.2666   11.9256  -25.7247 C.ar    1  UNL1        0.1231
     28 N          45.5242   12.2483  -24.4412 N.ar    1  UNL1       -0.1676
     29 N          46.8384   12.2403  -24.2770 N.ar    1  UNL1       -0.2488
     30 C          47.4940   12.5606  -23.0137 C.3     1  UNL1        0.1537
     31 C          53.1642   11.8504  -26.2682 C.3     1  UNL1        0.0310
     32 C          51.6752   11.8748  -26.0903 C.ar    1  UNL1       -0.0218
     33 C          51.0225   13.0715  -25.7561 C.ar    1  UNL1       -0.0042
     34 C          49.6396   13.0867  -25.5524 C.ar    1  UNL1        0.0012
     35 C          48.8969   11.9035  -25.6653 C.ar    1  UNL1        0.0174
     36 C          49.5493   10.7048  -25.9856 C.ar    1  UNL1        0.0012
     37 C          50.9318   10.6886  -26.1895 C.ar    1  UNL1       -0.0042
@<TRIPOS>BOND
     1    31    32    1
     2    32    33   ar
     3    33    34   ar
     4    34    35   ar
     5    35    25    1
     6    25    26   ar
     7    26     1    1
     8     1     2   ar
     9     2     3   ar
    10     3     4    1
    11     3     5   ar
    12     5     6   ar
    13     6     7   ar
    14     7     8   ar
    15     8     9   ar
    16     9    11    1
    17    11    12    1
    18    12    13    1
    19    13    14    1
    20    13    15    1
    21    15    19    1
    22    19    20    1
    23    20    21    1
    24    21    22    1
    25    22    23    1
    26    23    24    1
    27    15    16    1
    28     9    10   ar
    29    26    27   ar
    30    27    28   ar
    31    28    29   ar
    32    29    30    1
    33    35    36   ar
    34    36    37   ar
    35    37    32   ar
    36    29    25   ar
    37    10     1   ar
    38    10     5   ar
    39    16    11    1
    40    24    19    1
    41    14    17    1
    42    14    18    1
@<TRIPOS>MOLECULE
*****
 37 42 0 0 0
SMALL
GASTEIGER

@<TRIPOS>ATOM
      1 C          49.3999   10.8943  -26.0404 C.ar    1  UNL1        0.1095
      2 N          49.3673   10.0173  -27.0751 N.ar    1  UNL1       -0.1677
      3 N          50.5943    9.9165  -27.5718 N.ar    1  UNL1       -0.2319
      4 C          50.9424    9.1267  -28.7452 C.3     1  UNL1        0.1554
      5 C          51.3998   10.7387  -26.8827 C.ar    1  UNL1        0.1654
      6 N          52.7125   10.9800  -27.1145 N.ar    1  UNL1       -0.2050
      7 C          53.3559   11.8696  -26.3028 C.ar    1  UNL1        0.2014
      8 N          52.6901   12.4760  -25.2701 N.ar    1  UNL1       -0.2089
      9 C          51.3662   12.2358  -25.0286 C.ar    1  UNL1        0.1379
     10 C          50.7024   11.3593  -25.8921 C.ar    1  UNL1        0.0865
     11 N          50.7380   12.7954  -23.8693 N.pl3   1  UNL1       -0.2902
     12 C          50.5534   14.2289  -23.6915 C.3     1  UNL1        0.1090
     13 C          50.3005   14.4338  -22.1891 C.3     1  UNL1        0.0874
     14 N          51.5245   14.8924  -21.5247 N.3     1  UNL1       -0.3197
     15 C          49.8832   13.0392  -21.6933 C.3     1  UNL1        0.0934
     16 C          50.6365   12.0727  -22.6130 C.3     1  UNL1        0.1095
     17 H          51.8025   15.8082  -21.9472 H       1  UNL1        0.1189
     18 H          51.2952   15.1107  -20.5281 H       1  UNL1        0.1189
     19 N          50.0479   12.8833  -20.2159 N.3     1  UNL1       -0.2713
     20 C          50.4759   11.5734  -19.6729 C.3     1  UNL1        0.0721
     21 C          49.3100   10.5732  -19.5315 C.3     1  UNL1        0.0174
     22 C          48.1330   11.1911  -18.7725 C.3     1  UNL1        0.0029
     23 C          47.7335   12.5324  -19.3887 C.3     1  UNL1        0.0174
     24 C          48.9430   13.4709  -19.4308 C.3     1  UNL1        0.0721
     25 C          47.0318   11.8644  -25.8898 C.ar    1  UNL1        0.0809
     26 C          48.1909   11.3512  -25.3385 C.ar    1  UNL1        0.0577
     27 C          47.9503   11.3098  -23.9775 C.ar    1  UNL1        0.1231
     28 N          46.7058   11.7656  -23.7297 N.ar    1  UNL1       -0.1676
     29 N          46.1572   12.0972  -24.8887 N.ar    1  UNL1       -0.2488
     30 C          44.8000   12.6164  -25.0179 C.3     1  UNL1        0.1537
     31 C          45.8111   12.4707  -31.5104 C.3     1  UNL1        0.0310
     32 C          46.1646   12.3177  -30.0609 C.ar    1  UNL1       -0.0218
     33 C          46.4350   11.0472  -29.5293 C.ar    1  UNL1       -0.0042
     34 C          46.7268   10.8997  -28.1702 C.ar    1  UNL1        0.0012
     35 C          46.7363   12.0179  -27.3253 C.ar    1  UNL1        0.0174
     36 C          46.4529   13.2856  -27.8520 C.ar    1  UNL1        0.0012
     37 C          46.1612   13.4342  -29.2107 C.ar    1  UNL1       -0.0042
@<TRIPOS>BOND
     1    31    32    1
     2    32    33   ar
     3    33    34   ar
     4    34    35   ar
     5    35    25    1
     6    25    26   ar
     7    26     1    1
     8     1     2   ar
     9     2     3   ar
    10     3     4    1
    11     3     5   ar
    12     5     6   ar
    13     6     7   ar
    14     7     8   ar
    15     8     9   ar
    16     9    11    1
    17    11    12    1
    18    12    13    1
    19    13    14    1
    20    13    15    1
    21    15    19    1
    22    19    20    1
    23    20    21    1
    24    21    22    1
    25    22    23    1
    26    23    24    1
    27    15    16    1
    28     9    10   ar
    29    26    27   ar
    30    27    28   ar
    31    28    29   ar
    32    29    30    1
    33    35    36   ar
    34    36    37   ar
    35    37    32   ar
    36    29    25   ar
    37    10     1   ar
    38    10     5   ar
    39    16    11    1
    40    24    19    1
    41    14    17    1
    42    14    18    1
@<TRIPOS>MOLECULE
*****
 37 42 0 0 0
SMALL
GASTEIGER

@<TRIPOS>ATOM
      1 C          48.1033   12.2651  -25.8464 C.ar    1  UNL1        0.1095
      2 N          47.9195   12.5378  -27.1627 N.ar    1  UNL1       -0.1677
      3 N          46.6215   12.7239  -27.3701 N.ar    1  UNL1       -0.2319
      4 C          46.0249   12.9604  -28.6778 C.3     1  UNL1        0.1554
      5 C          45.9764   12.5463  -26.2074 C.ar    1  UNL1        0.1654
      6 N          44.6379   12.5826  -26.0018 N.ar    1  UNL1       -0.2050
      7 C          44.1752   12.3599  -24.7367 C.ar    1  UNL1        0.2014
      8 N          45.0498   12.1326  -23.7066 N.ar    1  UNL1       -0.2089
      9 C          46.4017   12.0967  -23.9058 C.ar    1  UNL1        0.1379
     10 C          46.8656   12.2795  -25.2119 C.ar    1  UNL1        0.0865
     11 N          47.2863   11.9762  -22.7858 N.pl3   1  UNL1       -0.2902
     12 C          47.1678   10.9078  -21.8032 C.3     1  UNL1        0.1090
     13 C          47.9483   11.3878  -20.5689 C.3     1  UNL1        0.0874
     14 N          47.0265   11.9085  -19.5545 N.3     1  UNL1       -0.3197
     15 C          48.8600   12.4972  -21.1192 C.3     1  UNL1        0.0934
     16 C          48.0624   13.0964  -22.2821 C.3     1  UNL1        0.1095
     17 H          46.3851   11.1338  -19.2669 H       1  UNL1        0.1189
     18 H          47.5781   12.1382  -18.6964 H       1  UNL1        0.1189
     19 N          49.3514   13.4182  -20.0495 N.3     1  UNL1       -0.2713
     20 C          50.2031   14.5702  -20.4258 C.3     1  UNL1        0.0721
     21 C          51.6850   14.1843  -20.6129 C.3     1  UNL1        0.0174
     22 C          52.2153   13.4037  -19.4077 C.3     1  UNL1        0.0029
     23 C          51.2998   12.2238  -19.0792 C.3     1  UNL1        0.0174
     24 C          49.8676   12.7180  -18.8554 C.3     1  UNL1        0.0721
     25 C          50.4857   12.6847  -24.9978 C.ar    1  UNL1        0.0809
     26 C          49.4040   11.8726  -25.2831 C.ar    1  UNL1        0.0577
     27 C          49.7892   10.6091  -24.8743 C.ar    1  UNL1        0.1231
     28 N          51.0347   10.6660  -24.3609 N.ar    1  UNL1       -0.1676
     29 N          51.4479   11.9220  -24.4376 N.ar    1  UNL1       -0.2488
     30 C          52.7506   12.3718  -23.9591 C.3     1  UNL1        0.1537
     31 C          50.6718   18.4349  -25.5893 C.3     1  UNL1        0.0310
     32 C          50.6615   16.9426  -25.4389 C.ar    1  UNL1       -0.0218
     33 C          50.5587   16.1185  -26.5703 C.ar    1  UNL1       -0.0042
     34 C          50.5102   14.7288  -26.4277 C.ar    1  UNL1        0.0012
     35 C          50.5485   14.1488  -25.1524 C.ar    1  UNL1        0.0174
     36 C          50.6373   14.9711  -24.0206 C.ar    1  UNL1        0.0012
     37 C          50.6860   16.3606  -24.1621 C.ar    1  UNL1       -0.0042
@<TRIPOS>BOND
     1    31    32    1
     2    32    33   ar
     3    33    34   ar
     4    34    35   ar
     5    35    25    1
     6    25    26   ar
     7    26     1    1
     8     1     2   ar
     9     2     3   ar
    10     3     4    1
    11     3     5   ar
    12     5     6   ar
    13     6     7   ar
    14     7     8   ar
    15     8     9   ar
    16     9    11    1
    17    11    12    1
    18    12    13    1
    19    13    14    1
    20    13    15    1
    21    15    19    1
    22    19    20    1
    23    20    21    1
    24    21    22    1
    25    22    23    1
    26    23    24    1
    27    15    16    1
    28     9    10   ar
    29    26    27   ar
    30    27    28   ar
    31    28    29   ar
    32    29    30    1
    33    35    36   ar
    34    36    37   ar
    35    37    32   ar
    36    29    25   ar
    37    10     1   ar
    38    10     5   ar
    39    16    11    1
    40    24    19    1
    41    14    17    1
    42    14    18    1
@<TRIPOS>MOLECULE
*****
 37 42 0 0 0
SMALL
GASTEIGER

@<TRIPOS>ATOM
      1 C          46.7806   11.8426  -27.2263 C.ar    1  UNL1        0.1095
      2 N          46.8634   10.6725  -27.9082 N.ar    1  UNL1       -0.1677
      3 N          46.6240   10.9220  -29.1900 N.ar    1  UNL1       -0.2319
      4 C          46.5471    9.8996  -30.2247 C.3     1  UNL1        0.1554
      5 C          46.3638   12.2310  -29.3261 C.ar    1  UNL1        0.1654
      6 N          46.0076   12.8796  -30.4607 N.ar    1  UNL1       -0.2050
      7 C          45.7698   14.2220  -30.3866 C.ar    1  UNL1        0.2014
      8 N          45.9152   14.8892  -29.1986 N.ar    1  UNL1       -0.2089
      9 C          46.2765   14.2420  -28.0500 C.ar    1  UNL1        0.1379
     10 C          46.4732   12.8599  -28.1238 C.ar    1  UNL1        0.0865
     11 N          46.5345   14.9924  -26.8575 N.pl3   1  UNL1       -0.2902
     12 C          45.4713   15.5816  -26.0554 C.3     1  UNL1        0.1090
     13 C          46.1493   16.6534  -25.1867 C.3     1  UNL1        0.0874
     14 N          45.9359   17.9850  -25.7622 N.3     1  UNL1       -0.3197
     15 C          47.6364   16.2628  -25.2151 C.3     1  UNL1        0.0934
     16 C          47.8248   15.6018  -26.5845 C.3     1  UNL1        0.1095
     17 H          44.9067   18.1709  -25.7839 H       1  UNL1        0.1189
     18 H          46.3270   18.6949  -25.1015 H       1  UNL1        0.1189
     19 N          48.5346   17.3999  -24.8488 N.3     1  UNL1       -0.2713
     20 C          48.5189   18.6267  -25.6788 C.3     1  UNL1        0.0721
     21 C          49.3863   18.5025  -26.9485 C.3     1  UNL1        0.0174
     22 C          50.7973   18.0115  -26.6153 C.3     1  UNL1        0.0029
     23 C          50.7437   16.7389  -25.7690 C.3     1  UNL1        0.0174
     24 C          49.9102   16.9829  -24.5077 C.3     1  UNL1        0.0721
     25 C          47.9892   11.9004  -24.9663 C.ar    1  UNL1        0.0809
     26 C          46.8574   11.9229  -25.7598 C.ar    1  UNL1        0.0577
     27 C          45.8065   12.0906  -24.8771 C.ar    1  UNL1        0.1231
     28 N          46.2876   12.1748  -23.6204 N.ar    1  UNL1       -0.1676
     29 N          47.6057   12.0604  -23.6823 N.ar    1  UNL1       -0.2488
     30 C          48.4751   12.1219  -22.5124 C.3     1  UNL1        0.1537
     31 C          53.4546   11.6972  -26.8467 C.3     1  UNL1        0.0310
     32 C          52.0493   11.7392  -26.3246 C.ar    1  UNL1       -0.0218
     33 C          51.2367   10.5966  -26.3885 C.ar    1  UNL1       -0.0042
     34 C          49.9146   10.6461  -25.9373 C.ar    1  UNL1        0.0012
     35 C          49.3861   11.8417  -25.4318 C.ar    1  UNL1        0.0174
     36 C          50.1921   12.9873  -25.3800 C.ar    1  UNL1        0.0012
     37 C          51.5141   12.9389  -25.8308 C.ar    1  UNL1       -0.0042
@<TRIPOS>BOND
     1    31    32    1
     2    32    33   ar
     3    33    34   ar
     4    34    35   ar
     5    35    25    1
     6    25    26   ar
     7    26     1    1
     8     1     2   ar
     9     2     3   ar
    10     3     4    1
    11     3     5   ar
    12     5     6   ar
    13     6     7   ar
    14     7     8   ar
    15     8     9   ar
    16     9    11    1
    17    11    12    1
    18    12    13    1
    19    13    14    1
    20    13    15    1
    21    15    19    1
    22    19    20    1
    23    20    21    1
    24    21    22    1
    25    22    23    1
    26    23    24    1
    27    15    16    1
    28     9    10   ar
    29    26    27   ar
    30    27    28   ar
    31    28    29   ar
    32    29    30    1
    33    35    36   ar
    34    36    37   ar
    35    37    32   ar
    36    29    25   ar
    37    10     1   ar
    38    10     5   ar
    39    16    11    1
    40    24    19    1
    41    14    17    1
    42    14    18    1
@<TRIPOS>MOLECULE
*****
 37 42 0 0 0
SMALL
GASTEIGER

@<TRIPOS>ATOM
      1 C          48.4481   12.1305  -22.3359 C.ar    1  UNL1        0.1095
      2 N          48.3945   10.8563  -21.8728 N.ar    1  UNL1       -0.1677
      3 N          49.3375   10.7108  -20.9498 N.ar    1  UNL1       -0.2319
      4 C          49.6416    9.4545  -20.2781 C.3     1  UNL1        0.1554
      5 C          50.0064   11.8685  -20.8405 C.ar    1  UNL1        0.1654
      6 N          51.0834   12.1192  -20.0580 N.ar    1  UNL1       -0.2050
      7 C          51.6332   13.3682  -20.1013 C.ar    1  UNL1        0.2014
      8 N          51.0876   14.3406  -20.8977 N.ar    1  UNL1       -0.2089
      9 C          49.9997   14.0959  -21.6884 C.ar    1  UNL1        0.1379
     10 C          49.4706   12.8019  -21.6738 C.ar    1  UNL1        0.0865
     11 N          49.3872   15.1686  -22.4136 N.pl3   1  UNL1       -0.2902
     12 C          48.1903   15.8517  -21.9428 C.3     1  UNL1        0.1090
     13 C          47.6064   16.5654  -23.1727 C.3     1  UNL1        0.0874
     14 N          46.4890   15.7939  -23.7262 N.3     1  UNL1       -0.3197
     15 C          48.7865   16.6266  -24.1568 C.3     1  UNL1        0.0934
     16 C          49.6094   15.3750  -23.8344 C.3     1  UNL1        0.1095
     17 H          45.7457   15.7231  -22.9936 H       1  UNL1        0.1189
     18 H          46.0573   16.3497  -24.4995 H       1  UNL1        0.1189
     19 N          48.3446   16.8385  -25.5688 N.3     1  UNL1       -0.2713
     20 C          49.3027   16.5842  -26.6695 C.3     1  UNL1        0.0721
     21 C          50.2621   17.7672  -26.9144 C.3     1  UNL1        0.0174
     22 C          49.4973   19.0844  -27.0659 C.3     1  UNL1        0.0029
     23 C          48.5363   19.2923  -25.8947 C.3     1  UNL1        0.0174
     24 C          47.5916   18.0931  -25.7725 C.3     1  UNL1        0.0721
     25 C          47.9907   12.6784  -24.7981 C.ar    1  UNL1        0.0809
     26 C          47.6346   12.6081  -23.4643 C.ar    1  UNL1        0.0577
     27 C          46.3208   13.0375  -23.4230 C.ar    1  UNL1        0.1231
     28 N          45.9099   13.3389  -24.6713 N.ar    1  UNL1       -0.1676
     29 N          46.9227   13.1185  -25.4959 N.ar    1  UNL1       -0.2488
     30 C          46.8444   13.3187  -26.9388 C.3     1  UNL1        0.1537
     31 C          52.9787   10.9692  -27.1746 C.3     1  UNL1        0.0310
     32 C          51.6964   11.3976  -26.5251 C.ar    1  UNL1       -0.0218
     33 C          50.5849   10.5407  -26.5214 C.ar    1  UNL1       -0.0042
     34 C          49.3781   10.9546  -25.9502 C.ar    1  UNL1        0.0012
     35 C          49.2649   12.2345  -25.3905 C.ar    1  UNL1        0.0174
     36 C          50.3701   13.0966  -25.4057 C.ar    1  UNL1        0.0012
     37 C          51.5771   12.6838  -25.9765 C.ar    1  UNL1       -0.0042
@<TRIPOS>BOND
     1    31    32    1
     2    32    33   ar
     3    33    34   ar
     4    34    35   ar
     5    35    25    1
     6    25    26   ar
     7    26     1    1
     8     1     2   ar
     9     2     3   ar
    10     3     4    1
    11     3     5   ar
    12     5     6   ar
    13     6     7   ar
    14     7     8   ar
    15     8     9   ar
    16     9    11    1
    17    11    12    1
    18    12    13    1
    19    13    14    1
    20    13    15    1
    21    15    19    1
    22    19    20    1
    23    20    21    1
    24    21    22    1
    25    22    23    1
    26    23    24    1
    27    15    16    1
    28     9    10   ar
    29    26    27   ar
    30    27    28   ar
    31    28    29   ar
    32    29    30    1
    33    35    36   ar
    34    36    37   ar
    35    37    32   ar
    36    29    25   ar
    37    10     1   ar
    38    10     5   ar
    39    16    11    1
    40    24    19    1
    41    14    17    1
    42    14    18    1
@<TRIPOS>MOLECULE
*****
 37 42 0 0 0
SMALL
GASTEIGER

@<TRIPOS>ATOM
      1 C          47.0574   12.2013  -26.9456 C.ar    1  UNL1        0.1095
      2 N          47.0085   11.4134  -28.0492 N.ar    1  UNL1       -0.1677
      3 N          46.5248   12.1356  -29.0528 N.ar    1  UNL1       -0.2319
      4 C          46.2504   11.6110  -30.3837 C.3     1  UNL1        0.1554
      5 C          46.2409   13.3636  -28.5935 C.ar    1  UNL1        0.1654
      6 N          45.6704   14.3816  -29.2816 N.ar    1  UNL1       -0.2050
      7 C          45.4492   15.5577  -28.6244 C.ar    1  UNL1        0.2014
      8 N          45.8211   15.7022  -27.3135 N.ar    1  UNL1       -0.2089
      9 C          46.3993   14.6803  -26.6133 C.ar    1  UNL1        0.1379
     10 C          46.5802   13.4645  -27.2792 C.ar    1  UNL1        0.0865
     11 N          46.8822   14.9081  -25.2842 N.pl3   1  UNL1       -0.2902
     12 C          46.1454   15.6954  -24.3054 C.3     1  UNL1        0.1090
     13 C          47.1701   16.0877  -23.2288 C.3     1  UNL1        0.0874
     14 N          47.6232   17.4668  -23.4356 N.3     1  UNL1       -0.3197
     15 C          48.3182   15.0848  -23.4316 C.3     1  UNL1        0.0934
     16 C          48.2853   14.7748  -24.9317 C.3     1  UNL1        0.1095
     17 H          46.7934   18.0990  -23.3568 H       1  UNL1        0.1189
     18 H          48.2443   17.7317  -22.6372 H       1  UNL1        0.1189
     19 N          49.6043   15.5580  -22.8349 N.3     1  UNL1       -0.2713
     20 C          50.8799   15.2069  -23.5011 C.3     1  UNL1        0.0721
     21 C          51.3711   13.7883  -23.1459 C.3     1  UNL1        0.0174
     22 C          51.3954   13.5687  -21.6312 C.3     1  UNL1        0.0029
     23 C          50.0488   13.9374  -21.0073 C.3     1  UNL1        0.0174
     24 C          49.6799   15.3787  -21.3704 C.3     1  UNL1        0.0721
     25 C          48.5949   11.0809  -25.2272 C.ar    1  UNL1        0.0809
     26 C          47.4170   11.6929  -25.6132 C.ar    1  UNL1        0.0577
     27 C          46.6618   11.7732  -24.4577 C.ar    1  UNL1        0.1231
     28 N          47.3583   11.2452  -23.4311 N.ar    1  UNL1       -0.1676
     29 N          48.5244   10.8307  -23.9029 N.ar    1  UNL1       -0.2488
     30 C          49.5560   10.2165  -23.0742 C.3     1  UNL1        0.1537
     31 C          53.2299   10.2180  -28.5770 C.3     1  UNL1        0.0310
     32 C          52.0434   10.4193  -27.6818 C.ar    1  UNL1       -0.0218
     33 C          50.9431    9.5515  -27.7602 C.ar    1  UNL1       -0.0042
     34 C          49.8212    9.7616  -26.9532 C.ar    1  UNL1        0.0012
     35 C          49.7808   10.8497  -26.0708 C.ar    1  UNL1        0.0174
     36 C          50.8733   11.7252  -26.0012 C.ar    1  UNL1        0.0012
     37 C          51.9954   11.5160  -26.8075 C.ar    1  UNL1       -0.0042
@<TRIPOS>BOND
     1    31    32    1
     2    32    33   ar
     3    33    34   ar
     4    34    35   ar
     5    35    25    1
     6    25    26   ar
     7    26     1    1
     8     1     2   ar
     9     2     3   ar
    10     3     4    1
    11     3     5   ar
    12     5     6   ar
    13     6     7   ar
    14     7     8   ar
    15     8     9   ar
    16     9    11    1
    17    11    12    1
    18    12    13    1
    19    13    14    1
    20    13    15    1
    21    15    19    1
    22    19    20    1
    23    20    21    1
    24    21    22    1
    25    22    23    1
    26    23    24    1
    27    15    16    1
    28     9    10   ar
    29    26    27   ar
    30    27    28   ar
    31    28    29   ar
    32    29    30    1
    33    35    36   ar
    34    36    37   ar
    35    37    32   ar
    36    29    25   ar
    37    10     1   ar
    38    10     5   ar
    39    16    11    1
    40    24    19    1
    41    14    17    1
    42    14    18    1
@<TRIPOS>MOLECULE
*****
 37 42 0 0 0
SMALL
GASTEIGER

@<TRIPOS>ATOM
      1 C          50.1789   11.6319  -25.1307 C.ar    1  UNL1        0.1095
      2 N          50.0595   10.9190  -26.2789 N.ar    1  UNL1       -0.1677
      3 N          51.2777   10.6976  -26.7578 N.ar    1  UNL1       -0.2319
      4 C          51.5535   10.0298  -28.0227 C.3     1  UNL1        0.1554
      5 C          52.1671   11.2841  -25.9426 C.ar    1  UNL1        0.1654
      6 N          53.5099   11.3484  -26.1094 N.ar    1  UNL1       -0.2050
      7 C          54.2442   12.0093  -25.1669 C.ar    1  UNL1        0.2014
      8 N          53.6330   12.5659  -24.0740 N.ar    1  UNL1       -0.2089
      9 C          52.2789   12.5031  -23.8977 C.ar    1  UNL1        0.1379
     10 C          51.5289   11.8652  -24.8901 C.ar    1  UNL1        0.0865
     11 N          51.6926   12.9910  -22.6854 N.pl3   1  UNL1       -0.2902
     12 C          52.2104   14.1518  -21.9746 C.3     1  UNL1        0.1090
     13 C          51.6402   14.0572  -20.5501 C.3     1  UNL1        0.0874
     14 N          52.6493   13.5188  -19.6325 N.3     1  UNL1       -0.3197
     15 C          50.4467   13.0984  -20.6950 C.3     1  UNL1        0.0934
     16 C          50.8541   12.1616  -21.8369 C.3     1  UNL1        0.1095
     17 H          53.4665   14.1719  -19.6254 H       1  UNL1        0.1189
     18 H          52.2630   13.5552  -18.6616 H       1  UNL1        0.1189
     19 N          50.0391   12.4901  -19.3920 N.3     1  UNL1       -0.2713
     20 C          49.9984   11.0147  -19.2670 C.3     1  UNL1        0.0721
     21 C          48.6986   10.4012  -19.8275 C.3     1  UNL1        0.0174
     22 C          47.4608   11.0947  -19.2532 C.3     1  UNL1        0.0029
     23 C          47.5595   12.6111  -19.4239 C.3     1  UNL1        0.0174
     24 C          48.8522   13.1274  -18.7855 C.3     1  UNL1        0.0721
     25 C          48.6502   13.4947  -24.2561 C.ar    1  UNL1        0.0809
     26 C          49.0231   12.1712  -24.3982 C.ar    1  UNL1        0.0577
     27 C          48.0408   11.4517  -23.7430 C.ar    1  UNL1        0.1231
     28 N          47.1218   12.3026  -23.2438 N.ar    1  UNL1       -0.1676
     29 N          47.4955   13.5336  -23.5586 N.ar    1  UNL1       -0.2488
     30 C          46.7322   14.7237  -23.1989 C.3     1  UNL1        0.1537
     31 C          51.2073   18.1162  -26.6123 C.3     1  UNL1        0.0310
     32 C          50.5760   16.8977  -26.0072 C.ar    1  UNL1       -0.0218
     33 C          49.8695   15.9925  -26.8142 C.ar    1  UNL1       -0.0042
     34 C          49.2484   14.8771  -26.2447 C.ar    1  UNL1        0.0012
     35 C          49.3137   14.6631  -24.8612 C.ar    1  UNL1        0.0174
     36 C          50.0073   15.5736  -24.0520 C.ar    1  UNL1        0.0012
     37 C          50.6287   16.6889  -24.6204 C.ar    1  UNL1       -0.0042
@<TRIPOS>BOND
     1    31    32    1
     2    32    33   ar
     3    33    34   ar
     4    34    35   ar
     5    35    25    1
     6    25    26   ar
     7    26     1    1
     8     1     2   ar
     9     2     3   ar
    10     3     4    1
    11     3     5   ar
    12     5     6   ar
    13     6     7   ar
    14     7     8   ar
    15     8     9   ar
    16     9    11    1
    17    11    12    1
    18    12    13    1
    19    13    14    1
    20    13    15    1
    21    15    19    1
    22    19    20    1
    23    20    21    1
    24    21    22    1
    25    22    23    1
    26    23    24    1
    27    15    16    1
    28     9    10   ar
    29    26    27   ar
    30    27    28   ar
    31    28    29   ar
    32    29    30    1
    33    35    36   ar
    34    36    37   ar
    35    37    32   ar
    36    29    25   ar
    37    10     1   ar
    38    10     5   ar
    39    16    11    1
    40    24    19    1
    41    14    17    1
    42    14    18    1
@<TRIPOS>MOLECULE
*****
 37 42 0 0 0
SMALL
GASTEIGER

@<TRIPOS>ATOM
      1 C          47.8759   16.3036  -25.4383 C.ar    1  UNL1        0.1095
      2 N          47.4255   17.1485  -26.3997 N.ar    1  UNL1       -0.1677
      3 N          48.4071   17.9880  -26.7065 N.ar    1  UNL1       -0.2319
      4 C          48.2772   19.0947  -27.6447 C.3     1  UNL1        0.1554
      5 C          49.4657   17.7039  -25.9331 C.ar    1  UNL1        0.1654
      6 N          50.6459   18.3673  -25.8877 N.ar    1  UNL1       -0.2050
      7 C          51.5986   17.9260  -25.0148 C.ar    1  UNL1        0.2014
      8 N          51.3668   16.8269  -24.2300 N.ar    1  UNL1       -0.2089
      9 C          50.1792   16.1511  -24.2719 C.ar    1  UNL1        0.1379
     10 C          49.1917   16.6364  -25.1342 C.ar    1  UNL1        0.0865
     11 N          50.0201   14.9388  -23.5258 N.pl3   1  UNL1       -0.2902
     12 C          49.7733   14.9269  -22.0906 C.3     1  UNL1        0.1090
     13 C          50.1315   13.5088  -21.6175 C.3     1  UNL1        0.0874
     14 N          51.4639   13.4977  -21.0054 N.3     1  UNL1       -0.3197
     15 C          50.1009   12.6724  -22.9076 C.3     1  UNL1        0.0934
     16 C          50.5138   13.6590  -24.0046 C.3     1  UNL1        0.1095
     17 H          51.4483   14.1353  -20.1763 H       1  UNL1        0.1189
     18 H          51.6369   12.5442  -20.6126 H       1  UNL1        0.1189
     19 N          50.8663   11.3948  -22.7803 N.3     1  UNL1       -0.2713
     20 C          51.5051   10.8147  -23.9843 C.3     1  UNL1        0.0721
     21 C          50.5215   10.0037  -24.8529 C.3     1  UNL1        0.0174
     22 C          49.7539    8.9766  -24.0168 C.3     1  UNL1        0.0029
     23 C          49.1101    9.6400  -22.7987 C.3     1  UNL1        0.0174
     24 C          50.1757   10.3677  -21.9738 C.3     1  UNL1        0.0721
     25 C          46.2242   14.3455  -25.3398 C.ar    1  UNL1        0.0809
     26 C          47.0112   15.3244  -24.7625 C.ar    1  UNL1        0.0577
     27 C          46.8516   15.1525  -23.3998 C.ar    1  UNL1        0.1231
     28 N          46.0193   14.1159  -23.1748 N.ar    1  UNL1       -0.1676
     29 N          45.6458   13.6331  -24.3502 N.ar    1  UNL1       -0.2488
     30 C          44.7540   12.4889  -24.5041 C.3     1  UNL1        0.1537
     31 C          45.8837   13.1416  -30.9863 C.3     1  UNL1        0.0310
     32 C          45.9361   13.4418  -29.5178 C.ar    1  UNL1       -0.0218
     33 C          45.5596   14.7069  -29.0407 C.ar    1  UNL1       -0.0042
     34 C          45.6449   14.9995  -27.6765 C.ar    1  UNL1        0.0012
     35 C          46.1218   14.0364  -26.7769 C.ar    1  UNL1        0.0174
     36 C          46.5112   12.7770  -27.2536 C.ar    1  UNL1        0.0012
     37 C          46.4262   12.4834  -28.6173 C.ar    1  UNL1       -0.0042
@<TRIPOS>BOND
     1    31    32    1
     2    32    33   ar
     3    33    34   ar
     4    34    35   ar
     5    35    25    1
     6    25    26   ar
     7    26     1    1
     8     1     2   ar
     9     2     3   ar
    10     3     4    1
    11     3     5   ar
    12     5     6   ar
    13     6     7   ar
    14     7     8   ar
    15     8     9   ar
    16     9    11    1
    17    11    12    1
    18    12    13    1
    19    13    14    1
    20    13    15    1
    21    15    19    1
    22    19    20    1
    23    20    21    1
    24    21    22    1
    25    22    23    1
    26    23    24    1
    27    15    16    1
    28     9    10   ar
    29    26    27   ar
    30    27    28   ar
    31    28    29   ar
    32    29    30    1
    33    35    36   ar
    34    36    37   ar
    35    37    32   ar
    36    29    25   ar
    37    10     1   ar
    38    10     5   ar
    39    16    11    1
    40    24    19    1
    41    14    17    1
    42    14    18    1
