@<TRIPOS>MOLECULE
*****
 54 60 0 0 0
SMALL
GASTEIGER

@<TRIPOS>ATOM
      1 C          58.4762   82.1556   12.2140 C.ar    1  UNL1        0.1388
      2 C          59.7917   82.1724   12.7167 C.ar    1  UNL1        0.0382
      3 C          60.3719   83.3729   13.1364 C.ar    1  UNL1        0.0176
      4 C          59.6538   84.5788   13.0649 C.ar    1  UNL1        0.0481
      5 C          58.3363   84.5542   12.5761 C.ar    1  UNL1        0.0176
      6 C          57.7575   83.3538   12.1582 C.ar    1  UNL1        0.0382
      7 N          60.2575   85.8189   13.4924 N.pl3   1  UNL1       -0.3041
      8 C          61.5923   85.7939   14.1154 C.3     1  UNL1        0.1122
      9 C          61.9192   87.1286   14.7860 C.3     1  UNL1        0.1122
     10 N          61.6500   88.2236   13.8476 N.pl3   1  UNL1       -0.3041
     11 C          60.3708   88.2658   13.1233 C.3     1  UNL1        0.1122
     12 C          59.4765   87.0670   13.4706 C.3     1  UNL1        0.1122
     13 C          62.6613   89.2070   13.5593 C.ar    1  UNL1        0.0480
     14 C          62.4584   90.1621   12.5499 C.ar    1  UNL1        0.0160
     15 C          63.4460   91.1087   12.2636 C.ar    1  UNL1        0.0190
     16 C          64.6489   91.1183   12.9851 C.ar    1  UNL1        0.0699
     17 C          64.8620   90.1529   13.9793 C.ar    1  UNL1        0.0190
     18 C          63.8747   89.2065   14.2671 C.ar    1  UNL1        0.0160
     19 N          65.6754   92.0753   12.6762 N.ar    1  UNL1       -0.2400
     20 C          66.3672   92.9031   13.5014 C.ar    1  UNL1        0.2057
     21 N          67.1877   93.7220   12.8045 N.ar    1  UNL1       -0.1445
     22 N          67.0265   93.4143   11.5257 N.ar    1  UNL1       -0.2024
     23 C          66.1134   92.4295   11.4536 C.ar    1  UNL1        0.3522
     24 O          65.6968   91.9242   10.3758 O.2     1  UNL1       -0.2444
     25 C          66.3200   92.8895   14.9776 C.2     1  UNL1        0.2094
     26 C          67.5625   92.6289   15.7685 C.3     1  UNL1        0.0807
     27 O          65.2247   93.0327   15.5830 O.2     1  UNL1       -0.2881
     28 C          67.6991   94.0952   10.4152 C.3     1  UNL1        0.1099
     29 C          68.4607   93.0635    9.5749 C.3     1  UNL1        0.0265
     30 C          66.6624   94.8755    9.5811 C.3     1  UNL1        0.0245
     31 C          66.9906   94.8889    8.0879 C.3     1  UNL1        0.0021
     32 O          57.8418   80.9887   11.7555 O.3     1  UNL1       -0.4727
     33 C          57.8314   80.5058   10.4104 C.3     1  UNL1        0.2374
     34 C          60.0862   82.5037    8.4834 C.3     1  UNL1        0.2296
     35 O          59.3786   81.9062    7.4084 O.3     1  UNL1       -0.3267
     36 C          58.3942   81.1078    7.9883 C.3     1  UNL1        0.1783
     37 C          58.2990   81.5715    9.4105 C.3     1  UNL1        0.1909
     38 O          59.5781   82.0244    9.7139 O.3     1  UNL1       -0.3255
     39 C          59.9465   84.0289    8.4217 C.ar    1  UNL1        0.0409
     40 C          59.2085   84.7019    9.4204 C.ar    1  UNL1        0.0022
     41 C          59.0435   86.0875    9.3816 C.ar    1  UNL1        0.0113
     42 C          59.5933   86.8298    8.3379 C.ar    1  UNL1        0.0585
     43 CL         59.3813   88.5706    8.2917 Cl      1  UNL1       -0.0822
     44 C          60.2989   86.1844    7.3221 C.ar    1  UNL1        0.0226
     45 C          60.4722   84.7947    7.3455 C.ar    1  UNL1        0.0591
     46 CL         61.3302   84.0745    5.9843 Cl      1  UNL1       -0.0824
     47 C          61.5785   82.1370    8.3603 C.3     1  UNL1        0.1679
     48 C          62.9726   83.0687   10.2705 C.ar    1  UNL1        0.1205
     49 N          63.3979   82.7041   11.4988 N.ar    1  UNL1       -0.2293
     50 C          62.9185   81.4549   11.6601 C.ar    1  UNL1        0.1188
     51 C          62.2103   81.0820   10.5402 C.ar    1  UNL1        0.0979
     52 N          62.2340   82.1057    9.6707 N.ar    1  UNL1       -0.3084
     53 C          62.7042   85.5111   10.6641 C.3     1  UNL1        0.0084
     54 C          63.2210   84.4401    9.7105 C.3     1  UNL1        0.0640
@<TRIPOS>BOND
     1    53    54    1
     2    54    48    1
     3    48    49   ar
     4    49    50   ar
     5    50    51   ar
     6    51    52   ar
     7    52    47    1
     8    34    47    1
     9    34    39    1
    10    39    40   ar
    11    40    41   ar
    12    41    42   ar
    13    42    43    1
    14    42    44   ar
    15    44    45   ar
    16    45    46    1
    17    34    35    1
    18    35    36    1
    19    36    37    1
    20    37    33    1
    21    33    32    1
    22    32     1    1
    23     1     2   ar
    24     2     3   ar
    25     3     4   ar
    26     4     7    1
    27     7     8    1
    28     8     9    1
    29     9    10    1
    30    10    13    1
    31    13    14   ar
    32    14    15   ar
    33    15    16   ar
    34    16    19    1
    35    19    20   ar
    36    20    25    1
    37    25    26    1
    38    25    27    2
    39    20    21   ar
    40    21    22   ar
    41    22    28    1
    42    28    29    1
    43    28    30    1
    44    30    31    1
    45    22    23   ar
    46    23    24    2
    47    16    17   ar
    48    17    18   ar
    49    10    11    1
    50    11    12    1
    51     4     5   ar
    52     5     6   ar
    53    37    38    1
    54    52    48   ar
    55    38    34    1
    56    45    39   ar
    57     6     1   ar
    58    12     7    1
    59    18    13   ar
    60    23    19   ar
@<TRIPOS>MOLECULE
*****
 54 60 0 0 0
SMALL
GASTEIGER

@<TRIPOS>ATOM
      1 C          57.7220   83.7314    8.7539 C.ar    1  UNL1        0.1388
      2 C          57.2472   84.4018    9.8979 C.ar    1  UNL1        0.0382
      3 C          57.8099   85.6211   10.2862 C.ar    1  UNL1        0.0176
      4 C          58.8545   86.1967    9.5429 C.ar    1  UNL1        0.0481
      5 C          59.3147   85.5308    8.3939 C.ar    1  UNL1        0.0176
      6 C          58.7507   84.3133    8.0066 C.ar    1  UNL1        0.0382
      7 N          59.4391   87.4529    9.9497 N.pl3   1  UNL1       -0.3041
      8 C          59.6041   87.7399   11.3853 C.3     1  UNL1        0.1122
      9 C          59.9267   89.2152   11.6250 C.3     1  UNL1        0.1122
     10 N          61.0238   89.6234   10.7406 N.pl3   1  UNL1       -0.3041
     11 C          60.9675   89.2938    9.3085 C.3     1  UNL1        0.1122
     12 C          59.6999   88.5040    8.9523 C.3     1  UNL1        0.1122
     13 C          62.1975   90.2625   11.2759 C.ar    1  UNL1        0.0480
     14 C          63.1117   90.9020   10.4229 C.ar    1  UNL1        0.0160
     15 C          64.2565   91.5119   10.9433 C.ar    1  UNL1        0.0190
     16 C          64.5024   91.4963   12.3242 C.ar    1  UNL1        0.0699
     17 C          63.6017   90.8406   13.1755 C.ar    1  UNL1        0.0190
     18 C          62.4561   90.2314   12.6564 C.ar    1  UNL1        0.0160
     19 N          65.6909   92.1016   12.8588 N.ar    1  UNL1       -0.2400
     20 C          66.4591   93.1009   12.3527 C.ar    1  UNL1        0.2057
     21 N          67.5515   93.3206   13.1196 N.ar    1  UNL1       -0.1445
     22 N          67.4811   92.4620   14.1265 N.ar    1  UNL1       -0.2024
     23 C          66.3658   91.7287   13.9622 C.ar    1  UNL1        0.3522
     24 O          66.0136   90.7898   14.7269 O.2     1  UNL1       -0.2444
     25 C          66.1393   93.9213   11.1668 C.2     1  UNL1        0.2094
     26 C          66.9762   93.8178    9.9314 C.3     1  UNL1        0.0807
     27 O          65.2011   94.7610   11.2051 O.2     1  UNL1       -0.2881
     28 C          68.4944   92.3282   15.1776 C.3     1  UNL1        0.1099
     29 C          69.8903   92.4287   14.5515 C.3     1  UNL1        0.0265
     30 C          68.2628   93.4016   16.2609 C.3     1  UNL1        0.0245
     31 C          69.2603   94.5570   16.1746 C.3     1  UNL1        0.0021
     32 O          57.2165   82.4940    8.3211 O.3     1  UNL1       -0.4727
     33 C          57.9631   81.2860    8.1607 C.3     1  UNL1        0.2374
     34 C          60.8547   80.6893   10.1785 C.3     1  UNL1        0.2296
     35 O          61.4083   80.3282    8.9229 O.3     1  UNL1       -0.3267
     36 C          60.4076   80.5531    7.9789 C.3     1  UNL1        0.1783
     37 C          59.4037   81.4254    8.6701 C.3     1  UNL1        0.1909
     38 O          59.5031   81.0727   10.0115 O.3     1  UNL1       -0.3255
     39 C          61.6518   81.8462   10.7915 C.ar    1  UNL1        0.0409
     40 C          63.0575   81.8725   10.6560 C.ar    1  UNL1        0.0022
     41 C          63.8151   82.8998   11.2210 C.ar    1  UNL1        0.0113
     42 C          63.1916   83.9118   11.9487 C.ar    1  UNL1        0.0585
     43 CL         64.1479   85.1994   12.6593 Cl      1  UNL1       -0.0822
     44 C          61.8077   83.8905   12.1242 C.ar    1  UNL1        0.0226
     45 C          61.0333   82.8660   11.5650 C.ar    1  UNL1        0.0591
     46 CL         59.3021   82.9033   11.8955 Cl      1  UNL1       -0.0824
     47 C          60.9362   79.4748   11.1246 C.3     1  UNL1        0.1679
     48 C          60.9220   80.0600   13.5980 C.ar    1  UNL1        0.1205
     49 N          60.0351   80.2991   14.5873 N.ar    1  UNL1       -0.2293
     50 C          58.8321   80.1242   14.0056 C.ar    1  UNL1        0.1188
     51 C          59.0018   79.7893   12.6813 C.ar    1  UNL1        0.0979
     52 N          60.3197   79.7626   12.4226 N.ar    1  UNL1       -0.3084
     53 C          62.7005   81.4403   14.6582 C.3     1  UNL1        0.0084
     54 C          62.4026   80.2218   13.7924 C.3     1  UNL1        0.0640
@<TRIPOS>BOND
     1    53    54    1
     2    54    48    1
     3    48    49   ar
     4    49    50   ar
     5    50    51   ar
     6    51    52   ar
     7    52    47    1
     8    34    47    1
     9    34    39    1
    10    39    40   ar
    11    40    41   ar
    12    41    42   ar
    13    42    43    1
    14    42    44   ar
    15    44    45   ar
    16    45    46    1
    17    34    35    1
    18    35    36    1
    19    36    37    1
    20    37    33    1
    21    33    32    1
    22    32     1    1
    23     1     2   ar
    24     2     3   ar
    25     3     4   ar
    26     4     7    1
    27     7     8    1
    28     8     9    1
    29     9    10    1
    30    10    13    1
    31    13    14   ar
    32    14    15   ar
    33    15    16   ar
    34    16    19    1
    35    19    20   ar
    36    20    25    1
    37    25    26    1
    38    25    27    2
    39    20    21   ar
    40    21    22   ar
    41    22    28    1
    42    28    29    1
    43    28    30    1
    44    30    31    1
    45    22    23   ar
    46    23    24    2
    47    16    17   ar
    48    17    18   ar
    49    10    11    1
    50    11    12    1
    51     4     5   ar
    52     5     6   ar
    53    37    38    1
    54    52    48   ar
    55    38    34    1
    56    45    39   ar
    57     6     1   ar
    58    12     7    1
    59    18    13   ar
    60    23    19   ar
@<TRIPOS>MOLECULE
*****
 54 60 0 0 0
SMALL
GASTEIGER

@<TRIPOS>ATOM
      1 C          57.9969   82.4438    8.5740 C.ar    1  UNL1        0.1388
      2 C          57.3635   83.5726    9.1290 C.ar    1  UNL1        0.0382
      3 C          58.0375   84.7949    9.2042 C.ar    1  UNL1        0.0176
      4 C          59.3537   84.9174    8.7273 C.ar    1  UNL1        0.0481
      5 C          59.9762   83.7915    8.1612 C.ar    1  UNL1        0.0176
      6 C          59.3010   82.5713    8.0858 C.ar    1  UNL1        0.0382
      7 N          60.0507   86.1791    8.8123 N.pl3   1  UNL1       -0.3041
      8 C          59.4537   87.2820    9.5854 C.3     1  UNL1        0.1122
      9 C          60.1554   88.6093    9.2958 C.3     1  UNL1        0.1122
     10 N          61.6064   88.4292    9.4166 N.pl3   1  UNL1       -0.3041
     11 C          62.2598   87.2978    8.7417 C.3     1  UNL1        0.1122
     12 C          61.2496   86.4178    7.9915 C.3     1  UNL1        0.1122
     13 C          62.3842   89.2951   10.2639 C.ar    1  UNL1        0.0480
     14 C          62.7823   90.5637    9.8117 C.ar    1  UNL1        0.0160
     15 C          63.5471   91.3984   10.6314 C.ar    1  UNL1        0.0190
     16 C          63.9211   90.9800   11.9169 C.ar    1  UNL1        0.0699
     17 C          63.5422   89.7058   12.3627 C.ar    1  UNL1        0.0190
     18 C          62.7765   88.8708   11.5444 C.ar    1  UNL1        0.0160
     19 N          64.7278   91.8267   12.7520 N.ar    1  UNL1       -0.2400
     20 C          65.6373   92.7744   12.4063 C.ar    1  UNL1        0.2057
     21 N          66.2538   93.2875   13.4955 N.ar    1  UNL1       -0.1445
     22 N          65.7332   92.6704   14.5462 N.ar    1  UNL1       -0.2024
     23 C          64.8221   91.7904   14.0944 C.ar    1  UNL1        0.3522
     24 O          64.1629   91.0081   14.8318 O.2     1  UNL1       -0.2444
     25 C          65.8939   93.2682   11.0381 C.2     1  UNL1        0.2094
     26 C          67.0158   92.6982   10.2297 C.3     1  UNL1        0.0807
     27 O          65.2138   94.2162   10.5632 O.2     1  UNL1       -0.2881
     28 C          66.1507   92.8946   15.9335 C.3     1  UNL1        0.1099
     29 C          65.0782   92.3440   16.8808 C.3     1  UNL1        0.0265
     30 C          67.5287   92.2437   16.1720 C.3     1  UNL1        0.0245
     31 C          68.6921   93.1839   15.8555 C.3     1  UNL1        0.0021
     32 O          57.3853   81.1818    8.4883 O.3     1  UNL1       -0.4727
     33 C          57.4376   80.1490    9.4747 C.3     1  UNL1        0.2374
     34 C          59.5950   81.1912   12.1296 C.3     1  UNL1        0.2296
     35 O          59.5806   79.8016   12.4165 O.3     1  UNL1       -0.3267
     36 C          58.8049   79.2084   11.4220 C.3     1  UNL1        0.1783
     37 C          58.7046   80.2364   10.3357 C.3     1  UNL1        0.1909
     38 O          58.7810   81.4541   11.0026 O.3     1  UNL1       -0.3255
     39 C          61.0294   81.6566   11.8553 C.ar    1  UNL1        0.0409
     40 C          61.2952   82.4694   10.7310 C.ar    1  UNL1        0.0022
     41 C          62.5933   82.8922   10.4402 C.ar    1  UNL1        0.0113
     42 C          63.6566   82.4994   11.2511 C.ar    1  UNL1        0.0585
     43 CL         65.2868   83.0309   10.8805 Cl      1  UNL1       -0.0822
     44 C          63.4244   81.6701   12.3488 C.ar    1  UNL1        0.0226
     45 C          62.1280   81.2359   12.6534 C.ar    1  UNL1        0.0591
     46 CL         61.9540   80.1453   14.0274 Cl      1  UNL1       -0.0824
     47 C          59.0507   81.9562   13.3524 C.3     1  UNL1        0.1679
     48 C          59.6203   84.4299   13.2217 C.ar    1  UNL1        0.1205
     49 N          59.0728   85.5837   12.7841 N.ar    1  UNL1       -0.2293
     50 C          57.8576   85.2232   12.3264 C.ar    1  UNL1        0.1188
     51 C          57.6859   83.8667   12.4855 C.ar    1  UNL1        0.0979
     52 N          58.8035   83.3660   13.0377 N.ar    1  UNL1       -0.3084
     53 C          61.8276   85.5758   13.3053 C.3     1  UNL1        0.0084
     54 C          61.0249   84.3585   13.7492 C.3     1  UNL1        0.0640
@<TRIPOS>BOND
     1    53    54    1
     2    54    48    1
     3    48    49   ar
     4    49    50   ar
     5    50    51   ar
     6    51    52   ar
     7    52    47    1
     8    34    47    1
     9    34    39    1
    10    39    40   ar
    11    40    41   ar
    12    41    42   ar
    13    42    43    1
    14    42    44   ar
    15    44    45   ar
    16    45    46    1
    17    34    35    1
    18    35    36    1
    19    36    37    1
    20    37    33    1
    21    33    32    1
    22    32     1    1
    23     1     2   ar
    24     2     3   ar
    25     3     4   ar
    26     4     7    1
    27     7     8    1
    28     8     9    1
    29     9    10    1
    30    10    13    1
    31    13    14   ar
    32    14    15   ar
    33    15    16   ar
    34    16    19    1
    35    19    20   ar
    36    20    25    1
    37    25    26    1
    38    25    27    2
    39    20    21   ar
    40    21    22   ar
    41    22    28    1
    42    28    29    1
    43    28    30    1
    44    30    31    1
    45    22    23   ar
    46    23    24    2
    47    16    17   ar
    48    17    18   ar
    49    10    11    1
    50    11    12    1
    51     4     5   ar
    52     5     6   ar
    53    37    38    1
    54    52    48   ar
    55    38    34    1
    56    45    39   ar
    57     6     1   ar
    58    12     7    1
    59    18    13   ar
    60    23    19   ar
@<TRIPOS>MOLECULE
*****
 54 60 0 0 0
SMALL
GASTEIGER

@<TRIPOS>ATOM
      1 C          58.1083   83.1047    8.5238 C.ar    1  UNL1        0.1388
      2 C          59.3385   83.5237    7.9811 C.ar    1  UNL1        0.0382
      3 C          59.8472   84.7909    8.2800 C.ar    1  UNL1        0.0176
      4 C          59.1422   85.6644    9.1255 C.ar    1  UNL1        0.0481
      5 C          57.9220   85.2359    9.6761 C.ar    1  UNL1        0.0176
      6 C          57.4157   83.9691    9.3774 C.ar    1  UNL1        0.0382
      7 N          59.6660   86.9758    9.4274 N.pl3   1  UNL1       -0.3041
      8 C          59.6301   87.4641   10.8169 C.3     1  UNL1        0.1122
      9 C          59.9179   88.9642   10.8879 C.3     1  UNL1        0.1122
     10 N          61.1277   89.2647   10.1144 N.pl3   1  UNL1       -0.3041
     11 C          61.2708   88.7368    8.7493 C.3     1  UNL1        0.1122
     12 C          60.0641   87.8815    8.3369 C.3     1  UNL1        0.1122
     13 C          62.2164   89.9941   10.7107 C.ar    1  UNL1        0.0480
     14 C          62.6951   89.6440   11.9837 C.ar    1  UNL1        0.0160
     15 C          63.7445   90.3604   12.5659 C.ar    1  UNL1        0.0190
     16 C          64.3345   91.4341   11.8827 C.ar    1  UNL1        0.0699
     17 C          63.8445   91.7983   10.6205 C.ar    1  UNL1        0.0190
     18 C          62.7960   91.0819   10.0369 C.ar    1  UNL1        0.0160
     19 N          65.3972   92.1873   12.4895 N.ar    1  UNL1       -0.2400
     20 C          66.5022   92.7393   11.9247 C.ar    1  UNL1        0.2057
     21 N          67.3102   93.2917   12.8583 N.ar    1  UNL1       -0.1445
     22 N          66.7180   93.0987   14.0279 N.ar    1  UNL1       -0.2024
     23 C          65.5731   92.4302   13.8018 C.ar    1  UNL1        0.3522
     24 O          64.7810   92.0511   14.7068 O.2     1  UNL1       -0.2444
     25 C          66.7851   92.8193   10.4772 C.2     1  UNL1        0.2094
     26 C          67.9172   92.0403    9.8868 C.3     1  UNL1        0.0807
     27 O          66.1189   93.5917    9.7380 O.2     1  UNL1       -0.2881
     28 C          67.2779   93.5045   15.3206 C.3     1  UNL1        0.1099
     29 C          66.5474   92.7612   16.4451 C.3     1  UNL1        0.0265
     30 C          68.7968   93.2360   15.3351 C.3     1  UNL1        0.0245
     31 C          69.1889   92.0946   16.2737 C.3     1  UNL1        0.0021
     32 O          57.5302   81.8544    8.2470 O.3     1  UNL1       -0.4727
     33 C          57.5772   80.6979    9.0854 C.3     1  UNL1        0.2374
     34 C          59.7040   81.4051   11.8720 C.3     1  UNL1        0.2296
     35 O          59.6777   79.9916   11.9934 O.3     1  UNL1       -0.3267
     36 C          58.9122   79.5251   10.9261 C.3     1  UNL1        0.1783
     37 C          58.8327   80.6742    9.9670 C.3     1  UNL1        0.1909
     38 O          58.9071   81.8046   10.7734 O.3     1  UNL1       -0.3255
     39 C          61.1447   81.8890   11.6729 C.ar    1  UNL1        0.0409
     40 C          61.4149   82.9018   10.7261 C.ar    1  UNL1        0.0022
     41 C          62.7183   83.3497   10.5045 C.ar    1  UNL1        0.0113
     42 C          63.7821   82.7858   11.2065 C.ar    1  UNL1        0.0585
     43 CL         65.4187   83.3498   10.9229 Cl      1  UNL1       -0.0822
     44 C          63.5448   81.7614   12.1234 C.ar    1  UNL1        0.0226
     45 C          62.2431   81.2996   12.3564 C.ar    1  UNL1        0.0591
     46 CL         62.0616   79.9637   13.4921 Cl      1  UNL1       -0.0824
     47 C          59.1475   82.0252   13.1692 C.3     1  UNL1        0.1679
     48 C          59.0497   84.5644   13.2236 C.ar    1  UNL1        0.1205
     49 N          59.8363   85.6114   13.5519 N.ar    1  UNL1       -0.2293
     50 C          61.0046   85.0484   13.9181 C.ar    1  UNL1        0.1188
     51 C          60.9121   83.6789   13.8137 C.ar    1  UNL1        0.0979
     52 N          59.6746   83.3749   13.3887 N.ar    1  UNL1       -0.3084
     53 C          57.0689   86.0666   13.3350 C.3     1  UNL1        0.0084
     54 C          57.6113   84.7359   12.8267 C.3     1  UNL1        0.0640
@<TRIPOS>BOND
     1    53    54    1
     2    54    48    1
     3    48    49   ar
     4    49    50   ar
     5    50    51   ar
     6    51    52   ar
     7    52    47    1
     8    34    47    1
     9    34    39    1
    10    39    40   ar
    11    40    41   ar
    12    41    42   ar
    13    42    43    1
    14    42    44   ar
    15    44    45   ar
    16    45    46    1
    17    34    35    1
    18    35    36    1
    19    36    37    1
    20    37    33    1
    21    33    32    1
    22    32     1    1
    23     1     2   ar
    24     2     3   ar
    25     3     4   ar
    26     4     7    1
    27     7     8    1
    28     8     9    1
    29     9    10    1
    30    10    13    1
    31    13    14   ar
    32    14    15   ar
    33    15    16   ar
    34    16    19    1
    35    19    20   ar
    36    20    25    1
    37    25    26    1
    38    25    27    2
    39    20    21   ar
    40    21    22   ar
    41    22    28    1
    42    28    29    1
    43    28    30    1
    44    30    31    1
    45    22    23   ar
    46    23    24    2
    47    16    17   ar
    48    17    18   ar
    49    10    11    1
    50    11    12    1
    51     4     5   ar
    52     5     6   ar
    53    37    38    1
    54    52    48   ar
    55    38    34    1
    56    45    39   ar
    57     6     1   ar
    58    12     7    1
    59    18    13   ar
    60    23    19   ar
