@<TRIPOS>MOLECULE
*****
 51 56 0 0 0
SMALL
GASTEIGER

@<TRIPOS>ATOM
      1 O          10.4679   77.1110   25.3769 O.2     1  UNL1       -0.2701
      2 C           9.2958   77.2641   25.8162 C.2     1  UNL1        0.2483
      3 N           9.0815   77.6598   27.1841 N.am    1  UNL1       -0.2945
      4 H           8.1067   77.8680   27.4966 H       1  UNL1        0.1501
      5 C           8.1536   77.0691   24.8982 C.ar    1  UNL1        0.0808
      6 C           8.3379   77.2520   23.5178 C.ar    1  UNL1        0.0080
      7 C           7.2711   77.0849   22.6315 C.ar    1  UNL1        0.0148
      8 C           6.0034   76.7207   23.1081 C.ar    1  UNL1        0.0502
      9 C           5.8191   76.5224   24.4844 C.ar    1  UNL1        0.0443
     10 C           6.8845   76.6894   25.3752 C.ar    1  UNL1        0.1457
     11 F           6.6822   76.4281   26.6915 F       1  UNL1       -0.2040
     12 N           4.9036   76.5592   22.1954 N.pl3   1  UNL1       -0.3036
     13 C           3.5260   76.7414   22.6586 C.3     1  UNL1        0.1123
     14 C           2.6596   75.5932   22.1471 C.3     1  UNL1        0.1126
     15 N           2.7638   75.4602   20.6848 N.pl3   1  UNL1       -0.2968
     16 C           3.8852   76.0974   19.9561 C.3     1  UNL1        0.1924
     17 C           5.1687   76.1327   20.8148 C.3     1  UNL1        0.1221
     18 C           1.6242   74.9199   19.9810 C.ar    1  UNL1        0.0492
     19 C           0.8280   75.7412   19.1652 C.ar    1  UNL1        0.0154
     20 C          -0.2758   75.2112   18.4927 C.ar    1  UNL1        0.0135
     21 C          -0.6029   73.8580   18.6293 C.ar    1  UNL1        0.0683
     22 CL         -1.9997   73.2280   17.7670 Cl      1  UNL1       -0.0814
     23 C           0.1823   73.0304   19.4490 C.ar    1  UNL1        0.0694
     24 CL         -0.1944   71.3245   19.6495 Cl      1  UNL1       -0.0813
     25 C           1.2880   73.5637   20.1219 C.ar    1  UNL1        0.0268
     26 C           4.1847   75.3874   18.6609 C.2     1  UNL1        0.3337
     27 O           4.8163   74.2961   18.6643 O.2     1  UNL1       -0.2484
     28 O           3.7808   75.9504   17.4544 O.3     1  UNL1       -0.4790
     29 H           3.9777   75.4891   16.5744 H       1  UNL1        0.2951
     30 C          10.1591   77.9333   28.1482 C.3     1  UNL1        0.1535
     31 C          10.0467   79.3217   28.7336 C.2     1  UNL1        0.2443
     32 O           9.9003   80.3202   27.9762 O.2     1  UNL1       -0.2730
     33 N          10.1968   79.5106   30.1498 N.am    1  UNL1       -0.2825
     34 H          10.6774   78.7581   30.6933 H       1  UNL1        0.1549
     35 C           9.8169   80.7101   30.8458 C.ar    1  UNL1        0.0535
     36 C          10.2015   81.9563   30.3324 C.ar    1  UNL1        0.0353
     37 C           9.8549   83.1234   31.0172 C.ar    1  UNL1        0.1002
     38 N           9.1622   83.0491   32.1843 N.ar    1  UNL1       -0.2422
     39 C           8.7919   81.8548   32.7174 C.ar    1  UNL1        0.1002
     40 C           9.1174   80.6635   32.0640 C.ar    1  UNL1        0.0353
     41 C          10.2125   76.8594   29.2550 C.3     1  UNL1        0.0569
     42 C           8.9405   76.0634   29.3090 C.ar    1  UNL1       -0.0017
     43 C           8.7360   74.7892   28.7868 C.ar    1  UNL1        0.0681
     44 N           7.4952   74.3471   29.0939 N.ar    1  UNL1       -0.3523
     45 C           6.9195   75.3260   29.8136 C.ar    1  UNL1        0.0563
     46 C           5.6430   75.3240   30.3741 C.ar    1  UNL1        0.0170
     47 C           5.2474   76.4543   31.1128 C.ar    1  UNL1        0.0015
     48 C           6.1278   77.5471   31.2758 C.ar    1  UNL1        0.0001
     49 C           7.4113   77.5204   30.7006 C.ar    1  UNL1        0.0012
     50 C           7.7728   76.3883   29.9700 C.ar    1  UNL1        0.0131
     51 H           7.0789   73.4249   28.8362 H       1  UNL1        0.1660
@<TRIPOS>BOND
     1     1     2    2
     2     2     3   am
     3     3    30    1
     4    30    41    1
     5    41    42    1
     6    42    43   ar
     7    43    44   ar
     8    44    45   ar
     9    45    46   ar
    10    46    47   ar
    11    47    48   ar
    12    48    49   ar
    13    49    50   ar
    14    30    31    1
    15    31    32    2
    16    31    33   am
    17    33    35    1
    18    35    36   ar
    19    36    37   ar
    20    37    38   ar
    21    38    39   ar
    22    39    40   ar
    23     2     5    1
    24     5     6   ar
    25     6     7   ar
    26     7     8   ar
    27     8    12    1
    28    12    13    1
    29    13    14    1
    30    14    15    1
    31    15    18    1
    32    18    19   ar
    33    19    20   ar
    34    20    21   ar
    35    21    22    1
    36    21    23   ar
    37    23    24    1
    38    23    25   ar
    39    15    16    1
    40    16    26    1
    41    26    27    2
    42    26    28    1
    43    16    17    1
    44     8     9   ar
    45     9    10   ar
    46    10    11    1
    47    50    42   ar
    48    40    35   ar
    49    10     5   ar
    50    50    45   ar
    51    17    12    1
    52    25    18   ar
    53     3     4    1
    54    44    51    1
    55    33    34    1
    56    28    29    1
@<TRIPOS>MOLECULE
*****
 51 56 0 0 0
SMALL
GASTEIGER

@<TRIPOS>ATOM
      1 O          10.6670   76.3229   24.1113 O.2     1  UNL1       -0.2701
      2 C           9.6161   76.7457   24.6654 C.2     1  UNL1        0.2483
      3 N           9.6802   77.3569   25.9677 N.am    1  UNL1       -0.2945
      4 H           8.8112   77.7801   26.3638 H       1  UNL1        0.1501
      5 C           8.3305   76.6388   23.9434 C.ar    1  UNL1        0.0808
      6 C           8.2438   77.0917   22.6166 C.ar    1  UNL1        0.0080
      7 C           7.0371   77.0120   21.9174 C.ar    1  UNL1        0.0148
      8 C           5.8981   76.4675   22.5281 C.ar    1  UNL1        0.0502
      9 C           5.9846   76.0003   23.8478 C.ar    1  UNL1        0.0443
     10 C           7.1908   76.0789   24.5517 C.ar    1  UNL1        0.1457
     11 F           7.2511   75.5600   25.8042 F       1  UNL1       -0.2040
     12 N           4.6537   76.3957   21.8103 N.pl3   1  UNL1       -0.3036
     13 C           3.3902   76.2423   22.5352 C.3     1  UNL1        0.1123
     14 C           2.5476   75.1580   21.8682 C.3     1  UNL1        0.1126
     15 N           2.3603   75.4378   20.4351 N.pl3   1  UNL1       -0.2968
     16 C           3.2434   76.4047   19.7426 C.3     1  UNL1        0.1924
     17 C           4.6673   76.3978   20.3413 C.3     1  UNL1        0.1221
     18 C           1.1555   74.9435   19.8107 C.ar    1  UNL1        0.0492
     19 C           0.1477   75.8288   19.3927 C.ar    1  UNL1        0.0154
     20 C          -1.0170   75.3413   18.7948 C.ar    1  UNL1        0.0135
     21 C          -1.1940   73.9660   18.6111 C.ar    1  UNL1        0.0683
     22 CL         -2.6736   73.3909   17.8548 Cl      1  UNL1       -0.0814
     23 C          -0.1957   73.0722   19.0330 C.ar    1  UNL1        0.0694
     24 CL         -0.3785   71.3360   18.8224 Cl      1  UNL1       -0.0813
     25 C           0.9706   73.5629   19.6318 C.ar    1  UNL1        0.0268
     26 C           3.3344   76.1191   18.2655 C.2     1  UNL1        0.3337
     27 O           2.7833   76.8892   17.4330 O.2     1  UNL1       -0.2484
     28 O           4.0118   74.9883   17.8204 O.3     1  UNL1       -0.4790
     29 H           4.0787   74.7787   16.8317 H       1  UNL1        0.2951
     30 C          10.9224   77.5583   26.7304 C.3     1  UNL1        0.1535
     31 C          11.9512   78.3243   25.9316 C.2     1  UNL1        0.2443
     32 O          11.9264   79.5855   25.9081 O.2     1  UNL1       -0.2730
     33 N          12.9029   77.6096   25.1270 N.am    1  UNL1       -0.2825
     34 H          12.6775   76.6225   24.8673 H       1  UNL1        0.1549
     35 C          14.0938   78.1984   24.5769 C.ar    1  UNL1        0.0535
     36 C          14.5187   79.4524   25.0367 C.ar    1  UNL1        0.0353
     37 C          15.6619   80.0391   24.4890 C.ar    1  UNL1        0.1002
     38 N          16.3491   79.4037   23.5034 N.ar    1  UNL1       -0.2422
     39 C          15.9511   78.1960   23.0230 C.ar    1  UNL1        0.1002
     40 C          14.8137   77.5737   23.5439 C.ar    1  UNL1        0.0353
     41 C          10.6474   78.2361   28.0891 C.3     1  UNL1        0.0569
     42 C           9.3819   77.7218   28.7125 C.ar    1  UNL1       -0.0017
     43 C           8.2165   78.4471   28.9440 C.ar    1  UNL1        0.0681
     44 N           7.2507   77.6417   29.4421 N.ar    1  UNL1       -0.3523
     45 C           7.7930   76.4137   29.5168 C.ar    1  UNL1        0.0563
     46 C           7.1752   75.2422   29.9523 C.ar    1  UNL1        0.0170
     47 C           7.9280   74.0537   29.9279 C.ar    1  UNL1        0.0015
     48 C           9.2648   74.0622   29.4707 C.ar    1  UNL1        0.0001
     49 C           9.8615   75.2593   29.0349 C.ar    1  UNL1        0.0012
     50 C           9.0915   76.4218   29.0756 C.ar    1  UNL1        0.0131
     51 H           6.2775   77.9187   29.6997 H       1  UNL1        0.1660
@<TRIPOS>BOND
     1     1     2    2
     2     2     3   am
     3     3    30    1
     4    30    41    1
     5    41    42    1
     6    42    43   ar
     7    43    44   ar
     8    44    45   ar
     9    45    46   ar
    10    46    47   ar
    11    47    48   ar
    12    48    49   ar
    13    49    50   ar
    14    30    31    1
    15    31    32    2
    16    31    33   am
    17    33    35    1
    18    35    36   ar
    19    36    37   ar
    20    37    38   ar
    21    38    39   ar
    22    39    40   ar
    23     2     5    1
    24     5     6   ar
    25     6     7   ar
    26     7     8   ar
    27     8    12    1
    28    12    13    1
    29    13    14    1
    30    14    15    1
    31    15    18    1
    32    18    19   ar
    33    19    20   ar
    34    20    21   ar
    35    21    22    1
    36    21    23   ar
    37    23    24    1
    38    23    25   ar
    39    15    16    1
    40    16    26    1
    41    26    27    2
    42    26    28    1
    43    16    17    1
    44     8     9   ar
    45     9    10   ar
    46    10    11    1
    47    50    42   ar
    48    40    35   ar
    49    10     5   ar
    50    50    45   ar
    51    17    12    1
    52    25    18   ar
    53     3     4    1
    54    44    51    1
    55    33    34    1
    56    28    29    1
@<TRIPOS>MOLECULE
*****
 51 56 0 0 0
SMALL
GASTEIGER

@<TRIPOS>ATOM
      1 O           9.8911   78.5428   25.2715 O.2     1  UNL1       -0.2701
      2 C           9.3565   77.4013   25.2327 C.2     1  UNL1        0.2483
      3 N           9.8924   76.3239   26.0238 N.am    1  UNL1       -0.2945
      4 H           9.3774   75.4153   26.0436 H       1  UNL1        0.1501
      5 C           8.1545   77.1992   24.3961 C.ar    1  UNL1        0.0808
      6 C           8.2327   77.4166   23.0107 C.ar    1  UNL1        0.0080
      7 C           7.1076   77.2434   22.2009 C.ar    1  UNL1        0.0148
      8 C           5.8868   76.8386   22.7601 C.ar    1  UNL1        0.0502
      9 C           5.8087   76.6060   24.1411 C.ar    1  UNL1        0.0443
     10 C           6.9326   76.7789   24.9555 C.ar    1  UNL1        0.1457
     11 F           6.8336   76.4842   26.2765 F       1  UNL1       -0.2040
     12 N           4.7267   76.6709   21.9265 N.pl3   1  UNL1       -0.3036
     13 C           3.3834   76.7465   22.5057 C.3     1  UNL1        0.1123
     14 C           2.5390   75.5843   21.9892 C.3     1  UNL1        0.1126
     15 N           2.5316   75.5463   20.5177 N.pl3   1  UNL1       -0.2968
     16 C           3.5561   76.2889   19.7475 C.3     1  UNL1        0.1924
     17 C           4.9012   76.3446   20.5049 C.3     1  UNL1        0.1221
     18 C           1.3682   74.9861   19.8705 C.ar    1  UNL1        0.0492
     19 C           0.4569   75.8116   19.1907 C.ar    1  UNL1        0.0154
     20 C          -0.6687   75.2616   18.5725 C.ar    1  UNL1        0.0135
     21 C          -0.9027   73.8837   18.6287 C.ar    1  UNL1        0.0683
     22 CL         -2.3305   73.2291   17.8384 Cl      1  UNL1       -0.0814
     23 C          -0.0016   73.0510   19.3129 C.ar    1  UNL1        0.0694
     24 CL         -0.2588   71.3141   19.4090 Cl      1  UNL1       -0.0813
     25 C           1.1256   73.6042   19.9316 C.ar    1  UNL1        0.0268
     26 C           3.7863   75.6769   18.3896 C.2     1  UNL1        0.3337
     27 O           4.2567   74.5114   18.2880 O.2     1  UNL1       -0.2484
     28 O           3.4984   76.4101   17.2429 O.3     1  UNL1       -0.4790
     29 H           3.6514   76.0160   16.3224 H       1  UNL1        0.2951
     30 C          11.0461   76.4517   26.9281 C.3     1  UNL1        0.1535
     31 C          12.0547   77.4505   26.4102 C.2     1  UNL1        0.2443
     32 O          12.4020   78.4308   27.1245 O.2     1  UNL1       -0.2730
     33 N          12.5499   77.3296   25.0670 N.am    1  UNL1       -0.2825
     34 H          11.9897   76.7629   24.3905 H       1  UNL1        0.1549
     35 C          13.7110   78.0190   24.5729 C.ar    1  UNL1        0.0535
     36 C          14.5889   77.3558   23.7046 C.ar    1  UNL1        0.0353
     37 C          15.7305   78.0133   23.2401 C.ar    1  UNL1        0.1002
     38 N          15.9966   79.2842   23.6419 N.ar    1  UNL1       -0.2422
     39 C          15.1747   79.9466   24.4983 C.ar    1  UNL1        0.1002
     40 C          14.0216   79.3261   24.9857 C.ar    1  UNL1        0.0353
     41 C          10.6017   76.7956   28.3653 C.3     1  UNL1        0.0569
     42 C           9.6513   75.7669   28.9067 C.ar    1  UNL1       -0.0017
     43 C           9.9184   74.4160   29.1103 C.ar    1  UNL1        0.0681
     44 N           8.8586   73.8078   29.6903 N.ar    1  UNL1       -0.3523
     45 C           7.9302   74.7647   29.8638 C.ar    1  UNL1        0.0563
     46 C           6.6705   74.6246   30.4445 C.ar    1  UNL1        0.0170
     47 C           5.8617   75.7715   30.5450 C.ar    1  UNL1        0.0015
     48 C           6.3261   77.0190   30.0715 C.ar    1  UNL1        0.0001
     49 C           7.6032   77.1308   29.4921 C.ar    1  UNL1        0.0012
     50 C           8.3796   75.9754   29.4020 C.ar    1  UNL1        0.0131
     51 H           8.7867   72.8020   29.9615 H       1  UNL1        0.1660
@<TRIPOS>BOND
     1     1     2    2
     2     2     3   am
     3     3    30    1
     4    30    41    1
     5    41    42    1
     6    42    43   ar
     7    43    44   ar
     8    44    45   ar
     9    45    46   ar
    10    46    47   ar
    11    47    48   ar
    12    48    49   ar
    13    49    50   ar
    14    30    31    1
    15    31    32    2
    16    31    33   am
    17    33    35    1
    18    35    36   ar
    19    36    37   ar
    20    37    38   ar
    21    38    39   ar
    22    39    40   ar
    23     2     5    1
    24     5     6   ar
    25     6     7   ar
    26     7     8   ar
    27     8    12    1
    28    12    13    1
    29    13    14    1
    30    14    15    1
    31    15    18    1
    32    18    19   ar
    33    19    20   ar
    34    20    21   ar
    35    21    22    1
    36    21    23   ar
    37    23    24    1
    38    23    25   ar
    39    15    16    1
    40    16    26    1
    41    26    27    2
    42    26    28    1
    43    16    17    1
    44     8     9   ar
    45     9    10   ar
    46    10    11    1
    47    50    42   ar
    48    40    35   ar
    49    10     5   ar
    50    50    45   ar
    51    17    12    1
    52    25    18   ar
    53     3     4    1
    54    44    51    1
    55    33    34    1
    56    28    29    1
@<TRIPOS>MOLECULE
*****
 51 56 0 0 0
SMALL
GASTEIGER

@<TRIPOS>ATOM
      1 O          10.0219   78.5926   25.3092 O.2     1  UNL1       -0.2701
      2 C           9.5311   77.4405   25.1605 C.2     1  UNL1        0.2483
      3 N          10.1064   76.3143   25.8492 N.am    1  UNL1       -0.2945
      4 H           9.6262   75.3891   25.7809 H       1  UNL1        0.1501
      5 C           8.3386   77.2731   24.3028 C.ar    1  UNL1        0.0808
      6 C           7.1487   76.7799   24.8630 C.ar    1  UNL1        0.0080
      7 C           6.0121   76.6021   24.0705 C.ar    1  UNL1        0.0148
      8 C           6.0412   76.9250   22.7060 C.ar    1  UNL1        0.0502
      9 C           7.2232   77.4320   22.1463 C.ar    1  UNL1        0.0443
     10 C           8.3636   77.6109   22.9362 C.ar    1  UNL1        0.1457
     11 F           9.4686   78.1618   22.3727 F       1  UNL1       -0.2040
     12 N           4.8732   76.7315   21.8892 N.pl3   1  UNL1       -0.3036
     13 C           3.5363   76.7985   22.4837 C.3     1  UNL1        0.1123
     14 C           2.7002   75.6190   21.9936 C.3     1  UNL1        0.1126
     15 N           2.6754   75.5606   20.5229 N.pl3   1  UNL1       -0.2968
     16 C           3.6812   76.3051   19.7301 C.3     1  UNL1        0.1924
     17 C           5.0346   76.3877   20.4700 C.3     1  UNL1        0.1221
     18 C           1.5114   74.9772   19.8978 C.ar    1  UNL1        0.0492
     19 C           0.6190   75.7714   19.1583 C.ar    1  UNL1        0.0154
     20 C          -0.5074   75.1995   18.5619 C.ar    1  UNL1        0.0135
     21 C          -0.7613   73.8309   18.6997 C.ar    1  UNL1        0.0683
     22 CL         -2.1895   73.1480   17.9344 Cl      1  UNL1       -0.0814
     23 C           0.1207   73.0298   19.4439 C.ar    1  UNL1        0.0694
     24 CL         -0.1617   71.3057   19.6433 Cl      1  UNL1       -0.0813
     25 C           1.2489   73.6050   20.0406 C.ar    1  UNL1        0.0268
     26 C           3.9025   75.6772   18.3780 C.2     1  UNL1        0.3337
     27 O           4.3710   74.5101   18.2870 O.2     1  UNL1       -0.2484
     28 O           3.6084   76.3976   17.2247 O.3     1  UNL1       -0.4790
     29 H           3.7554   75.9927   16.3079 H       1  UNL1        0.2951
     30 C          11.2533   76.3996   26.7671 C.3     1  UNL1        0.1535
     31 C          12.2733   77.4096   26.2953 C.2     1  UNL1        0.2443
     32 O          12.6525   78.3355   27.0640 O.2     1  UNL1       -0.2730
     33 N          12.7431   77.3651   24.9384 N.am    1  UNL1       -0.2825
     34 H          12.1601   76.8537   24.2376 H       1  UNL1        0.1549
     35 C          13.9096   78.0620   24.4680 C.ar    1  UNL1        0.0535
     36 C          14.1453   79.3766   24.8929 C.ar    1  UNL1        0.0353
     37 C          15.2647   80.0661   24.4206 C.ar    1  UNL1        0.1002
     38 N          16.1116   79.4698   23.5405 N.ar    1  UNL1       -0.2422
     39 C          15.8993   78.2032   23.0951 C.ar    1  UNL1        0.1002
     40 C          14.7924   77.4780   23.5434 C.ar    1  UNL1        0.0353
     41 C          10.7992   76.6926   28.2125 C.3     1  UNL1        0.0569
     42 C           9.9029   75.6079   28.7365 C.ar    1  UNL1       -0.0017
     43 C          10.3035   74.3891   29.2769 C.ar    1  UNL1        0.0681
     44 N           9.2314   73.6962   29.7239 N.ar    1  UNL1       -0.3523
     45 C           8.1601   74.4711   29.4801 C.ar    1  UNL1        0.0563
     46 C           6.8284   74.1919   29.7840 C.ar    1  UNL1        0.0170
     47 C           5.8622   75.1610   29.4566 C.ar    1  UNL1        0.0015
     48 C           6.2448   76.3748   28.8433 C.ar    1  UNL1        0.0001
     49 C           7.5969   76.6303   28.5504 C.ar    1  UNL1        0.0012
     50 C           8.5306   75.6485   28.8823 C.ar    1  UNL1        0.0131
     51 H           9.2403   72.7570   30.1802 H       1  UNL1        0.1660
@<TRIPOS>BOND
     1     1     2    2
     2     2     3   am
     3     3    30    1
     4    30    41    1
     5    41    42    1
     6    42    43   ar
     7    43    44   ar
     8    44    45   ar
     9    45    46   ar
    10    46    47   ar
    11    47    48   ar
    12    48    49   ar
    13    49    50   ar
    14    30    31    1
    15    31    32    2
    16    31    33   am
    17    33    35    1
    18    35    36   ar
    19    36    37   ar
    20    37    38   ar
    21    38    39   ar
    22    39    40   ar
    23     2     5    1
    24     5     6   ar
    25     6     7   ar
    26     7     8   ar
    27     8    12    1
    28    12    13    1
    29    13    14    1
    30    14    15    1
    31    15    18    1
    32    18    19   ar
    33    19    20   ar
    34    20    21   ar
    35    21    22    1
    36    21    23   ar
    37    23    24    1
    38    23    25   ar
    39    15    16    1
    40    16    26    1
    41    26    27    2
    42    26    28    1
    43    16    17    1
    44     8     9   ar
    45     9    10   ar
    46    10    11    1
    47    50    42   ar
    48    40    35   ar
    49    10     5   ar
    50    50    45   ar
    51    17    12    1
    52    25    18   ar
    53     3     4    1
    54    44    51    1
    55    33    34    1
    56    28    29    1
@<TRIPOS>MOLECULE
*****
 51 56 0 0 0
SMALL
GASTEIGER

@<TRIPOS>ATOM
      1 O           8.8560   77.6572   22.5278 O.2     1  UNL1       -0.2701
      2 C           9.1335   77.9013   23.7334 C.2     1  UNL1        0.2483
      3 N           8.5620   77.0995   24.7843 N.am    1  UNL1       -0.2945
      4 H           8.8788   77.2641   25.7660 H       1  UNL1        0.1501
      5 C          10.0799   78.9932   24.0457 C.ar    1  UNL1        0.0808
      6 C           9.6365   80.3252   24.0019 C.ar    1  UNL1        0.0080
      7 C          10.5149   81.3748   24.2817 C.ar    1  UNL1        0.0148
      8 C          11.8497   81.1111   24.6215 C.ar    1  UNL1        0.0502
      9 C          12.2924   79.7814   24.6810 C.ar    1  UNL1        0.0443
     10 C          11.4163   78.7277   24.4009 C.ar    1  UNL1        0.1457
     11 F          11.8651   77.4534   24.5295 F       1  UNL1       -0.2040
     12 N          12.7556   82.1933   24.8991 N.pl3   1  UNL1       -0.3036
     13 C          13.6326   82.1407   26.0710 C.3     1  UNL1        0.1123
     14 C          13.5821   83.4776   26.8065 C.3     1  UNL1        0.1126
     15 N          13.8964   84.5942   25.9002 N.pl3   1  UNL1       -0.2968
     16 C          13.8324   84.4040   24.4325 C.3     1  UNL1        0.1924
     17 C          12.7376   83.3866   24.0424 C.3     1  UNL1        0.1221
     18 C          14.5020   85.7717   26.4771 C.ar    1  UNL1        0.0492
     19 C          14.5261   85.9584   27.8695 C.ar    1  UNL1        0.0154
     20 C          15.1090   87.1031   28.4184 C.ar    1  UNL1        0.0135
     21 C          15.6699   88.0780   27.5868 C.ar    1  UNL1        0.0683
     22 CL         16.3943   89.5051   28.3152 Cl      1  UNL1       -0.0814
     23 C          15.6436   87.9043   26.1930 C.ar    1  UNL1        0.0694
     24 CL         16.3359   89.1057   25.1116 Cl      1  UNL1       -0.0813
     25 C          15.0590   86.7564   25.6451 C.ar    1  UNL1        0.0268
     26 C          13.5708   85.7017   23.7121 C.2     1  UNL1        0.3337
     27 O          14.4069   86.1481   22.8805 O.2     1  UNL1       -0.2484
     28 O          12.4109   86.4208   23.9824 O.3     1  UNL1       -0.4790
     29 H          12.2214   87.2970   23.5109 H       1  UNL1        0.2951
     30 C           7.6606   75.9581   24.5613 C.3     1  UNL1        0.1535
     31 C           8.3510   74.8368   23.8201 C.2     1  UNL1        0.2443
     32 O           7.7012   74.1112   23.0181 O.2     1  UNL1       -0.2730
     33 N           9.7293   74.5429   24.0989 N.am    1  UNL1       -0.2825
     34 H          10.1280   74.8880   25.0014 H       1  UNL1        0.1549
     35 C          10.5618   73.7219   23.2619 C.ar    1  UNL1        0.0535
     36 C          10.0381   72.5437   22.7124 C.ar    1  UNL1        0.0353
     37 C          10.8497   71.7307   21.9176 C.ar    1  UNL1        0.1002
     38 N          12.1456   72.0731   21.6922 N.ar    1  UNL1       -0.2422
     39 C          12.6876   73.1991   22.2269 C.ar    1  UNL1        0.1002
     40 C          11.9103   74.0406   23.0268 C.ar    1  UNL1        0.0353
     41 C           7.0422   75.4599   25.8843 C.3     1  UNL1        0.0569
     42 C           5.7526   76.1667   26.1875 C.ar    1  UNL1       -0.0017
     43 C           5.3878   76.7440   27.4005 C.ar    1  UNL1        0.0681
     44 N           4.1925   77.3666   27.2862 N.ar    1  UNL1       -0.3523
     45 C           3.8055   77.1964   26.0099 C.ar    1  UNL1        0.0563
     46 C           2.6439   77.6777   25.4077 C.ar    1  UNL1        0.0170
     47 C           2.4462   77.3977   24.0430 C.ar    1  UNL1        0.0015
     48 C           3.4047   76.6546   23.3184 C.ar    1  UNL1        0.0001
     49 C           4.5691   76.1835   23.9521 C.ar    1  UNL1        0.0012
     50 C           4.7343   76.4728   25.3067 C.ar    1  UNL1        0.0131
     51 H           3.6847   77.8869   28.0357 H       1  UNL1        0.1660
@<TRIPOS>BOND
     1     1     2    2
     2     2     3   am
     3     3    30    1
     4    30    41    1
     5    41    42    1
     6    42    43   ar
     7    43    44   ar
     8    44    45   ar
     9    45    46   ar
    10    46    47   ar
    11    47    48   ar
    12    48    49   ar
    13    49    50   ar
    14    30    31    1
    15    31    32    2
    16    31    33   am
    17    33    35    1
    18    35    36   ar
    19    36    37   ar
    20    37    38   ar
    21    38    39   ar
    22    39    40   ar
    23     2     5    1
    24     5     6   ar
    25     6     7   ar
    26     7     8   ar
    27     8    12    1
    28    12    13    1
    29    13    14    1
    30    14    15    1
    31    15    18    1
    32    18    19   ar
    33    19    20   ar
    34    20    21   ar
    35    21    22    1
    36    21    23   ar
    37    23    24    1
    38    23    25   ar
    39    15    16    1
    40    16    26    1
    41    26    27    2
    42    26    28    1
    43    16    17    1
    44     8     9   ar
    45     9    10   ar
    46    10    11    1
    47    50    42   ar
    48    40    35   ar
    49    10     5   ar
    50    50    45   ar
    51    17    12    1
    52    25    18   ar
    53     3     4    1
    54    44    51    1
    55    33    34    1
    56    28    29    1
@<TRIPOS>MOLECULE
*****
 51 56 0 0 0
SMALL
GASTEIGER

@<TRIPOS>ATOM
      1 O           8.9465   77.8739   22.3126 O.2     1  UNL1       -0.2701
      2 C           9.2519   78.0138   23.5280 C.2     1  UNL1        0.2483
      3 N           8.7251   77.1077   24.5156 N.am    1  UNL1       -0.2945
      4 H           9.0652   77.1895   25.4999 H       1  UNL1        0.1501
      5 C          10.1848   79.0936   23.9145 C.ar    1  UNL1        0.0808
      6 C           9.7029   80.4054   24.0548 C.ar    1  UNL1        0.0080
      7 C          10.5672   81.4446   24.4078 C.ar    1  UNL1        0.0148
      8 C          11.9268   81.1890   24.6382 C.ar    1  UNL1        0.0502
      9 C          12.4088   79.8777   24.5137 C.ar    1  UNL1        0.0443
     10 C          11.5468   78.8345   24.1598 C.ar    1  UNL1        0.1457
     11 F          12.0376   77.5701   24.1102 F       1  UNL1       -0.2040
     12 N          12.8174   82.2618   24.9913 N.pl3   1  UNL1       -0.3036
     13 C          13.6112   82.1890   26.2201 C.3     1  UNL1        0.1123
     14 C          13.5176   83.5170   26.9674 C.3     1  UNL1        0.1126
     15 N          13.8999   84.6427   26.0993 N.pl3   1  UNL1       -0.2968
     16 C          13.9363   84.4711   24.6284 C.3     1  UNL1        0.1924
     17 C          12.8653   83.4657   24.1508 C.3     1  UNL1        0.1221
     18 C          14.4709   85.8089   26.7317 C.ar    1  UNL1        0.0492
     19 C          14.4813   85.9349   28.1310 C.ar    1  UNL1        0.0154
     20 C          15.0306   87.0692   28.7337 C.ar    1  UNL1        0.0135
     21 C          15.5711   88.0937   27.9497 C.ar    1  UNL1        0.0683
     22 CL         16.2533   89.5057   28.7452 Cl      1  UNL1       -0.0814
     23 C          15.5582   87.9808   26.5495 C.ar    1  UNL1        0.0694
     24 CL         16.2257   89.2459   25.5268 Cl      1  UNL1       -0.0813
     25 C          15.0073   86.8433   25.9477 C.ar    1  UNL1        0.0268
     26 C          13.7323   85.7793   23.9084 C.2     1  UNL1        0.3337
     27 O          12.6014   86.3368   23.9091 O.2     1  UNL1       -0.2484
     28 O          14.7921   86.3631   23.2217 O.3     1  UNL1       -0.4790
     29 H          14.6714   87.2396   22.7286 H       1  UNL1        0.2951
     30 C           7.8406   75.9715   24.2123 C.3     1  UNL1        0.1535
     31 C           6.4119   76.2514   24.6172 C.2     1  UNL1        0.2443
     32 O           6.1358   76.5379   25.8145 O.2     1  UNL1       -0.2730
     33 N           5.3575   76.1025   23.6530 N.am    1  UNL1       -0.2825
     34 H           5.5499   75.5198   22.8067 H       1  UNL1        0.1549
     35 C           4.0280   76.6214   23.8286 C.ar    1  UNL1        0.0535
     36 C           3.3206   77.0960   22.7156 C.ar    1  UNL1        0.0353
     37 C           2.0378   77.6225   22.8843 C.ar    1  UNL1        0.1002
     38 N           1.4855   77.6889   24.1245 N.ar    1  UNL1       -0.2422
     39 C           2.1541   77.2547   25.2255 C.ar    1  UNL1        0.1002
     40 C           3.4389   76.7200   25.1009 C.ar    1  UNL1        0.0353
     41 C           7.9341   75.5638   22.7271 C.3     1  UNL1        0.0569
     42 C           8.4331   74.1558   22.5751 C.ar    1  UNL1       -0.0017
     43 C           7.6560   73.0147   22.3961 C.ar    1  UNL1        0.0681
     44 N           8.4444   71.9314   22.2110 N.ar    1  UNL1       -0.3523
     45 C           9.7107   72.3805   22.2609 C.ar    1  UNL1        0.0563
     46 C          10.8785   71.6354   22.1027 C.ar    1  UNL1        0.0170
     47 C          12.1075   72.3168   22.1722 C.ar    1  UNL1        0.0015
     48 C          12.1413   73.7120   22.3920 C.ar    1  UNL1        0.0001
     49 C          10.9465   74.4385   22.5457 C.ar    1  UNL1        0.0012
     50 C           9.7442   73.7344   22.4769 C.ar    1  UNL1        0.0131
     51 H           8.1289   70.9497   22.0466 H       1  UNL1        0.1660
@<TRIPOS>BOND
     1     1     2    2
     2     2     3   am
     3     3    30    1
     4    30    41    1
     5    41    42    1
     6    42    43   ar
     7    43    44   ar
     8    44    45   ar
     9    45    46   ar
    10    46    47   ar
    11    47    48   ar
    12    48    49   ar
    13    49    50   ar
    14    30    31    1
    15    31    32    2
    16    31    33   am
    17    33    35    1
    18    35    36   ar
    19    36    37   ar
    20    37    38   ar
    21    38    39   ar
    22    39    40   ar
    23     2     5    1
    24     5     6   ar
    25     6     7   ar
    26     7     8   ar
    27     8    12    1
    28    12    13    1
    29    13    14    1
    30    14    15    1
    31    15    18    1
    32    18    19   ar
    33    19    20   ar
    34    20    21   ar
    35    21    22    1
    36    21    23   ar
    37    23    24    1
    38    23    25   ar
    39    15    16    1
    40    16    26    1
    41    26    27    2
    42    26    28    1
    43    16    17    1
    44     8     9   ar
    45     9    10   ar
    46    10    11    1
    47    50    42   ar
    48    40    35   ar
    49    10     5   ar
    50    50    45   ar
    51    17    12    1
    52    25    18   ar
    53     3     4    1
    54    44    51    1
    55    33    34    1
    56    28    29    1
@<TRIPOS>MOLECULE
*****
 51 56 0 0 0
SMALL
GASTEIGER

@<TRIPOS>ATOM
      1 O           8.9129   77.6232   22.6208 O.2     1  UNL1       -0.2701
      2 C           9.1975   77.8839   23.8213 C.2     1  UNL1        0.2483
      3 N           8.6368   77.0930   24.8862 N.am    1  UNL1       -0.2945
      4 H           8.9596   77.2714   25.8635 H       1  UNL1        0.1501
      5 C          10.1410   78.9839   24.1132 C.ar    1  UNL1        0.0808
      6 C           9.6880   80.3127   24.0683 C.ar    1  UNL1        0.0080
      7 C          10.5633   81.3697   24.3289 C.ar    1  UNL1        0.0148
      8 C          11.9048   81.1169   24.6504 C.ar    1  UNL1        0.0502
      9 C          12.3573   79.7906   24.7109 C.ar    1  UNL1        0.0443
     10 C          11.4843   78.7294   24.4500 C.ar    1  UNL1        0.1457
     11 F          11.9435   77.4589   24.5793 F       1  UNL1       -0.2040
     12 N          12.8074   82.2067   24.9082 N.pl3   1  UNL1       -0.3036
     13 C          13.7364   82.1451   26.0388 C.3     1  UNL1        0.1123
     14 C          13.7006   83.4672   26.8013 C.3     1  UNL1        0.1126
     15 N          13.9589   84.6049   25.9036 N.pl3   1  UNL1       -0.2968
     16 C          13.8321   84.4410   24.4368 C.3     1  UNL1        0.1924
     17 C          12.7349   83.4153   24.0762 C.3     1  UNL1        0.1221
     18 C          14.5736   85.7801   26.4755 C.ar    1  UNL1        0.0492
     19 C          14.5279   86.0130   27.8604 C.ar    1  UNL1        0.0154
     20 C          15.1203   87.1553   28.4042 C.ar    1  UNL1        0.0135
     21 C          15.7604   88.0819   27.5745 C.ar    1  UNL1        0.0683
     22 CL         16.4941   89.5075   28.2963 Cl      1  UNL1       -0.0814
     23 C          15.8044   87.8620   26.1877 C.ar    1  UNL1        0.0694
     24 CL         16.5975   89.0018   25.1089 Cl      1  UNL1       -0.0813
     25 C          15.2102   86.7166   25.6450 C.ar    1  UNL1        0.0268
     26 C          13.5209   85.7480   23.7537 C.2     1  UNL1        0.3337
     27 O          14.3394   86.2499   22.9363 O.2     1  UNL1       -0.2484
     28 O          12.3343   86.4140   24.0433 O.3     1  UNL1       -0.4790
     29 H          12.1113   87.2955   23.5969 H       1  UNL1        0.2951
     30 C           7.7392   75.9447   24.6839 C.3     1  UNL1        0.1535
     31 C           8.3832   74.8744   23.8336 C.2     1  UNL1        0.2443
     32 O           7.7467   74.3564   22.8753 O.2     1  UNL1       -0.2730
     33 N           9.6899   74.3853   24.1755 N.am    1  UNL1       -0.2825
     34 H          10.0295   74.5437   25.1513 H       1  UNL1        0.1549
     35 C          10.5145   73.6078   23.2905 C.ar    1  UNL1        0.0535
     36 C           9.9990   72.4363   22.7193 C.ar    1  UNL1        0.0353
     37 C          10.8038   71.6651   21.8773 C.ar    1  UNL1        0.1002
     38 N          12.0857   72.0410   21.6268 N.ar    1  UNL1       -0.2422
     39 C          12.6201   73.1612   22.1811 C.ar    1  UNL1        0.1002
     40 C          11.8492   73.9615   23.0281 C.ar    1  UNL1        0.0353
     41 C           7.2434   75.3719   26.0281 C.3     1  UNL1        0.0569
     42 C           8.1097   75.8216   27.1691 C.ar    1  UNL1       -0.0017
     43 C           9.1896   75.1320   27.7131 C.ar    1  UNL1        0.0681
     44 N           9.7890   75.8745   28.6716 N.ar    1  UNL1       -0.3523
     45 C           9.1037   77.0298   28.7295 C.ar    1  UNL1        0.0563
     46 C           9.3589   78.1233   29.5559 C.ar    1  UNL1        0.0170
     47 C           8.5217   79.2477   29.4357 C.ar    1  UNL1        0.0015
     48 C           7.4627   79.2552   28.5006 C.ar    1  UNL1        0.0001
     49 C           7.2303   78.1380   27.6779 C.ar    1  UNL1        0.0012
     50 C           8.0739   77.0366   27.8237 C.ar    1  UNL1        0.0131
     51 H          10.6246   75.6072   29.2379 H       1  UNL1        0.1660
@<TRIPOS>BOND
     1     1     2    2
     2     2     3   am
     3     3    30    1
     4    30    41    1
     5    41    42    1
     6    42    43   ar
     7    43    44   ar
     8    44    45   ar
     9    45    46   ar
    10    46    47   ar
    11    47    48   ar
    12    48    49   ar
    13    49    50   ar
    14    30    31    1
    15    31    32    2
    16    31    33   am
    17    33    35    1
    18    35    36   ar
    19    36    37   ar
    20    37    38   ar
    21    38    39   ar
    22    39    40   ar
    23     2     5    1
    24     5     6   ar
    25     6     7   ar
    26     7     8   ar
    27     8    12    1
    28    12    13    1
    29    13    14    1
    30    14    15    1
    31    15    18    1
    32    18    19   ar
    33    19    20   ar
    34    20    21   ar
    35    21    22    1
    36    21    23   ar
    37    23    24    1
    38    23    25   ar
    39    15    16    1
    40    16    26    1
    41    26    27    2
    42    26    28    1
    43    16    17    1
    44     8     9   ar
    45     9    10   ar
    46    10    11    1
    47    50    42   ar
    48    40    35   ar
    49    10     5   ar
    50    50    45   ar
    51    17    12    1
    52    25    18   ar
    53     3     4    1
    54    44    51    1
    55    33    34    1
    56    28    29    1
@<TRIPOS>MOLECULE
*****
 51 56 0 0 0
SMALL
GASTEIGER

@<TRIPOS>ATOM
      1 O          10.5371   76.5408   25.2422 O.2     1  UNL1       -0.2701
      2 C           9.4828   77.1840   25.4972 C.2     1  UNL1        0.2483
      3 N           9.4310   78.0676   26.6332 N.am    1  UNL1       -0.2945
      4 H           8.5789   78.6563   26.7690 H       1  UNL1        0.1501
      5 C           8.3210   77.0460   24.5937 C.ar    1  UNL1        0.0808
      6 C           7.0692   76.6968   25.1266 C.ar    1  UNL1        0.0080
      7 C           5.9591   76.5491   24.2916 C.ar    1  UNL1        0.0148
      8 C           6.0777   76.7590   22.9100 C.ar    1  UNL1        0.0502
      9 C           7.3228   77.1225   22.3761 C.ar    1  UNL1        0.0443
     10 C           8.4370   77.2709   23.2085 C.ar    1  UNL1        0.1457
     11 F           9.6092   77.6839   22.6635 F       1  UNL1       -0.2040
     12 N           4.9361   76.5963   22.0503 N.pl3   1  UNL1       -0.3036
     13 C           3.5803   76.7088   22.5930 C.3     1  UNL1        0.1123
     14 C           2.7270   75.5524   22.0779 C.3     1  UNL1        0.1126
     15 N           2.7562   75.4849   20.6077 N.pl3   1  UNL1       -0.2968
     16 C           3.8142   76.1925   19.8497 C.3     1  UNL1        0.1924
     17 C           5.1404   76.2381   20.6403 C.3     1  UNL1        0.1221
     18 C           1.5991   74.9337   19.9419 C.ar    1  UNL1        0.0492
     19 C           0.7656   75.7484   19.1574 C.ar    1  UNL1        0.0154
     20 C          -0.3548   75.2078   18.5217 C.ar    1  UNL1        0.0135
     21 C          -0.6612   73.8505   18.6644 C.ar    1  UNL1        0.0683
     22 CL         -2.0798   73.2070   17.8488 Cl      1  UNL1       -0.0814
     23 C           0.1616   73.0293   19.4532 C.ar    1  UNL1        0.0694
     24 CL         -0.1882   71.3185   19.6602 Cl      1  UNL1       -0.0813
     25 C           1.2837   73.5732   20.0892 C.ar    1  UNL1        0.0268
     26 C           4.0669   75.5489   18.5105 C.2     1  UNL1        0.3337
     27 O           4.6878   74.4539   18.4374 O.2     1  UNL1       -0.2484
     28 O           3.6316   76.1775   17.3482 O.3     1  UNL1       -0.4790
     29 H           3.7971   75.7614   16.4397 H       1  UNL1        0.2951
     30 C          10.5573   78.3108   27.5483 C.3     1  UNL1        0.1535
     31 C          11.8863   78.0301   26.8863 C.2     1  UNL1        0.2443
     32 O          12.5735   77.0326   27.2396 O.2     1  UNL1       -0.2730
     33 N          12.4063   78.9529   25.9159 N.am    1  UNL1       -0.2825
     34 H          12.0241   79.9258   25.9152 H       1  UNL1        0.1549
     35 C          13.4858   78.6499   25.0156 C.ar    1  UNL1        0.0535
     36 C          13.3986   77.5205   24.1902 C.ar    1  UNL1        0.0353
     37 C          14.4547   77.2088   23.3306 C.ar    1  UNL1        0.1002
     38 N          15.5679   77.9882   23.3074 N.ar    1  UNL1       -0.2422
     39 C          15.6902   79.0786   24.1097 C.ar    1  UNL1        0.1002
     40 C          14.6568   79.4265   24.9833 C.ar    1  UNL1        0.0353
     41 C          10.5114   79.7377   28.1337 C.3     1  UNL1        0.0569
     42 C           9.8771   79.7523   29.4945 C.ar    1  UNL1       -0.0017
     43 C           9.4316   78.6473   30.2145 C.ar    1  UNL1        0.0681
     44 N           8.9938   79.0259   31.4369 N.ar    1  UNL1       -0.3523
     45 C           9.1689   80.3575   31.4983 C.ar    1  UNL1        0.0563
     46 C           8.8824   81.1989   32.5724 C.ar    1  UNL1        0.0170
     47 C           9.1660   82.5695   32.4278 C.ar    1  UNL1        0.0015
     48 C           9.7265   83.0620   31.2281 C.ar    1  UNL1        0.0001
     49 C          10.0073   82.1888   30.1614 C.ar    1  UNL1        0.0012
     50 C           9.7105   80.8366   30.3329 C.ar    1  UNL1        0.0131
     51 H           8.6130   78.4042   32.1844 H       1  UNL1        0.1660
@<TRIPOS>BOND
     1     1     2    2
     2     2     3   am
     3     3    30    1
     4    30    41    1
     5    41    42    1
     6    42    43   ar
     7    43    44   ar
     8    44    45   ar
     9    45    46   ar
    10    46    47   ar
    11    47    48   ar
    12    48    49   ar
    13    49    50   ar
    14    30    31    1
    15    31    32    2
    16    31    33   am
    17    33    35    1
    18    35    36   ar
    19    36    37   ar
    20    37    38   ar
    21    38    39   ar
    22    39    40   ar
    23     2     5    1
    24     5     6   ar
    25     6     7   ar
    26     7     8   ar
    27     8    12    1
    28    12    13    1
    29    13    14    1
    30    14    15    1
    31    15    18    1
    32    18    19   ar
    33    19    20   ar
    34    20    21   ar
    35    21    22    1
    36    21    23   ar
    37    23    24    1
    38    23    25   ar
    39    15    16    1
    40    16    26    1
    41    26    27    2
    42    26    28    1
    43    16    17    1
    44     8     9   ar
    45     9    10   ar
    46    10    11    1
    47    50    42   ar
    48    40    35   ar
    49    10     5   ar
    50    50    45   ar
    51    17    12    1
    52    25    18   ar
    53     3     4    1
    54    44    51    1
    55    33    34    1
    56    28    29    1
@<TRIPOS>MOLECULE
*****
 51 56 0 0 0
SMALL
GASTEIGER

@<TRIPOS>ATOM
      1 O           7.3917   74.3132   24.9661 O.2     1  UNL1       -0.2701
      2 C           7.8271   75.0640   24.0513 C.2     1  UNL1        0.2483
      3 N           7.4465   74.8319   22.6820 N.am    1  UNL1       -0.2945
      4 H           7.7467   75.5213   21.9569 H       1  UNL1        0.1501
      5 C           8.6983   76.2030   24.4108 C.ar    1  UNL1        0.0808
      6 C           8.1811   77.5082   24.3696 C.ar    1  UNL1        0.0080
      7 C           8.9880   78.6015   24.6936 C.ar    1  UNL1        0.0148
      8 C          10.3236   78.4087   25.0759 C.ar    1  UNL1        0.0502
      9 C          10.8393   77.1056   25.1328 C.ar    1  UNL1        0.0443
     10 C          10.0349   76.0083   24.8085 C.ar    1  UNL1        0.1457
     11 F          10.5513   74.7596   24.9355 F       1  UNL1       -0.2040
     12 N          11.1561   79.5362   25.3991 N.pl3   1  UNL1       -0.3036
     13 C          10.5674   80.7501   25.9694 C.3     1  UNL1        0.1123
     14 C          11.1192   81.9745   25.2433 C.3     1  UNL1        0.1126
     15 N          12.5911   81.9836   25.2613 N.pl3   1  UNL1       -0.2968
     16 C          13.3407   80.7450   25.5749 C.3     1  UNL1        0.1924
     17 C          12.5892   79.4897   25.0793 C.3     1  UNL1        0.1221
     18 C          13.2510   83.2676   25.2179 C.ar    1  UNL1        0.0492
     19 C          13.7927   83.8368   26.3826 C.ar    1  UNL1        0.0154
     20 C          14.4242   85.0819   26.3322 C.ar    1  UNL1        0.0135
     21 C          14.5187   85.7773   25.1222 C.ar    1  UNL1        0.0683
     22 CL         15.3208   87.3418   25.0990 Cl      1  UNL1       -0.0814
     23 C          13.9731   85.2202   23.9536 C.ar    1  UNL1        0.0694
     24 CL         14.0687   86.0612   22.4123 Cl      1  UNL1       -0.0813
     25 C          13.3408   83.9724   24.0065 C.ar    1  UNL1        0.0268
     26 C          14.7202   80.7584   24.9680 C.2     1  UNL1        0.3337
     27 O          15.0462   81.6588   24.1478 O.2     1  UNL1       -0.2484
     28 O          15.6307   79.7597   25.2986 O.3     1  UNL1       -0.4790
     29 H          16.5603   79.7508   24.8966 H       1  UNL1        0.2951
     30 C           6.5377   73.7613   22.2426 C.3     1  UNL1        0.1535
     31 C           5.2472   74.3165   21.6862 C.2     1  UNL1        0.2443
     32 O           4.4119   74.8707   22.4524 O.2     1  UNL1       -0.2730
     33 N           4.9344   74.1316   20.2964 N.am    1  UNL1       -0.2825
     34 H           5.4343   73.3716   19.7814 H       1  UNL1        0.1549
     35 C           3.9085   74.8591   19.5993 C.ar    1  UNL1        0.0535
     36 C           4.2661   75.7353   18.5654 C.ar    1  UNL1        0.0353
     37 C           3.2754   76.4618   17.9007 C.ar    1  UNL1        0.1002
     38 N           1.9729   76.3314   18.2663 N.ar    1  UNL1       -0.2422
     39 C           1.5969   75.5046   19.2776 C.ar    1  UNL1        0.1002
     40 C           2.5559   74.7588   19.9677 C.ar    1  UNL1        0.0353
     41 C           7.2241   72.8164   21.2340 C.3     1  UNL1        0.0569
     42 C           8.5123   72.2725   21.7809 C.ar    1  UNL1       -0.0017
     43 C           8.7508   70.9660   22.1983 C.ar    1  UNL1        0.0681
     44 N          10.0474   70.8131   22.5518 N.ar    1  UNL1       -0.3523
     45 C          10.6307   72.0077   22.3511 C.ar    1  UNL1        0.0563
     46 C          11.9693   72.3395   22.5552 C.ar    1  UNL1        0.0170
     47 C          12.3735   73.6542   22.2586 C.ar    1  UNL1        0.0015
     48 C          11.4421   74.5958   21.7669 C.ar    1  UNL1        0.0001
     49 C          10.0977   74.2319   21.5685 C.ar    1  UNL1        0.0012
     50 C           9.7264   72.9229   21.8762 C.ar    1  UNL1        0.0131
     51 H          10.5025   69.9381   22.8949 H       1  UNL1        0.1660
@<TRIPOS>BOND
     1     1     2    2
     2     2     3   am
     3     3    30    1
     4    30    41    1
     5    41    42    1
     6    42    43   ar
     7    43    44   ar
     8    44    45   ar
     9    45    46   ar
    10    46    47   ar
    11    47    48   ar
    12    48    49   ar
    13    49    50   ar
    14    30    31    1
    15    31    32    2
    16    31    33   am
    17    33    35    1
    18    35    36   ar
    19    36    37   ar
    20    37    38   ar
    21    38    39   ar
    22    39    40   ar
    23     2     5    1
    24     5     6   ar
    25     6     7   ar
    26     7     8   ar
    27     8    12    1
    28    12    13    1
    29    13    14    1
    30    14    15    1
    31    15    18    1
    32    18    19   ar
    33    19    20   ar
    34    20    21   ar
    35    21    22    1
    36    21    23   ar
    37    23    24    1
    38    23    25   ar
    39    15    16    1
    40    16    26    1
    41    26    27    2
    42    26    28    1
    43    16    17    1
    44     8     9   ar
    45     9    10   ar
    46    10    11    1
    47    50    42   ar
    48    40    35   ar
    49    10     5   ar
    50    50    45   ar
    51    17    12    1
    52    25    18   ar
    53     3     4    1
    54    44    51    1
    55    33    34    1
    56    28    29    1
