@<TRIPOS>MOLECULE
*****
 47 52 0 0 0
SMALL
GASTEIGER

@<TRIPOS>ATOM
      1 O          58.6427   83.2140   11.7512 O.2     1  UNL1       -0.2701
      2 C          59.6212   83.3261   12.5396 C.2     1  UNL1        0.2483
      3 N          60.1047   82.1710   13.2440 N.am    1  UNL1       -0.2945
      4 H          60.7547   82.3100   14.0507 H       1  UNL1        0.1501
      5 C          60.2356   84.6567   12.7478 C.ar    1  UNL1        0.0808
      6 C          61.5838   84.8581   12.4111 C.ar    1  UNL1        0.0080
      7 C          62.1843   86.1058   12.5960 C.ar    1  UNL1        0.0148
      8 C          61.4520   87.1793   13.1312 C.ar    1  UNL1        0.0502
      9 C          60.1090   86.9714   13.4892 C.ar    1  UNL1        0.0443
     10 C          59.5044   85.7240   13.3033 C.ar    1  UNL1        0.1457
     11 F          58.2213   85.5549   13.7119 F       1  UNL1       -0.2040
     12 N          62.0733   88.4680   13.3293 N.pl3   1  UNL1       -0.3040
     13 C          62.5113   89.2451   12.1565 C.3     1  UNL1        0.1122
     14 C          62.8259   90.6933   12.5331 C.3     1  UNL1        0.1122
     15 N          63.7128   90.7106   13.7016 N.pl3   1  UNL1       -0.3040
     16 C          63.3883   89.8878   14.8763 C.3     1  UNL1        0.1122
     17 C          62.1007   89.0772   14.6695 C.3     1  UNL1        0.1122
     18 C          64.9448   91.4549   13.6753 C.ar    1  UNL1        0.0496
     19 C          65.7857   91.4794   14.8008 C.ar    1  UNL1        0.0260
     20 C          66.9882   92.1942   14.7691 C.ar    1  UNL1        0.0597
     21 CL         68.0268   92.2257   16.1824 Cl      1  UNL1       -0.0822
     22 C          67.3614   92.8853   13.6124 C.ar    1  UNL1        0.0229
     23 C          66.5338   92.8620   12.4856 C.ar    1  UNL1        0.0597
     24 CL         67.0074   93.7219   11.0319 Cl      1  UNL1       -0.0822
     25 C          65.3308   92.1485   12.5154 C.ar    1  UNL1        0.0260
     26 C          59.6541   80.8155   12.9105 C.3     1  UNL1        0.1535
     27 C          59.0717   80.7935   11.5198 C.2     1  UNL1        0.2443
     28 O          57.8383   80.5808   11.3625 O.2     1  UNL1       -0.2730
     29 N          59.9197   81.0394   10.3869 N.am    1  UNL1       -0.2825
     30 H          60.9486   80.8997   10.5076 H       1  UNL1        0.1549
     31 C          59.4418   81.4258    9.0872 C.ar    1  UNL1        0.0535
     32 C          58.1861   81.0119    8.6099 C.ar    1  UNL1        0.0353
     33 C          57.7504   81.4421    7.3542 C.ar    1  UNL1        0.1002
     34 N          58.5307   82.2660    6.6060 N.ar    1  UNL1       -0.2422
     35 C          59.7411   82.6965    7.0497 C.ar    1  UNL1        0.1002
     36 C          60.2136   82.2915    8.3003 C.ar    1  UNL1        0.0353
     37 C          60.8227   79.8177   13.0219 C.3     1  UNL1        0.0569
     38 C          62.1344   80.5194   13.2365 C.ar    1  UNL1       -0.0017
     39 C          62.8024   80.6719   14.4481 C.ar    1  UNL1        0.0681
     40 N          63.8959   81.4518   14.2898 N.ar    1  UNL1       -0.3523
     41 C          63.9186   81.8004   12.9916 C.ar    1  UNL1        0.0563
     42 C          64.8459   82.6232   12.3540 C.ar    1  UNL1        0.0170
     43 C          64.6638   82.8797   10.9826 C.ar    1  UNL1        0.0015
     44 C          63.5693   82.3176   10.2884 C.ar    1  UNL1        0.0001
     45 C          62.6473   81.4933   10.9588 C.ar    1  UNL1        0.0012
     46 C          62.8574   81.2532   12.3167 C.ar    1  UNL1        0.0131
     47 H          64.5712   81.7392   15.0326 H       1  UNL1        0.1660
@<TRIPOS>BOND
     1     1     2    2
     2     2     3   am
     3     3    26    1
     4    26    37    1
     5    37    38    1
     6    38    39   ar
     7    39    40   ar
     8    40    41   ar
     9    41    42   ar
    10    42    43   ar
    11    43    44   ar
    12    44    45   ar
    13    45    46   ar
    14    26    27    1
    15    27    28    2
    16    27    29   am
    17    29    31    1
    18    31    32   ar
    19    32    33   ar
    20    33    34   ar
    21    34    35   ar
    22    35    36   ar
    23     2     5    1
    24     5     6   ar
    25     6     7   ar
    26     7     8   ar
    27     8    12    1
    28    12    13    1
    29    13    14    1
    30    14    15    1
    31    15    18    1
    32    18    19   ar
    33    19    20   ar
    34    20    21    1
    35    20    22   ar
    36    22    23   ar
    37    23    24    1
    38    23    25   ar
    39    15    16    1
    40    16    17    1
    41     8     9   ar
    42     9    10   ar
    43    10    11    1
    44    46    38   ar
    45    36    31   ar
    46    10     5   ar
    47    46    41   ar
    48    17    12    1
    49    25    18   ar
    50     3     4    1
    51    40    47    1
    52    29    30    1
@<TRIPOS>MOLECULE
*****
 47 52 0 0 0
SMALL
GASTEIGER

@<TRIPOS>ATOM
      1 O          58.6330   83.2147   11.7648 O.2     1  UNL1       -0.2701
      2 C          59.6171   83.3250   12.5465 C.2     1  UNL1        0.2483
      3 N          60.1067   82.1678   13.2434 N.am    1  UNL1       -0.2945
      4 H          60.7624   82.3046   14.0458 H       1  UNL1        0.1501
      5 C          60.2319   84.6553   12.7549 C.ar    1  UNL1        0.0808
      6 C          61.5805   84.8559   12.4197 C.ar    1  UNL1        0.0080
      7 C          62.1814   86.1034   12.6047 C.ar    1  UNL1        0.0148
      8 C          61.4490   87.1775   13.1386 C.ar    1  UNL1        0.0502
      9 C          60.1055   86.9704   13.4950 C.ar    1  UNL1        0.0443
     10 C          59.5006   85.7232   13.3090 C.ar    1  UNL1        0.1457
     11 F          58.2169   85.5549   13.7162 F       1  UNL1       -0.2040
     12 N          62.0707   88.4660   13.3369 N.pl3   1  UNL1       -0.3040
     13 C          62.5085   89.2433   12.1642 C.3     1  UNL1        0.1122
     14 C          62.8235   90.6914   12.5410 C.3     1  UNL1        0.1122
     15 N          63.7109   90.7081   13.7093 N.pl3   1  UNL1       -0.3040
     16 C          63.3866   89.8850   14.8838 C.3     1  UNL1        0.1122
     17 C          62.0988   89.0748   14.6772 C.3     1  UNL1        0.1122
     18 C          64.9431   91.4521   13.6827 C.ar    1  UNL1        0.0496
     19 C          65.3076   92.1848   12.5405 C.ar    1  UNL1        0.0260
     20 C          66.5002   92.9163   12.5210 C.ar    1  UNL1        0.0597
     21 CL         66.9506   93.8208   11.0870 Cl      1  UNL1       -0.0822
     22 C          67.3345   92.9250   13.6430 C.ar    1  UNL1        0.0229
     23 C          66.9773   92.2035   14.7862 C.ar    1  UNL1        0.0597
     24 CL         68.0201   92.2226   16.1966 Cl      1  UNL1       -0.0822
     25 C          65.7856   91.4709   14.8075 C.ar    1  UNL1        0.0260
     26 C          59.6548   80.8131   12.9085 C.3     1  UNL1        0.1535
     27 C          59.0706   80.7935   11.5185 C.2     1  UNL1        0.2443
     28 O          57.8361   80.5861   11.3627 O.2     1  UNL1       -0.2730
     29 N          59.9184   81.0357   10.3845 N.am    1  UNL1       -0.2825
     30 H          60.9468   80.8915   10.5040 H       1  UNL1        0.1549
     31 C          59.4406   81.4240    9.0853 C.ar    1  UNL1        0.0535
     32 C          58.1857   81.0093    8.6066 C.ar    1  UNL1        0.0353
     33 C          57.7501   81.4414    7.3515 C.ar    1  UNL1        0.1002
     34 N          58.5295   82.2679    6.6054 N.ar    1  UNL1       -0.2422
     35 C          59.7391   82.6992    7.0506 C.ar    1  UNL1        0.1002
     36 C          60.2115   82.2924    8.3006 C.ar    1  UNL1        0.0353
     37 C          60.8229   79.8144   13.0169 C.3     1  UNL1        0.0569
     38 C          62.1351   80.5149   13.2329 C.ar    1  UNL1       -0.0017
     39 C          62.8039   80.6631   14.4446 C.ar    1  UNL1        0.0681
     40 N          63.8976   81.4431   14.2881 N.ar    1  UNL1       -0.3523
     41 C          63.9196   81.7959   12.9910 C.ar    1  UNL1        0.0563
     42 C          64.8469   82.6203   12.3554 C.ar    1  UNL1        0.0170
     43 C          64.6640   82.8813   10.9850 C.ar    1  UNL1        0.0015
     44 C          63.5688   82.3219   10.2897 C.ar    1  UNL1        0.0001
     45 C          62.6469   81.4958   10.9580 C.ar    1  UNL1        0.0012
     46 C          62.8578   81.2513   12.3151 C.ar    1  UNL1        0.0131
     47 H          64.5735   81.7278   15.0314 H       1  UNL1        0.1660
@<TRIPOS>BOND
     1     1     2    2
     2     2     3   am
     3     3    26    1
     4    26    37    1
     5    37    38    1
     6    38    39   ar
     7    39    40   ar
     8    40    41   ar
     9    41    42   ar
    10    42    43   ar
    11    43    44   ar
    12    44    45   ar
    13    45    46   ar
    14    26    27    1
    15    27    28    2
    16    27    29   am
    17    29    31    1
    18    31    32   ar
    19    32    33   ar
    20    33    34   ar
    21    34    35   ar
    22    35    36   ar
    23     2     5    1
    24     5     6   ar
    25     6     7   ar
    26     7     8   ar
    27     8    12    1
    28    12    13    1
    29    13    14    1
    30    14    15    1
    31    15    18    1
    32    18    19   ar
    33    19    20   ar
    34    20    21    1
    35    20    22   ar
    36    22    23   ar
    37    23    24    1
    38    23    25   ar
    39    15    16    1
    40    16    17    1
    41     8     9   ar
    42     9    10   ar
    43    10    11    1
    44    46    38   ar
    45    36    31   ar
    46    10     5   ar
    47    46    41   ar
    48    17    12    1
    49    25    18   ar
    50     3     4    1
    51    40    47    1
    52    29    30    1
@<TRIPOS>MOLECULE
*****
 47 52 0 0 0
SMALL
GASTEIGER

@<TRIPOS>ATOM
      1 O          61.9284   81.6584   11.4437 O.2     1  UNL1       -0.2701
      2 C          61.8255   82.7037   10.7449 C.2     1  UNL1        0.2483
      3 N          61.3976   82.6069    9.3768 N.am    1  UNL1       -0.2945
      4 H          61.5303   83.4323    8.7493 H       1  UNL1        0.1501
      5 C          62.1781   84.0119   11.3412 C.ar    1  UNL1        0.0808
      6 C          61.5077   85.1703   10.9170 C.ar    1  UNL1        0.0080
      7 C          61.8214   86.4154   11.4674 C.ar    1  UNL1        0.0148
      8 C          62.8204   86.5319   12.4490 C.ar    1  UNL1        0.0502
      9 C          63.5069   85.3755   12.8571 C.ar    1  UNL1        0.0443
     10 C          63.1936   84.1274   12.3096 C.ar    1  UNL1        0.1457
     11 F          63.9183   83.0466   12.6954 F       1  UNL1       -0.2040
     12 N          63.1506   87.8194   13.0141 N.pl3   1  UNL1       -0.3040
     13 C          63.0519   89.0236   12.1707 C.3     1  UNL1        0.1122
     14 C          63.1080   90.2994   13.0116 C.3     1  UNL1        0.1122
     15 N          64.2530   90.2295   13.9262 N.pl3   1  UNL1       -0.3040
     16 C          64.4687   89.0201   14.7343 C.3     1  UNL1        0.1122
     17 C          63.4027   87.9499   14.4589 C.3     1  UNL1        0.1122
     18 C          65.2185   91.2963   13.9742 C.ar    1  UNL1        0.0496
     19 C          66.1489   91.3674   15.0247 C.ar    1  UNL1        0.0260
     20 C          67.0937   92.3987   15.0633 C.ar    1  UNL1        0.0597
     21 CL         68.2455   92.4837   16.3837 Cl      1  UNL1       -0.0822
     22 C          67.1190   93.3631   14.0512 C.ar    1  UNL1        0.0229
     23 C          66.2008   93.2973   12.9988 C.ar    1  UNL1        0.0597
     24 CL         66.2392   94.5025   11.7248 Cl      1  UNL1       -0.0822
     25 C          65.2548   92.2673   12.9587 C.ar    1  UNL1        0.0260
     26 C          60.8521   81.3636    8.8218 C.3     1  UNL1        0.1535
     27 C          60.4939   80.4147    9.9377 C.2     1  UNL1        0.2443
     28 O          61.2607   79.4502   10.2077 O.2     1  UNL1       -0.2730
     29 N          59.2961   80.6299   10.7007 N.am    1  UNL1       -0.2825
     30 H          58.5440   81.2170   10.2738 H       1  UNL1        0.1549
     31 C          59.0481   80.0574   11.9960 C.ar    1  UNL1        0.0535
     32 C          58.7573   78.6914   12.1553 C.ar    1  UNL1        0.0353
     33 C          58.5582   78.1745   13.4378 C.ar    1  UNL1        0.1002
     34 N          58.6585   78.9853   14.5240 N.ar    1  UNL1       -0.2422
     35 C          58.9561   80.3058   14.4013 C.ar    1  UNL1        0.1002
     36 C          59.1645   80.8625   13.1373 C.ar    1  UNL1        0.0353
     37 C          59.6177   81.6603    7.9489 C.3     1  UNL1        0.0569
     38 C          58.9628   82.9571    8.3345 C.ar    1  UNL1       -0.0017
     39 C          57.6989   83.1101    8.8971 C.ar    1  UNL1        0.0681
     40 N          57.3876   84.4215    9.0097 N.ar    1  UNL1       -0.3523
     41 C          58.4395   85.0967    8.5149 C.ar    1  UNL1        0.0563
     42 C          58.5750   86.4789    8.3936 C.ar    1  UNL1        0.0170
     43 C          59.7588   86.9756    7.8180 C.ar    1  UNL1        0.0015
     44 C          60.7674   86.0895    7.3780 C.ar    1  UNL1        0.0001
     45 C          60.6019   84.6988    7.5102 C.ar    1  UNL1        0.0012
     46 C          59.4199   84.2370    8.0896 C.ar    1  UNL1        0.0131
     47 H          56.5003   84.8229    9.3864 H       1  UNL1        0.1660
@<TRIPOS>BOND
     1     1     2    2
     2     2     3   am
     3     3    26    1
     4    26    37    1
     5    37    38    1
     6    38    39   ar
     7    39    40   ar
     8    40    41   ar
     9    41    42   ar
    10    42    43   ar
    11    43    44   ar
    12    44    45   ar
    13    45    46   ar
    14    26    27    1
    15    27    28    2
    16    27    29   am
    17    29    31    1
    18    31    32   ar
    19    32    33   ar
    20    33    34   ar
    21    34    35   ar
    22    35    36   ar
    23     2     5    1
    24     5     6   ar
    25     6     7   ar
    26     7     8   ar
    27     8    12    1
    28    12    13    1
    29    13    14    1
    30    14    15    1
    31    15    18    1
    32    18    19   ar
    33    19    20   ar
    34    20    21    1
    35    20    22   ar
    36    22    23   ar
    37    23    24    1
    38    23    25   ar
    39    15    16    1
    40    16    17    1
    41     8     9   ar
    42     9    10   ar
    43    10    11    1
    44    46    38   ar
    45    36    31   ar
    46    10     5   ar
    47    46    41   ar
    48    17    12    1
    49    25    18   ar
    50     3     4    1
    51    40    47    1
    52    29    30    1
@<TRIPOS>MOLECULE
*****
 47 52 0 0 0
SMALL
GASTEIGER

@<TRIPOS>ATOM
      1 O          61.2070   82.1464   11.4509 O.2     1  UNL1       -0.2701
      2 C          61.3035   83.1743   10.7258 C.2     1  UNL1        0.2483
      3 N          60.9835   83.0924    9.3275 N.am    1  UNL1       -0.2945
      4 H          61.2772   83.8737    8.6983 H       1  UNL1        0.1501
      5 C          61.7754   84.4427   11.3254 C.ar    1  UNL1        0.0808
      6 C          62.0624   84.4956   12.6988 C.ar    1  UNL1        0.0080
      7 C          62.5119   85.6807   13.2863 C.ar    1  UNL1        0.0148
      8 C          62.6759   86.8438   12.5147 C.ar    1  UNL1        0.0502
      9 C          62.3670   86.7966   11.1445 C.ar    1  UNL1        0.0443
     10 C          61.9189   85.6111   10.5530 C.ar    1  UNL1        0.1457
     11 F          61.5827   85.6260    9.2382 F       1  UNL1       -0.2040
     12 N          63.1340   88.0715   13.1219 N.pl3   1  UNL1       -0.3040
     13 C          62.9978   89.3373   12.3801 C.3     1  UNL1        0.1122
     14 C          63.2156   90.5447   13.2927 C.3     1  UNL1        0.1122
     15 N          64.4548   90.3603   14.0561 N.pl3   1  UNL1       -0.3040
     16 C          64.7028   89.0870   14.7486 C.3     1  UNL1        0.1122
     17 C          63.5596   88.0852   14.5314 C.3     1  UNL1        0.1122
     18 C          65.4715   91.3795   14.0598 C.ar    1  UNL1        0.0496
     19 C          66.4853   91.3700   15.0328 C.ar    1  UNL1        0.0260
     20 C          67.4789   92.3551   15.0277 C.ar    1  UNL1        0.0597
     21 CL         68.7353   92.3395   16.2519 Cl      1  UNL1       -0.0822
     22 C          67.4698   93.3535   14.0488 C.ar    1  UNL1        0.0229
     23 C          66.4683   93.3678   13.0732 C.ar    1  UNL1        0.0597
     24 CL         66.4631   94.6155   11.8401 Cl      1  UNL1       -0.0822
     25 C          65.4735   92.3842   13.0769 C.ar    1  UNL1        0.0260
     26 C          60.3261   81.9147    8.7509 C.3     1  UNL1        0.1535
     27 C          60.2605   80.8087    9.7737 C.2     1  UNL1        0.2443
     28 O          61.2734   80.0846    9.9764 O.2     1  UNL1       -0.2730
     29 N          59.0547   80.6035   10.5268 N.am    1  UNL1       -0.2825
     30 H          58.1638   80.9854   10.1357 H       1  UNL1        0.1549
     31 C          58.9873   79.8722   11.7627 C.ar    1  UNL1        0.0535
     32 C          59.2120   80.4961   13.0022 C.ar    1  UNL1        0.0353
     33 C          59.1009   79.7510   14.1786 C.ar    1  UNL1        0.1002
     34 N          58.7646   78.4351   14.1244 N.ar    1  UNL1       -0.2422
     35 C          58.5241   77.8103   12.9416 C.ar    1  UNL1        0.1002
     36 C          58.6226   78.5191   11.7420 C.ar    1  UNL1        0.0353
     37 C          58.9127   82.2762    8.2558 C.3     1  UNL1        0.0569
     38 C          58.4700   83.6178    8.7691 C.ar    1  UNL1       -0.0017
     39 C          58.4403   84.8096    8.0506 C.ar    1  UNL1        0.0681
     40 N          58.0944   85.8388    8.8570 N.ar    1  UNL1       -0.3523
     41 C          57.9148   85.3087   10.0793 C.ar    1  UNL1        0.0563
     42 C          57.5745   85.9832   11.2510 C.ar    1  UNL1        0.0170
     43 C          57.4633   85.2304   12.4344 C.ar    1  UNL1        0.0015
     44 C          57.6958   83.8370   12.4210 C.ar    1  UNL1        0.0001
     45 C          58.0409   83.1834   11.2240 C.ar    1  UNL1        0.0012
     46 C          58.1383   83.9556   10.0664 C.ar    1  UNL1        0.0131
     47 H          58.0062   86.8431    8.5852 H       1  UNL1        0.1660
@<TRIPOS>BOND
     1     1     2    2
     2     2     3   am
     3     3    26    1
     4    26    37    1
     5    37    38    1
     6    38    39   ar
     7    39    40   ar
     8    40    41   ar
     9    41    42   ar
    10    42    43   ar
    11    43    44   ar
    12    44    45   ar
    13    45    46   ar
    14    26    27    1
    15    27    28    2
    16    27    29   am
    17    29    31    1
    18    31    32   ar
    19    32    33   ar
    20    33    34   ar
    21    34    35   ar
    22    35    36   ar
    23     2     5    1
    24     5     6   ar
    25     6     7   ar
    26     7     8   ar
    27     8    12    1
    28    12    13    1
    29    13    14    1
    30    14    15    1
    31    15    18    1
    32    18    19   ar
    33    19    20   ar
    34    20    21    1
    35    20    22   ar
    36    22    23   ar
    37    23    24    1
    38    23    25   ar
    39    15    16    1
    40    16    17    1
    41     8     9   ar
    42     9    10   ar
    43    10    11    1
    44    46    38   ar
    45    36    31   ar
    46    10     5   ar
    47    46    41   ar
    48    17    12    1
    49    25    18   ar
    50     3     4    1
    51    40    47    1
    52    29    30    1
@<TRIPOS>MOLECULE
*****
 47 52 0 0 0
SMALL
GASTEIGER

@<TRIPOS>ATOM
      1 O          59.9228   85.4924    9.3578 O.2     1  UNL1       -0.2701
      2 C          59.6318   86.6829    9.6570 C.2     1  UNL1        0.2483
      3 N          59.1900   86.9955   10.9879 N.am    1  UNL1       -0.2945
      4 H          58.7418   87.9233   11.1637 H       1  UNL1        0.1501
      5 C          59.7222   87.7341    8.6187 C.ar    1  UNL1        0.0808
      6 C          59.1279   87.5224    7.3643 C.ar    1  UNL1        0.0080
      7 C          59.1978   88.5011    6.3699 C.ar    1  UNL1        0.0148
      8 C          59.8724   89.7115    6.6044 C.ar    1  UNL1        0.0502
      9 C          60.4865   89.9139    7.8521 C.ar    1  UNL1        0.0443
     10 C          60.4164   88.9369    8.8504 C.ar    1  UNL1        0.1457
     11 F          61.0686   89.1537   10.0207 F       1  UNL1       -0.2040
     12 N          59.9513   90.7216    5.5750 N.pl3   1  UNL1       -0.3040
     13 C          58.7081   91.2504    4.9871 C.3     1  UNL1        0.1122
     14 C          58.9700   92.5223    4.1797 C.3     1  UNL1        0.1122
     15 N          60.0872   92.2916    3.2572 N.pl3   1  UNL1       -0.3040
     16 C          61.3296   91.6815    3.7536 C.3     1  UNL1        0.1122
     17 C          61.2445   91.3458    5.2495 C.3     1  UNL1        0.1122
     18 C          59.9472   92.5731    1.8523 C.ar    1  UNL1        0.0496
     19 C          61.0785   92.8469    1.0651 C.ar    1  UNL1        0.0260
     20 C          60.9412   93.1090   -0.3024 C.ar    1  UNL1        0.0597
     21 CL         62.3589   93.4583   -1.2749 Cl      1  UNL1       -0.0822
     22 C          59.6744   93.0951   -0.8942 C.ar    1  UNL1        0.0229
     23 C          58.5435   92.8182   -0.1200 C.ar    1  UNL1        0.0597
     24 CL         56.9557   92.7919   -0.8651 Cl      1  UNL1       -0.0822
     25 C          58.6785   92.5564    1.2477 C.ar    1  UNL1        0.0260
     26 C          59.2827   86.0241   12.0831 C.3     1  UNL1        0.1535
     27 C          59.7414   86.7115   13.3443 C.2     1  UNL1        0.2443
     28 O          58.8906   87.2308   14.1175 O.2     1  UNL1       -0.2730
     29 N          61.1402   86.7485   13.6687 N.am    1  UNL1       -0.2825
     30 H          61.8254   86.6033   12.8928 H       1  UNL1        0.1549
     31 C          61.6592   87.0123   14.9832 C.ar    1  UNL1        0.0535
     32 C          61.5629   86.0657   16.0180 C.ar    1  UNL1        0.0353
     33 C          62.1136   86.3543   17.2690 C.ar    1  UNL1        0.1002
     34 N          62.7494   87.5372   17.4788 N.ar    1  UNL1       -0.2422
     35 C          62.8732   88.4634   16.4919 C.ar    1  UNL1        0.1002
     36 C          62.3386   88.2139   15.2258 C.ar    1  UNL1        0.0353
     37 C          57.9228   85.3357   12.3079 C.3     1  UNL1        0.0569
     38 C          57.9935   83.8605   12.0283 C.ar    1  UNL1       -0.0017
     39 C          58.3065   82.8593   12.9433 C.ar    1  UNL1        0.0681
     40 N          58.3870   81.6605   12.3226 N.ar    1  UNL1       -0.3523
     41 C          58.1370   81.8975   11.0231 C.ar    1  UNL1        0.0563
     42 C          58.1332   80.9716    9.9809 C.ar    1  UNL1        0.0170
     43 C          57.8703   81.4446    8.6822 C.ar    1  UNL1        0.0015
     44 C          57.6238   82.8172    8.4565 C.ar    1  UNL1        0.0001
     45 C          57.6371   83.7294    9.5273 C.ar    1  UNL1        0.0012
     46 C          57.8955   83.2297   10.8038 C.ar    1  UNL1        0.0131
     47 H          58.6173   80.7426   12.7640 H       1  UNL1        0.1660
@<TRIPOS>BOND
     1     1     2    2
     2     2     3   am
     3     3    26    1
     4    26    37    1
     5    37    38    1
     6    38    39   ar
     7    39    40   ar
     8    40    41   ar
     9    41    42   ar
    10    42    43   ar
    11    43    44   ar
    12    44    45   ar
    13    45    46   ar
    14    26    27    1
    15    27    28    2
    16    27    29   am
    17    29    31    1
    18    31    32   ar
    19    32    33   ar
    20    33    34   ar
    21    34    35   ar
    22    35    36   ar
    23     2     5    1
    24     5     6   ar
    25     6     7   ar
    26     7     8   ar
    27     8    12    1
    28    12    13    1
    29    13    14    1
    30    14    15    1
    31    15    18    1
    32    18    19   ar
    33    19    20   ar
    34    20    21    1
    35    20    22   ar
    36    22    23   ar
    37    23    24    1
    38    23    25   ar
    39    15    16    1
    40    16    17    1
    41     8     9   ar
    42     9    10   ar
    43    10    11    1
    44    46    38   ar
    45    36    31   ar
    46    10     5   ar
    47    46    41   ar
    48    17    12    1
    49    25    18   ar
    50     3     4    1
    51    40    47    1
    52    29    30    1
@<TRIPOS>MOLECULE
*****
 47 52 0 0 0
SMALL
GASTEIGER

@<TRIPOS>ATOM
      1 O          60.4164   85.4621    9.6179 O.2     1  UNL1       -0.2701
      2 C          59.8483   86.5690    9.8269 C.2     1  UNL1        0.2483
      3 N          59.1816   86.8026   11.0780 N.am    1  UNL1       -0.2945
      4 H          58.5318   87.6175   11.1565 H       1  UNL1        0.1501
      5 C          59.8534   87.5986    8.7635 C.ar    1  UNL1        0.0808
      6 C          60.5553   88.7982    8.9634 C.ar    1  UNL1        0.0080
      7 C          60.5768   89.7832    7.9730 C.ar    1  UNL1        0.0148
      8 C          59.8884   89.5948    6.7624 C.ar    1  UNL1        0.0502
      9 C          59.1673   88.4036    6.5716 C.ar    1  UNL1        0.0443
     10 C          59.1457   87.4148    7.5603 C.ar    1  UNL1        0.1457
     11 F          58.3936   86.3040    7.3540 F       1  UNL1       -0.2040
     12 N          59.9040   90.6150    5.7402 N.pl3   1  UNL1       -0.3040
     13 C          58.6390   91.0093    5.0958 C.3     1  UNL1        0.1122
     14 C          58.7974   92.3081    4.3046 C.3     1  UNL1        0.1122
     15 N          59.9747   92.2077    3.4350 N.pl3   1  UNL1       -0.3040
     16 C          61.2520   91.7332    3.9878 C.3     1  UNL1        0.1122
     17 C          61.1348   91.3792    5.4773 C.3     1  UNL1        0.1122
     18 C          59.8701   92.4827    2.0257 C.ar    1  UNL1        0.0496
     19 C          58.6192   92.4560    1.3863 C.ar    1  UNL1        0.0260
     20 C          58.5185   92.7346    0.0188 C.ar    1  UNL1        0.0597
     21 CL         56.9533   92.6902   -0.7721 Cl      1  UNL1       -0.0822
     22 C          59.6650   93.0462   -0.7184 C.ar    1  UNL1        0.0229
     23 C          60.9133   93.0807   -0.0895 C.ar    1  UNL1        0.0597
     24 CL         62.3499   93.4808   -1.0134 Cl      1  UNL1       -0.0822
     25 C          61.0163   92.8018    1.2775 C.ar    1  UNL1        0.0260
     26 C          59.3301   85.8905   12.2171 C.3     1  UNL1        0.1535
     27 C          59.8067   86.6518   13.4283 C.2     1  UNL1        0.2443
     28 O          58.9706   87.2518   14.1578 O.2     1  UNL1       -0.2730
     29 N          61.2050   86.6679   13.7565 N.am    1  UNL1       -0.2825
     30 H          61.8876   86.4460   12.9966 H       1  UNL1        0.1549
     31 C          61.7283   87.0088   15.0515 C.ar    1  UNL1        0.0535
     32 C          61.6183   86.1331   16.1454 C.ar    1  UNL1        0.0353
     33 C          62.1735   86.4942   17.3755 C.ar    1  UNL1        0.1002
     34 N          62.8268   87.6786   17.5084 N.ar    1  UNL1       -0.2422
     35 C          62.9640   88.5368   16.4635 C.ar    1  UNL1        0.1002
     36 C          62.4254   88.2135   15.2159 C.ar    1  UNL1        0.0353
     37 C          57.9952   85.1818   12.5163 C.3     1  UNL1        0.0569
     38 C          58.0288   83.7364   12.1052 C.ar    1  UNL1       -0.0017
     39 C          58.3187   82.6498   12.9253 C.ar    1  UNL1        0.0681
     40 N          58.3682   81.5099   12.1992 N.ar    1  UNL1       -0.3523
     41 C          58.1216   81.8688   10.9273 C.ar    1  UNL1        0.0563
     42 C          58.0927   81.0405    9.8062 C.ar    1  UNL1        0.0170
     43 C          57.8390   81.6345    8.5562 C.ar    1  UNL1        0.0015
     44 C          57.6262   83.0275    8.4557 C.ar    1  UNL1        0.0001
     45 C          57.6643   83.8393    9.6040 C.ar    1  UNL1        0.0012
     46 C          57.9127   83.2207   10.8294 C.ar    1  UNL1        0.0131
     47 H          58.5765   80.5507   12.5554 H       1  UNL1        0.1660
@<TRIPOS>BOND
     1     1     2    2
     2     2     3   am
     3     3    26    1
     4    26    37    1
     5    37    38    1
     6    38    39   ar
     7    39    40   ar
     8    40    41   ar
     9    41    42   ar
    10    42    43   ar
    11    43    44   ar
    12    44    45   ar
    13    45    46   ar
    14    26    27    1
    15    27    28    2
    16    27    29   am
    17    29    31    1
    18    31    32   ar
    19    32    33   ar
    20    33    34   ar
    21    34    35   ar
    22    35    36   ar
    23     2     5    1
    24     5     6   ar
    25     6     7   ar
    26     7     8   ar
    27     8    12    1
    28    12    13    1
    29    13    14    1
    30    14    15    1
    31    15    18    1
    32    18    19   ar
    33    19    20   ar
    34    20    21    1
    35    20    22   ar
    36    22    23   ar
    37    23    24    1
    38    23    25   ar
    39    15    16    1
    40    16    17    1
    41     8     9   ar
    42     9    10   ar
    43    10    11    1
    44    46    38   ar
    45    36    31   ar
    46    10     5   ar
    47    46    41   ar
    48    17    12    1
    49    25    18   ar
    50     3     4    1
    51    40    47    1
    52    29    30    1
@<TRIPOS>MOLECULE
*****
 47 52 0 0 0
SMALL
GASTEIGER

@<TRIPOS>ATOM
      1 O          58.9471   87.1595   10.8544 O.2     1  UNL1       -0.2701
      2 C          59.6345   86.8860    9.8325 C.2     1  UNL1        0.2483
      3 N          60.3489   85.6412    9.7665 N.am    1  UNL1       -0.2945
      4 H          61.0836   85.5218    9.0326 H       1  UNL1        0.1501
      5 C          59.7167   87.8699    8.7297 C.ar    1  UNL1        0.0808
      6 C          60.3884   89.0859    8.9341 C.ar    1  UNL1        0.0080
      7 C          60.4814   90.0285    7.9072 C.ar    1  UNL1        0.0148
      8 C          59.8961   89.7803    6.6539 C.ar    1  UNL1        0.0502
      9 C          59.2044   88.5729    6.4566 C.ar    1  UNL1        0.0443
     10 C          59.1115   87.6264    7.4820 C.ar    1  UNL1        0.1457
     11 F          58.3894   86.4982    7.2633 F       1  UNL1       -0.2040
     12 N          59.9855   90.7567    5.5934 N.pl3   1  UNL1       -0.3040
     13 C          58.7475   91.3006    5.0080 C.3     1  UNL1        0.1122
     14 C          59.0301   92.5404    4.1588 C.3     1  UNL1        0.1122
     15 N          60.1265   92.2526    3.2274 N.pl3   1  UNL1       -0.3040
     16 C          61.3600   91.6248    3.7238 C.3     1  UNL1        0.1122
     17 C          61.2893   91.3364    5.2303 C.3     1  UNL1        0.1122
     18 C          59.9722   92.4957    1.8168 C.ar    1  UNL1        0.0496
     19 C          58.6945   92.5084    1.2324 C.ar    1  UNL1        0.0260
     20 C          58.5461   92.7560   -0.1367 C.ar    1  UNL1        0.0597
     21 CL         56.9472   92.7612   -0.8585 Cl      1  UNL1       -0.0822
     22 C          59.6716   92.9971   -0.9305 C.ar    1  UNL1        0.0229
     23 C          60.9467   92.9919   -0.3568 C.ar    1  UNL1        0.0597
     24 CL         62.3573   93.3035   -1.3518 Cl      1  UNL1       -0.0822
     25 C          61.0973   92.7439    1.0119 C.ar    1  UNL1        0.0260
     26 C          60.1282   84.5687   10.7425 C.3     1  UNL1        0.1535
     27 C          60.6185   84.9998   12.1017 C.2     1  UNL1        0.2443
     28 O          61.8311   84.8370   12.4088 O.2     1  UNL1       -0.2730
     29 N          59.7080   85.6148   13.0269 N.am    1  UNL1       -0.2825
     30 H          58.6849   85.4546   12.8846 H       1  UNL1        0.1549
     31 C          60.1140   86.4026   14.1589 C.ar    1  UNL1        0.0535
     32 C          60.8035   85.8342   15.2440 C.ar    1  UNL1        0.0353
     33 C          61.2080   86.6476   16.3054 C.ar    1  UNL1        0.1002
     34 N          60.9476   87.9814   16.2814 N.ar    1  UNL1       -0.2422
     35 C          60.2987   88.5610   15.2372 C.ar    1  UNL1        0.1002
     36 C          59.8787   87.7842   14.1549 C.ar    1  UNL1        0.0353
     37 C          58.6350   84.1940   10.8014 C.3     1  UNL1        0.0569
     38 C          58.4103   82.7488   10.4548 C.ar    1  UNL1       -0.0017
     39 C          57.8725   82.2566    9.2691 C.ar    1  UNL1        0.0681
     40 N          57.7115   80.9159    9.3442 N.ar    1  UNL1       -0.3523
     41 C          58.1338   80.5592   10.5696 C.ar    1  UNL1        0.0563
     42 C          58.1377   79.2794   11.1225 C.ar    1  UNL1        0.0170
     43 C          58.6025   79.1349   12.4426 C.ar    1  UNL1        0.0015
     44 C          59.0443   80.2605   13.1732 C.ar    1  UNL1        0.0001
     45 C          59.0261   81.5407   12.5904 C.ar    1  UNL1        0.0012
     46 C          58.5649   81.6512   11.2785 C.ar    1  UNL1        0.0131
     47 H          57.3189   80.2914    8.6051 H       1  UNL1        0.1660
@<TRIPOS>BOND
     1     1     2    2
     2     2     3   am
     3     3    26    1
     4    26    37    1
     5    37    38    1
     6    38    39   ar
     7    39    40   ar
     8    40    41   ar
     9    41    42   ar
    10    42    43   ar
    11    43    44   ar
    12    44    45   ar
    13    45    46   ar
    14    26    27    1
    15    27    28    2
    16    27    29   am
    17    29    31    1
    18    31    32   ar
    19    32    33   ar
    20    33    34   ar
    21    34    35   ar
    22    35    36   ar
    23     2     5    1
    24     5     6   ar
    25     6     7   ar
    26     7     8   ar
    27     8    12    1
    28    12    13    1
    29    13    14    1
    30    14    15    1
    31    15    18    1
    32    18    19   ar
    33    19    20   ar
    34    20    21    1
    35    20    22   ar
    36    22    23   ar
    37    23    24    1
    38    23    25   ar
    39    15    16    1
    40    16    17    1
    41     8     9   ar
    42     9    10   ar
    43    10    11    1
    44    46    38   ar
    45    36    31   ar
    46    10     5   ar
    47    46    41   ar
    48    17    12    1
    49    25    18   ar
    50     3     4    1
    51    40    47    1
    52    29    30    1
