@<TRIPOS>MOLECULE
*****
 46 51 0 0 0
SMALL
GASTEIGER

@<TRIPOS>ATOM
      1 C          60.6248   86.8875    8.2978 C.ar    1  UNL1        0.0702
      2 C          61.8207   87.0874    8.9958 C.ar    1  UNL1        0.0191
      3 C          62.0270   86.4729   10.2318 C.ar    1  UNL1        0.0356
      4 C          61.0181   85.6626   10.7850 C.ar    1  UNL1        0.1318
      5 N          59.8527   85.5069   10.0953 N.ar    1  UNL1       -0.2279
      6 C          59.6314   86.0921    8.8888 C.ar    1  UNL1        0.1149
      7 N          61.1951   84.9991   12.0600 N.pl3   1  UNL1       -0.2932
      8 C          60.0774   84.2819   12.6947 C.3     1  UNL1        0.0923
      9 C          60.4750   82.8358   13.0346 C.3     1  UNL1        0.0252
     10 C          61.9577   82.6868   13.4741 C.3     1  UNL1        0.0472
     11 C          62.5584   84.0340   13.9132 C.3     1  UNL1        0.0252
     12 C          62.4939   85.0421   12.7563 C.3     1  UNL1        0.0923
     13 C          62.1113   81.6390   14.5862 C.3     1  UNL1        0.2054
     14 O          62.1423   80.3314   14.0170 O.3     1  UNL1       -0.4755
     15 C          61.6518   80.0080   12.7435 C.ar    1  UNL1        0.1388
     16 C          62.3712   80.2832   11.5659 C.ar    1  UNL1        0.0369
     17 C          61.8380   79.9403   10.3217 C.ar    1  UNL1        0.0033
     18 C          60.5883   79.3225   10.2372 C.ar    1  UNL1        0.0066
     19 C          59.8552   79.0400   11.4021 C.ar    1  UNL1        0.0785
     20 C          60.3990   79.3886   12.6524 C.ar    1  UNL1        0.0433
     21 C          58.5314   78.3855   11.3105 C.2     1  UNL1        0.3381
     22 O          58.2879   77.3409   11.9733 O.2     1  UNL1       -0.2451
     23 O          57.5403   78.9180   10.4897 O.3     1  UNL1       -0.4771
     24 H          56.6306   78.4778   10.4197 H       1  UNL1        0.2954
     25 C          59.8346   88.8513    6.8961 C.2     1  UNL1        0.2839
     26 O          59.2364   89.3867    7.8678 O.2     1  UNL1       -0.2665
     27 N          60.4180   87.5456    7.0361 N.am    1  UNL1       -0.2766
     28 H          60.6279   87.0066    6.1655 H       1  UNL1        0.1553
     29 C          61.6660   91.0053    2.9676 C.ar    1  UNL1        0.1730
     30 C          61.1352   91.6116    1.8043 C.ar    1  UNL1        0.0401
     31 C          59.7317   91.6835    1.5949 C.ar    1  UNL1        0.0032
     32 C          58.8551   91.1430    2.5640 C.ar    1  UNL1        0.0030
     33 C          59.4083   90.5526    3.6998 C.ar    1  UNL1        0.0367
     34 C          58.8260   89.9478    4.7974 C.ar    1  UNL1        0.0203
     35 C          57.3635   89.7616    5.0698 C.3     1  UNL1        0.0345
     36 C          59.9016   89.5479    5.5974 C.ar    1  UNL1        0.1948
     37 O          61.0417   89.8878    5.0236 O.2     1  UNL1       -0.4462
     38 C          60.7626   90.4869    3.8913 C.ar    1  UNL1        0.1788
     39 C          59.1882   92.3208    0.3686 C.ar    1  UNL1        0.0001
     40 C          57.8934   92.0077   -0.0870 C.ar    1  UNL1        0.0000
     41 C          57.3842   92.6100   -1.2416 C.ar    1  UNL1        0.0000
     42 C          58.1588   93.5286   -1.9532 C.ar    1  UNL1        0.0000
     43 C          59.4447   93.8477   -1.5114 C.ar    1  UNL1        0.0000
     44 C          59.9588   93.2492   -0.3569 C.ar    1  UNL1        0.0000
     45 C          64.0402   91.6221    2.5022 C.3     1  UNL1        0.2526
     46 O          63.0413   90.9089    3.2232 O.3     1  UNL1       -0.4684
@<TRIPOS>BOND
     1    45    46    1
     2    46    29    1
     3    29    30   ar
     4    30    31   ar
     5    31    39    1
     6    39    40   ar
     7    40    41   ar
     8    41    42   ar
     9    42    43   ar
    10    43    44   ar
    11    31    32   ar
    12    32    33   ar
    13    33    34   ar
    14    34    35    1
    15    34    36   ar
    16    36    25    1
    17    25    26    2
    18    25    27   am
    19    27     1    1
    20     1     2   ar
    21     2     3   ar
    22     3     4   ar
    23     4     7    1
    24     7     8    1
    25     8     9    1
    26     9    10    1
    27    10    13    1
    28    13    14    1
    29    14    15    1
    30    15    16   ar
    31    16    17   ar
    32    17    18   ar
    33    18    19   ar
    34    19    21    1
    35    21    22    2
    36    21    23    1
    37    19    20   ar
    38    10    11    1
    39    11    12    1
    40     4     5   ar
    41     5     6   ar
    42    36    37   ar
    43    37    38   ar
    44    38    29   ar
    45    44    39   ar
    46    38    33   ar
    47     6     1   ar
    48    12     7    1
    49    20    15   ar
    50    27    28    1
    51    23    24    1
@<TRIPOS>MOLECULE
*****
 46 51 0 0 0
SMALL
GASTEIGER

@<TRIPOS>ATOM
      1 C          59.2479   86.5686    7.9531 C.ar    1  UNL1        0.0702
      2 C          58.2738   85.5812    8.1357 C.ar    1  UNL1        0.0191
      3 C          58.3050   84.7597    9.2636 C.ar    1  UNL1        0.0356
      4 C          59.3331   84.9157   10.2118 C.ar    1  UNL1        0.1318
      5 N          60.2840   85.8679    9.9949 N.ar    1  UNL1       -0.2279
      6 C          60.2714   86.6815    8.9063 C.ar    1  UNL1        0.1149
      7 N          59.3973   84.0908   11.4004 N.pl3   1  UNL1       -0.2932
      8 C          58.1660   83.6484   12.0745 C.3     1  UNL1        0.0923
      9 C          58.1522   82.1203   12.2458 C.3     1  UNL1        0.0252
     10 C          59.5554   81.5145   12.5252 C.3     1  UNL1        0.0472
     11 C          60.5469   82.5820   13.0209 C.3     1  UNL1        0.0252
     12 C          60.6974   83.6907   11.9689 C.3     1  UNL1        0.0923
     13 C          59.4755   80.3478   13.5206 C.3     1  UNL1        0.2054
     14 O          60.4720   79.3765   13.2075 O.3     1  UNL1       -0.4755
     15 C          61.1917   79.3368   12.0045 C.ar    1  UNL1        0.1388
     16 C          61.0685   78.2775   11.0864 C.ar    1  UNL1        0.0369
     17 C          61.8078   78.2862    9.9018 C.ar    1  UNL1        0.0033
     18 C          62.6739   79.3450    9.6200 C.ar    1  UNL1        0.0066
     19 C          62.8103   80.4114   10.5247 C.ar    1  UNL1        0.0785
     20 C          62.0621   80.3956   11.7165 C.ar    1  UNL1        0.0433
     21 C          63.7284   81.5321   10.2243 C.2     1  UNL1        0.3381
     22 O          64.8942   81.5493   10.7045 O.2     1  UNL1       -0.2451
     23 O          63.3128   82.5805    9.4072 O.3     1  UNL1       -0.4771
     24 H          63.9333   83.3526    9.1953 H       1  UNL1        0.2954
     25 C          59.4201   88.8142    6.7812 C.2     1  UNL1        0.2839
     26 O          59.3887   89.4549    7.8661 O.2     1  UNL1       -0.2665
     27 N          59.2152   87.3920    6.7746 N.am    1  UNL1       -0.2766
     28 H          58.9432   86.9401    5.8722 H       1  UNL1        0.1553
     29 C          61.6677   90.8538    3.0109 C.ar    1  UNL1        0.1730
     30 C          61.2641   91.5402    1.8410 C.ar    1  UNL1        0.0401
     31 C          59.8886   91.7655    1.5652 C.ar    1  UNL1        0.0032
     32 C          58.9113   91.2982    2.4743 C.ar    1  UNL1        0.0030
     33 C          59.3402   90.6259    3.6183 C.ar    1  UNL1        0.0367
     34 C          58.6417   90.0605    4.6682 C.ar    1  UNL1        0.0203
     35 C          57.1556   90.0241    4.8631 C.3     1  UNL1        0.0345
     36 C          59.6267   89.5302    5.5080 C.ar    1  UNL1        0.1948
     37 O          60.8243   89.7608    5.0008 O.2     1  UNL1       -0.4462
     38 C          60.6684   90.4125    3.8739 C.ar    1  UNL1        0.1788
     39 C          59.4789   92.4854    0.3328 C.ar    1  UNL1        0.0001
     40 C          60.4308   93.1711   -0.4455 C.ar    1  UNL1        0.0000
     41 C          60.0419   93.8475   -1.6060 C.ar    1  UNL1        0.0000
     42 C          58.7027   93.8479   -2.0018 C.ar    1  UNL1        0.0000
     43 C          57.7489   93.1713   -1.2383 C.ar    1  UNL1        0.0000
     44 C          58.1321   92.4925   -0.0775 C.ar    1  UNL1        0.0000
     45 C          64.1045   91.3662    2.8294 C.3     1  UNL1        0.2526
     46 O          63.0103   90.6063    3.3307 O.3     1  UNL1       -0.4684
@<TRIPOS>BOND
     1    45    46    1
     2    46    29    1
     3    29    30   ar
     4    30    31   ar
     5    31    39    1
     6    39    40   ar
     7    40    41   ar
     8    41    42   ar
     9    42    43   ar
    10    43    44   ar
    11    31    32   ar
    12    32    33   ar
    13    33    34   ar
    14    34    35    1
    15    34    36   ar
    16    36    25    1
    17    25    26    2
    18    25    27   am
    19    27     1    1
    20     1     2   ar
    21     2     3   ar
    22     3     4   ar
    23     4     7    1
    24     7     8    1
    25     8     9    1
    26     9    10    1
    27    10    13    1
    28    13    14    1
    29    14    15    1
    30    15    16   ar
    31    16    17   ar
    32    17    18   ar
    33    18    19   ar
    34    19    21    1
    35    21    22    2
    36    21    23    1
    37    19    20   ar
    38    10    11    1
    39    11    12    1
    40     4     5   ar
    41     5     6   ar
    42    36    37   ar
    43    37    38   ar
    44    38    29   ar
    45    44    39   ar
    46    38    33   ar
    47     6     1   ar
    48    12     7    1
    49    20    15   ar
    50    27    28    1
    51    23    24    1
@<TRIPOS>MOLECULE
*****
 46 51 0 0 0
SMALL
GASTEIGER

@<TRIPOS>ATOM
      1 C          60.1860   89.5698    5.7167 C.ar    1  UNL1        0.0702
      2 C          58.8899   90.0405    5.4800 C.ar    1  UNL1        0.0191
      3 C          58.6008   90.7559    4.3170 C.ar    1  UNL1        0.0356
      4 C          59.6241   91.0190    3.3875 C.ar    1  UNL1        0.1318
      5 N          60.8832   90.5714    3.6566 N.ar    1  UNL1       -0.2279
      6 C          61.1869   89.8697    4.7802 C.ar    1  UNL1        0.1149
      7 N          59.3650   91.7492    2.1640 N.pl3   1  UNL1       -0.2932
      8 C          59.4454   93.2186    2.1353 C.3     1  UNL1        0.0923
      9 C          60.3942   93.6952    1.0229 C.3     1  UNL1        0.0252
     10 C          60.3521   92.8074   -0.2513 C.3     1  UNL1        0.0472
     11 C          59.0742   91.9513   -0.3056 C.3     1  UNL1        0.0252
     12 C          58.9996   91.0369    0.9260 C.3     1  UNL1        0.0923
     13 C          60.4924   93.6496   -1.5278 C.3     1  UNL1        0.2054
     14 O          61.8372   93.5914   -1.9996 O.3     1  UNL1       -0.4755
     15 C          62.8794   92.9176   -1.3463 C.ar    1  UNL1        0.1388
     16 C          63.6984   91.9794   -2.0013 C.ar    1  UNL1        0.0369
     17 C          64.7236   91.3359   -1.3050 C.ar    1  UNL1        0.0033
     18 C          64.9432   91.6185    0.0450 C.ar    1  UNL1        0.0066
     19 C          64.1355   92.5521    0.7159 C.ar    1  UNL1        0.0785
     20 C          63.1043   93.1965    0.0077 C.ar    1  UNL1        0.0433
     21 C          64.3697   92.8500    2.1462 C.2     1  UNL1        0.3381
     22 O          65.2772   93.6547    2.4910 O.2     1  UNL1       -0.2451
     23 O          63.5888   92.2432    3.1267 O.3     1  UNL1       -0.4771
     24 H          63.7408   92.4401    4.1087 H       1  UNL1        0.2954
     25 C          59.7485   87.6939    7.3706 C.2     1  UNL1        0.2839
     26 O          58.6486   87.3915    6.8346 O.2     1  UNL1       -0.2665
     27 N          60.4732   88.8540    6.9303 N.am    1  UNL1       -0.2766
     28 H          61.1975   89.2517    7.5705 H       1  UNL1        0.1553
     29 C          61.6666   86.5301   11.6594 C.ar    1  UNL1        0.1730
     30 C          62.0208   85.3289   12.3184 C.ar    1  UNL1        0.0401
     31 C          61.8251   84.0684   11.6925 C.ar    1  UNL1        0.0032
     32 C          61.2705   84.0158   10.3927 C.ar    1  UNL1        0.0030
     33 C          60.9322   85.2163    9.7691 C.ar    1  UNL1        0.0367
     34 C          60.3813   85.4853    8.5306 C.ar    1  UNL1        0.0203
     35 C          59.9846   84.4995    7.4730 C.3     1  UNL1        0.0345
     36 C          60.2756   86.8793    8.4819 C.ar    1  UNL1        0.1948
     37 O          60.7294   87.4060    9.6051 O.2     1  UNL1       -0.4462
     38 C          61.1233   86.4259   10.3818 C.ar    1  UNL1        0.1788
     39 C          62.1993   82.8155   12.3963 C.ar    1  UNL1        0.0001
     40 C          62.1471   81.5768   11.7292 C.ar    1  UNL1        0.0000
     41 C          62.5009   80.3989   12.3945 C.ar    1  UNL1        0.0000
     42 C          62.9091   80.4431   13.7293 C.ar    1  UNL1        0.0000
     43 C          62.9652   81.6657   14.4020 C.ar    1  UNL1        0.0000
     44 C          62.6135   82.8469   13.7415 C.ar    1  UNL1        0.0000
     45 C          63.0792   88.4971   12.2667 C.3     1  UNL1        0.2526
     46 O          61.8395   87.7987   12.2311 O.3     1  UNL1       -0.4684
@<TRIPOS>BOND
     1    45    46    1
     2    46    29    1
     3    29    30   ar
     4    30    31   ar
     5    31    39    1
     6    39    40   ar
     7    40    41   ar
     8    41    42   ar
     9    42    43   ar
    10    43    44   ar
    11    31    32   ar
    12    32    33   ar
    13    33    34   ar
    14    34    35    1
    15    34    36   ar
    16    36    25    1
    17    25    26    2
    18    25    27   am
    19    27     1    1
    20     1     2   ar
    21     2     3   ar
    22     3     4   ar
    23     4     7    1
    24     7     8    1
    25     8     9    1
    26     9    10    1
    27    10    13    1
    28    13    14    1
    29    14    15    1
    30    15    16   ar
    31    16    17   ar
    32    17    18   ar
    33    18    19   ar
    34    19    21    1
    35    21    22    2
    36    21    23    1
    37    19    20   ar
    38    10    11    1
    39    11    12    1
    40     4     5   ar
    41     5     6   ar
    42    36    37   ar
    43    37    38   ar
    44    38    29   ar
    45    44    39   ar
    46    38    33   ar
    47     6     1   ar
    48    12     7    1
    49    20    15   ar
    50    27    28    1
    51    23    24    1
