@<TRIPOS>MOLECULE
*****
 40 44 0 0 0
SMALL
GASTEIGER

@<TRIPOS>ATOM
      1 C          50.1371   11.9824  -22.0044 C.2     1  UNL1        0.2506
      2 O          51.0875   11.2606  -22.4125 O.2     1  UNL1       -0.2699
      3 N          49.3049   12.6797  -22.9518 N.am    1  UNL1       -0.2680
      4 C          48.8164   14.0280  -22.6469 C.3     1  UNL1        0.1412
      5 C          47.3555   13.9703  -22.2051 C.3     1  UNL1        0.2268
      6 O          46.6696   12.8718  -22.8035 O.3     1  UNL1       -0.4739
      7 C          46.6321   12.6732  -24.1861 C.ar    1  UNL1        0.1362
      8 C          45.3909   12.7367  -24.8257 C.ar    1  UNL1        0.0366
      9 C          45.2941   12.5783  -26.2077 C.ar    1  UNL1        0.0031
     10 C          46.4423   12.3374  -26.9777 C.ar    1  UNL1       -0.0000
     11 C          47.6876   12.2446  -26.3324 C.ar    1  UNL1        0.0004
     12 C          47.8024   12.4109  -24.9408 C.ar    1  UNL1        0.0317
     13 C          49.1640   12.1542  -24.3164 C.3     1  UNL1        0.1236
     14 C          46.3414   12.1657  -28.4493 C.ar    1  UNL1        0.0015
     15 C          46.5398   10.8859  -29.0394 C.ar    1  UNL1        0.0016
     16 C          46.4458   10.7111  -30.4328 C.ar    1  UNL1        0.0206
     17 C          46.1537   11.8284  -31.2076 C.ar    1  UNL1        0.0985
     18 N          46.0156   11.8908  -32.5441 N.ar    1  UNL1       -0.2241
     19 C          45.7349   13.2035  -32.7576 C.ar    1  UNL1        0.1750
     20 N          45.6955   13.9398  -31.6210 N.ar    1  UNL1       -0.3349
     21 C          45.9630   13.0557  -30.6528 C.ar    1  UNL1        0.0757
     22 C          46.0468   13.2741  -29.2806 C.ar    1  UNL1        0.0185
     23 H          45.5010   14.9613  -31.5262 H       1  UNL1        0.1675
     24 C          50.8982   12.3559  -19.6256 C.ar    1  UNL1        0.0503
     25 C          50.5801   12.3801  -18.2547 C.ar    1  UNL1        0.0329
     26 C          49.2741   12.1387  -17.7985 C.ar    1  UNL1        0.1097
     27 C          48.2602   11.8251  -18.7365 C.ar    1  UNL1        0.0520
     28 C          48.5775   11.8020  -20.1026 C.ar    1  UNL1        0.0099
     29 C          49.8745   12.0695  -20.5546 C.ar    1  UNL1        0.0668
     30 S          48.9329   12.2872  -16.0611 S.O2    1  UNL1        0.0106
     31 C          50.4057   12.5979  -15.1055 C.3     1  UNL1        0.1816
     32 O          48.2983   11.0181  -15.5665 O.2     1  UNL1       -0.1686
     33 O          47.9976   13.4408  -15.8281 O.2     1  UNL1       -0.1686
     34 C          46.8737   11.4898  -18.3295 C.2     1  UNL1        0.1747
     35 C          45.6979   12.1711  -18.9596 C.3     1  UNL1        0.0773
     36 O          46.6665   10.5669  -17.4971 O.2     1  UNL1       -0.2913
     37 N          52.2355   12.6663  -20.0778 N.pl3   1  UNL1       -0.3325
     38 H          52.9063   11.8840  -20.2498 H       1  UNL1        0.1468
     39 C          52.7574   14.3621  -21.7914 C.3     1  UNL1        0.0229
     40 C          52.7087   14.0348  -20.3020 C.3     1  UNL1        0.0871
@<TRIPOS>BOND
     1    39    40    1
     2    40    37    1
     3    37    24    1
     4    24    25   ar
     5    25    26   ar
     6    26    30    1
     7    30    31    1
     8    30    32    2
     9    30    33    2
    10    26    27   ar
    11    27    34    1
    12    34    35    1
    13    34    36    2
    14    27    28   ar
    15    28    29   ar
    16    29     1    1
    17     1     2    2
    18     1     3   am
    19     3     4    1
    20     4     5    1
    21     5     6    1
    22     6     7    1
    23     7     8   ar
    24     8     9   ar
    25     9    10   ar
    26    10    14    1
    27    14    15   ar
    28    15    16   ar
    29    16    17   ar
    30    17    18   ar
    31    18    19   ar
    32    19    20   ar
    33    20    21   ar
    34    21    22   ar
    35    10    11   ar
    36    11    12   ar
    37    12    13    1
    38    29    24   ar
    39    13     3    1
    40    12     7   ar
    41    22    14   ar
    42    21    17   ar
    43    37    38    1
    44    20    23    1
@<TRIPOS>MOLECULE
*****
 40 44 0 0 0
SMALL
GASTEIGER

@<TRIPOS>ATOM
      1 C          48.5402   11.0965  -20.4215 C.2     1  UNL1        0.2506
      2 O          48.4405    9.8402  -20.4744 O.2     1  UNL1       -0.2699
      3 N          48.6841   11.8586  -21.6358 N.am    1  UNL1       -0.2680
      4 C          49.5605   13.0337  -21.6655 C.3     1  UNL1        0.1412
      5 C          48.7284   14.3120  -21.5851 C.3     1  UNL1        0.2268
      6 O          47.4341   14.1322  -22.1575 O.3     1  UNL1       -0.4739
      7 C          47.2479   13.6671  -23.4618 C.ar    1  UNL1        0.1362
      8 C          46.6372   14.5221  -24.3835 C.ar    1  UNL1        0.0366
      9 C          46.4532   14.1258  -25.7077 C.ar    1  UNL1        0.0031
     10 C          46.8659   12.8537  -26.1329 C.ar    1  UNL1       -0.0000
     11 C          47.4541   11.9819  -25.2002 C.ar    1  UNL1        0.0004
     12 C          47.6544   12.3704  -23.8637 C.ar    1  UNL1        0.0317
     13 C          48.1666   11.3143  -22.8983 C.3     1  UNL1        0.1236
     14 C          46.6685   12.4283  -27.5418 C.ar    1  UNL1        0.0015
     15 C          46.8394   11.0649  -27.9122 C.ar    1  UNL1        0.0016
     16 C          46.6543   10.6500  -29.2444 C.ar    1  UNL1        0.0206
     17 C          46.3001   11.6158  -30.1803 C.ar    1  UNL1        0.0985
     18 N          46.0724   11.4446  -31.4949 N.ar    1  UNL1       -0.2241
     19 C          45.7653   12.7006  -31.9141 C.ar    1  UNL1        0.1750
     20 N          45.7948   13.6237  -30.9230 N.ar    1  UNL1       -0.3349
     21 C          46.1351   12.9214  -29.8360 C.ar    1  UNL1        0.0757
     22 C          46.3082   13.3754  -28.5315 C.ar    1  UNL1        0.0185
     23 H          45.5971   14.6465  -30.9944 H       1  UNL1        0.1675
     24 C          47.3949   12.6084  -18.7541 C.ar    1  UNL1        0.0503
     25 C          47.4197   13.2469  -17.5001 C.ar    1  UNL1        0.0329
     26 C          48.4788   13.0552  -16.5981 C.ar    1  UNL1        0.1097
     27 C          49.5673   12.2305  -16.9738 C.ar    1  UNL1        0.0520
     28 C          49.5417   11.5936  -18.2233 C.ar    1  UNL1        0.0099
     29 C          48.4714   11.7663  -19.1081 C.ar    1  UNL1        0.0668
     30 S          48.3867   13.8165  -14.9952 S.O2    1  UNL1        0.0106
     31 C          47.2805   15.2144  -14.9716 C.3     1  UNL1        0.1816
     32 O          49.7554   14.2802  -14.5832 O.2     1  UNL1       -0.1686
     33 O          47.8706   12.8213  -13.9937 O.2     1  UNL1       -0.1686
     34 C          50.7546   12.0335  -16.1069 C.2     1  UNL1        0.1747
     35 C          52.0351   12.7636  -16.3735 C.3     1  UNL1        0.0773
     36 O          50.6744   11.3017  -15.0843 O.2     1  UNL1       -0.2913
     37 N          46.2666   12.7718  -19.6426 N.pl3   1  UNL1       -0.3325
     38 H          46.2057   13.6333  -20.2307 H       1  UNL1        0.1468
     39 C          44.0406   12.1161  -18.8065 C.3     1  UNL1        0.0229
     40 C          45.1873   11.7875  -19.7577 C.3     1  UNL1        0.0871
@<TRIPOS>BOND
     1    39    40    1
     2    40    37    1
     3    37    24    1
     4    24    25   ar
     5    25    26   ar
     6    26    30    1
     7    30    31    1
     8    30    32    2
     9    30    33    2
    10    26    27   ar
    11    27    34    1
    12    34    35    1
    13    34    36    2
    14    27    28   ar
    15    28    29   ar
    16    29     1    1
    17     1     2    2
    18     1     3   am
    19     3     4    1
    20     4     5    1
    21     5     6    1
    22     6     7    1
    23     7     8   ar
    24     8     9   ar
    25     9    10   ar
    26    10    14    1
    27    14    15   ar
    28    15    16   ar
    29    16    17   ar
    30    17    18   ar
    31    18    19   ar
    32    19    20   ar
    33    20    21   ar
    34    21    22   ar
    35    10    11   ar
    36    11    12   ar
    37    12    13    1
    38    29    24   ar
    39    13     3    1
    40    12     7   ar
    41    22    14   ar
    42    21    17   ar
    43    37    38    1
    44    20    23    1
