@<TRIPOS>MOLECULE
*****
 45 50 0 0 0
SMALL
GASTEIGER

@<TRIPOS>ATOM
      1 C          -7.3758  -14.3583   27.6152 C.ar    1  UNL1        0.0702
      2 C          -6.8032  -13.3152   28.3512 C.ar    1  UNL1        0.0191
      3 C          -7.5604  -12.6199   29.2952 C.ar    1  UNL1        0.0356
      4 C          -8.9110  -12.9605   29.4930 C.ar    1  UNL1        0.1319
      5 N          -9.4506  -13.9627   28.7433 N.ar    1  UNL1       -0.2279
      6 C          -8.7316  -14.6557   27.8215 C.ar    1  UNL1        0.1149
      7 N          -9.7277  -12.2717   30.4692 N.pl3   1  UNL1       -0.2904
      8 C         -11.1683  -12.0668   30.2345 C.3     1  UNL1        0.0925
      9 C         -11.7611  -11.0240   31.1942 C.3     1  UNL1        0.0280
     10 C         -10.8057   -9.8242   31.3242 C.3     1  UNL1        0.0797
     11 C          -9.4169  -10.2539   31.8777 C.3     1  UNL1        0.1842
     12 F          -8.4266   -9.5347   31.2283 F       1  UNL1       -0.2353
     13 C          -9.1363  -11.7587   31.7151 C.3     1  UNL1        0.1274
     14 C         -11.4421   -8.7215   32.1927 C.3     1  UNL1        0.2081
     15 O         -11.8809   -7.6235   31.3905 O.3     1  UNL1       -0.4754
     16 C         -11.0531   -6.6329   30.8372 C.ar    1  UNL1        0.1388
     17 C         -11.5512   -5.4132   30.3413 C.ar    1  UNL1        0.0369
     18 C         -10.6791   -4.4667   29.8000 C.ar    1  UNL1        0.0033
     19 C          -9.3069   -4.7206   29.7495 C.ar    1  UNL1        0.0066
     20 C          -8.7899   -5.9292   30.2447 C.ar    1  UNL1        0.0785
     21 C          -9.6748   -6.8782   30.7890 C.ar    1  UNL1        0.0433
     22 C          -7.3354   -6.1960   30.1919 C.2     1  UNL1        0.3381
     23 O          -6.5136   -5.3462   30.6305 O.2     1  UNL1       -0.2451
     24 O          -6.8598   -7.3903   29.6564 O.3     1  UNL1       -0.4771
     25 H          -5.8662   -7.5830   29.6156 H       1  UNL1        0.2954
     26 C          -6.8984  -15.0767   25.2275 C.2     1  UNL1        0.2839
     27 O          -8.0293  -14.6978   24.8198 O.2     1  UNL1       -0.2665
     28 N          -6.5890  -15.0505   26.6305 N.am    1  UNL1       -0.2766
     29 H          -5.7934  -15.6383   26.9681 H       1  UNL1        0.1553
     30 C          -4.2985  -16.8269   25.8987 C.3     1  UNL1        0.0345
     31 C          -4.7661  -16.3526   24.5558 C.ar    1  UNL1        0.0202
     32 C          -5.9019  -15.5876   24.2670 C.ar    1  UNL1        0.1946
     33 O          -5.9813  -15.3693   22.9664 O.2     1  UNL1       -0.4492
     34 C          -4.9553  -15.9527   22.3967 C.ar    1  UNL1        0.1452
     35 C          -4.6446  -15.9789   21.0416 C.ar    1  UNL1        0.0375
     36 C          -3.4876  -16.6702   20.6428 C.ar    1  UNL1        0.0031
     37 C          -2.6624  -17.3221   21.5988 C.ar    1  UNL1        0.0002
     38 C          -3.0144  -17.2707   22.9690 C.ar    1  UNL1        0.0028
     39 C          -4.1696  -16.5751   23.3295 C.ar    1  UNL1        0.0337
     40 C          -1.4426  -18.0497   21.1656 C.ar    1  UNL1        0.0000
     41 C          -0.5368  -17.4562   20.2657 C.ar    1  UNL1        0.0000
     42 C           0.6106  -18.1442   19.8588 C.ar    1  UNL1        0.0000
     43 C           0.8671  -19.4284   20.3441 C.ar    1  UNL1        0.0000
     44 C          -0.0235  -20.0278   21.2373 C.ar    1  UNL1        0.0000
     45 C          -1.1728  -19.3450   21.6470 C.ar    1  UNL1        0.0000
@<TRIPOS>BOND
     1    30    31    1
     2    31    32   ar
     3    32    26    1
     4    26    27    2
     5    26    28   am
     6    28     1    1
     7     1     2   ar
     8     2     3   ar
     9     3     4   ar
    10     4     7    1
    11     7     8    1
    12     8     9    1
    13     9    10    1
    14    10    14    1
    15    14    15    1
    16    15    16    1
    17    16    17   ar
    18    17    18   ar
    19    18    19   ar
    20    19    20   ar
    21    20    22    1
    22    22    23    2
    23    22    24    1
    24    20    21   ar
    25    10    11    1
    26    11    12    1
    27    11    13    1
    28     4     5   ar
    29     5     6   ar
    30    32    33   ar
    31    33    34   ar
    32    34    35   ar
    33    35    36   ar
    34    36    37   ar
    35    37    40    1
    36    40    41   ar
    37    41    42   ar
    38    42    43   ar
    39    43    44   ar
    40    44    45   ar
    41    37    38   ar
    42    38    39   ar
    43    39    31   ar
    44     6     1   ar
    45    39    34   ar
    46    13     7    1
    47    45    40   ar
    48    21    16   ar
    49    28    29    1
    50    24    25    1
@<TRIPOS>MOLECULE
*****
 45 50 0 0 0
SMALL
GASTEIGER

@<TRIPOS>ATOM
      1 C          -7.2551  -14.5349   27.4212 C.ar    1  UNL1        0.0702
      2 C          -6.6434  -13.5348   28.1849 C.ar    1  UNL1        0.0191
      3 C          -7.3863  -12.8016   29.1115 C.ar    1  UNL1        0.0356
      4 C          -8.7608  -13.0600   29.2636 C.ar    1  UNL1        0.1319
      5 N          -9.3366  -14.0212   28.4876 N.ar    1  UNL1       -0.2279
      6 C          -8.6324  -14.7499   27.5820 C.ar    1  UNL1        0.1149
      7 N          -9.5644  -12.3299   30.2204 N.pl3   1  UNL1       -0.2904
      8 C         -10.9359  -11.9074   29.8839 C.3     1  UNL1        0.0925
      9 C         -11.4692  -10.8584   30.8712 C.3     1  UNL1        0.0280
     10 C         -10.3767   -9.8177   31.1757 C.3     1  UNL1        0.0797
     11 C          -9.1166  -10.4765   31.8066 C.3     1  UNL1        0.1842
     12 F          -7.9818   -9.8627   31.3014 F       1  UNL1       -0.2353
     13 C          -9.0282  -11.9913   31.5481 C.3     1  UNL1        0.1274
     14 C         -10.9365   -8.6972   32.0736 C.3     1  UNL1        0.2081
     15 O         -10.7354   -7.4132   31.4800 O.3     1  UNL1       -0.4754
     16 C          -9.4904   -6.8072   31.2443 C.ar    1  UNL1        0.1388
     17 C          -9.3020   -5.8059   30.2729 C.ar    1  UNL1        0.0369
     18 C          -8.0392   -5.2416   30.0820 C.ar    1  UNL1        0.0033
     19 C          -6.9552   -5.6628   30.8548 C.ar    1  UNL1        0.0066
     20 C          -7.1243   -6.6563   31.8333 C.ar    1  UNL1        0.0785
     21 C          -8.3998   -7.2203   32.0202 C.ar    1  UNL1        0.0433
     22 C          -5.9749   -7.1003   32.6526 C.2     1  UNL1        0.3381
     23 O          -4.9345   -6.3922   32.7307 O.2     1  UNL1       -0.2451
     24 O          -6.0316   -8.3066   33.3462 O.3     1  UNL1       -0.4771
     25 H          -5.2504   -8.6199   33.9099 H       1  UNL1        0.2954
     26 C          -6.6703  -15.1698   25.0337 C.2     1  UNL1        0.2839
     27 O          -7.7051  -14.6218   24.5669 O.2     1  UNL1       -0.2665
     28 N          -6.4812  -15.2664   26.4548 N.am    1  UNL1       -0.2766
     29 H          -5.7984  -15.9728   26.8116 H       1  UNL1        0.1553
     30 C          -4.1363  -16.9583   25.8421 C.3     1  UNL1        0.0345
     31 C          -4.5612  -16.5330   24.4688 C.ar    1  UNL1        0.0202
     32 C          -5.6683  -15.7511   24.1202 C.ar    1  UNL1        0.1946
     33 O          -5.7134  -15.5902   22.8096 O.2     1  UNL1       -0.4492
     34 C          -4.6923  -16.2269   22.2902 C.ar    1  UNL1        0.1452
     35 C          -4.3534  -16.3233   20.9451 C.ar    1  UNL1        0.0375
     36 C          -3.2082  -17.0636   20.6043 C.ar    1  UNL1        0.0031
     37 C          -2.4226  -17.6935   21.6072 C.ar    1  UNL1        0.0002
     38 C          -2.8025  -17.5702   22.9654 C.ar    1  UNL1        0.0028
     39 C          -3.9450  -16.8275   23.2677 C.ar    1  UNL1        0.0337
     40 C          -1.2150  -18.4733   21.2351 C.ar    1  UNL1        0.0000
     41 C          -0.2505  -17.9281   20.3662 C.ar    1  UNL1        0.0000
     42 C           0.8853  -18.6651   20.0168 C.ar    1  UNL1        0.0000
     43 C           1.0718  -19.9508   20.5293 C.ar    1  UNL1        0.0000
     44 C           0.1226  -20.5026   21.3924 C.ar    1  UNL1        0.0000
     45 C          -1.0155  -19.7707   21.7445 C.ar    1  UNL1        0.0000
@<TRIPOS>BOND
     1    30    31    1
     2    31    32   ar
     3    32    26    1
     4    26    27    2
     5    26    28   am
     6    28     1    1
     7     1     2   ar
     8     2     3   ar
     9     3     4   ar
    10     4     7    1
    11     7     8    1
    12     8     9    1
    13     9    10    1
    14    10    14    1
    15    14    15    1
    16    15    16    1
    17    16    17   ar
    18    17    18   ar
    19    18    19   ar
    20    19    20   ar
    21    20    22    1
    22    22    23    2
    23    22    24    1
    24    20    21   ar
    25    10    11    1
    26    11    12    1
    27    11    13    1
    28     4     5   ar
    29     5     6   ar
    30    32    33   ar
    31    33    34   ar
    32    34    35   ar
    33    35    36   ar
    34    36    37   ar
    35    37    40    1
    36    40    41   ar
    37    41    42   ar
    38    42    43   ar
    39    43    44   ar
    40    44    45   ar
    41    37    38   ar
    42    38    39   ar
    43    39    31   ar
    44     6     1   ar
    45    39    34   ar
    46    13     7    1
    47    45    40   ar
    48    21    16   ar
    49    28    29    1
    50    24    25    1
@<TRIPOS>MOLECULE
*****
 45 50 0 0 0
SMALL
GASTEIGER

@<TRIPOS>ATOM
      1 C          -6.9101  -13.5901   28.0890 C.ar    1  UNL1        0.0702
      2 C          -6.3499  -12.5039   28.7702 C.ar    1  UNL1        0.0191
      3 C          -7.1105  -11.7801   29.6897 C.ar    1  UNL1        0.0356
      4 C          -8.4523  -12.1361   29.9177 C.ar    1  UNL1        0.1319
      5 N          -8.9804  -13.1815   29.2205 N.ar    1  UNL1       -0.2279
      6 C          -8.2578  -13.9027   28.3235 C.ar    1  UNL1        0.1149
      7 N          -9.2720  -11.4184   30.8702 N.pl3   1  UNL1       -0.2904
      8 C          -9.2528  -11.7769   32.2998 C.3     1  UNL1        0.0925
      9 C         -10.4330  -11.1546   33.0610 C.3     1  UNL1        0.0280
     10 C         -11.7236  -11.2880   32.2327 C.3     1  UNL1        0.0797
     11 C         -11.6014  -10.5666   30.8599 C.3     1  UNL1        0.1842
     12 F         -12.2369  -11.3249   29.8900 F       1  UNL1       -0.2353
     13 C         -10.1442  -10.3177   30.4310 C.3     1  UNL1        0.1274
     14 C         -12.9336  -10.7716   33.0353 C.3     1  UNL1        0.2081
     15 O         -13.5796  -11.8367   33.7351 O.3     1  UNL1       -0.4754
     16 C         -13.0471  -13.1196   33.9436 C.ar    1  UNL1        0.1388
     17 C         -12.2207  -13.4328   35.0394 C.ar    1  UNL1        0.0369
     18 C         -11.7185  -14.7264   35.1929 C.ar    1  UNL1        0.0033
     19 C         -12.0345  -15.7198   34.2638 C.ar    1  UNL1        0.0066
     20 C         -12.8625  -15.4285   33.1671 C.ar    1  UNL1        0.0785
     21 C         -13.3651  -14.1226   33.0189 C.ar    1  UNL1        0.0433
     22 C         -13.1978  -16.4827   32.1843 C.2     1  UNL1        0.3381
     23 O         -12.9551  -16.3139   30.9585 O.2     1  UNL1       -0.2451
     24 O         -13.7857  -17.6730   32.6048 O.3     1  UNL1       -0.4771
     25 H         -14.0193  -18.4011   31.9404 H       1  UNL1        0.2954
     26 C          -6.6618  -14.9562   25.9636 C.2     1  UNL1        0.2839
     27 O          -7.9050  -15.1356   25.8578 O.2     1  UNL1       -0.2665
     28 N          -6.1203  -14.3122   27.1283 N.am    1  UNL1       -0.2766
     29 H          -5.1048  -14.4472   27.3356 H       1  UNL1        0.1553
     30 C          -4.2282  -17.0118   26.3166 C.3     1  UNL1        0.0345
     31 C          -4.6913  -16.3426   25.0578 C.ar    1  UNL1        0.0202
     32 C          -5.7543  -15.4447   24.9080 C.ar    1  UNL1        0.1946
     33 O          -5.8554  -15.0704   23.6450 O.2     1  UNL1       -0.4492
     34 C          -4.9125  -15.6788   22.9679 C.ar    1  UNL1        0.1452
     35 C          -4.6519  -15.5770   21.6058 C.ar    1  UNL1        0.0375
     36 C          -3.5838  -16.3244   21.0804 C.ar    1  UNL1        0.0031
     37 C          -2.7958  -17.1583   21.9191 C.ar    1  UNL1        0.0002
     38 C          -3.0944  -17.2329   23.3009 C.ar    1  UNL1        0.0028
     39 C          -4.1617  -16.4771   23.7887 C.ar    1  UNL1        0.0337
     40 C          -1.6700  -17.9434   21.3526 C.ar    1  UNL1        0.0000
     41 C          -0.8748  -17.4117   20.3195 C.ar    1  UNL1        0.0000
     42 C           0.1842  -18.1537   19.7874 C.ar    1  UNL1        0.0000
     43 C           0.4617  -19.4312   20.2789 C.ar    1  UNL1        0.0000
     44 C          -0.3195  -19.9697   21.3036 C.ar    1  UNL1        0.0000
     45 C          -1.3802  -19.2326   21.8389 C.ar    1  UNL1        0.0000
@<TRIPOS>BOND
     1    30    31    1
     2    31    32   ar
     3    32    26    1
     4    26    27    2
     5    26    28   am
     6    28     1    1
     7     1     2   ar
     8     2     3   ar
     9     3     4   ar
    10     4     7    1
    11     7     8    1
    12     8     9    1
    13     9    10    1
    14    10    14    1
    15    14    15    1
    16    15    16    1
    17    16    17   ar
    18    17    18   ar
    19    18    19   ar
    20    19    20   ar
    21    20    22    1
    22    22    23    2
    23    22    24    1
    24    20    21   ar
    25    10    11    1
    26    11    12    1
    27    11    13    1
    28     4     5   ar
    29     5     6   ar
    30    32    33   ar
    31    33    34   ar
    32    34    35   ar
    33    35    36   ar
    34    36    37   ar
    35    37    40    1
    36    40    41   ar
    37    41    42   ar
    38    42    43   ar
    39    43    44   ar
    40    44    45   ar
    41    37    38   ar
    42    38    39   ar
    43    39    31   ar
    44     6     1   ar
    45    39    34   ar
    46    13     7    1
    47    45    40   ar
    48    21    16   ar
    49    28    29    1
    50    24    25    1
@<TRIPOS>MOLECULE
*****
 45 50 0 0 0
SMALL
GASTEIGER

@<TRIPOS>ATOM
      1 C          -8.3928  -15.7123   25.2858 C.ar    1  UNL1        0.0702
      2 C          -9.3142  -16.7294   25.0136 C.ar    1  UNL1        0.0191
      3 C          -9.0354  -17.6919   24.0421 C.ar    1  UNL1        0.0356
      4 C          -7.8284  -17.6263   23.3224 C.ar    1  UNL1        0.1319
      5 N          -6.9609  -16.6093   23.5890 N.ar    1  UNL1       -0.2279
      6 C          -7.2097  -15.6636   24.5328 C.ar    1  UNL1        0.1149
      7 N          -7.4963  -18.6104   22.3147 N.pl3   1  UNL1       -0.2904
      8 C          -7.1498  -19.9911   22.6969 C.3     1  UNL1        0.0925
      9 C          -6.4930  -20.7571   21.5387 C.3     1  UNL1        0.0280
     10 C          -5.4686  -19.8567   20.8251 C.3     1  UNL1        0.0797
     11 C          -6.1366  -18.5792   20.2405 C.3     1  UNL1        0.1842
     12 F          -5.2822  -17.5017   20.4098 F       1  UNL1       -0.2353
     13 C          -7.4946  -18.2525   20.8874 C.3     1  UNL1        0.1274
     14 C          -4.7211  -20.6506   19.7361 C.3     1  UNL1        0.2081
     15 O          -3.3367  -20.7911   20.0604 O.3     1  UNL1       -0.4754
     16 C          -2.3767  -19.7671   20.0085 C.ar    1  UNL1        0.1388
     17 C          -2.6031  -18.5429   19.3514 C.ar    1  UNL1        0.0369
     18 C          -1.6093  -17.5625   19.3312 C.ar    1  UNL1        0.0033
     19 C          -0.3854  -17.7868   19.9650 C.ar    1  UNL1        0.0066
     20 C          -0.1426  -18.9994   20.6311 C.ar    1  UNL1        0.0785
     21 C          -1.1490  -19.9827   20.6474 C.ar    1  UNL1        0.0433
     22 C           1.1542  -19.2349   21.3037 C.2     1  UNL1        0.3381
     23 O           1.3932  -20.3402   21.8614 O.2     1  UNL1       -0.2451
     24 O           2.1244  -18.2362   21.3270 O.3     1  UNL1       -0.4771
     25 H           3.0155  -18.3870   21.7846 H       1  UNL1        0.2954
     26 C          -8.3356  -14.8132   27.6593 C.2     1  UNL1        0.2839
     27 O          -7.9348  -15.9102   28.1332 O.2     1  UNL1       -0.2665
     28 N          -8.7042  -14.7150   26.2739 N.am    1  UNL1       -0.2766
     29 H          -9.3072  -13.9125   25.9827 H       1  UNL1        0.1553
     30 C          -6.0696  -12.6459   28.3237 C.3     1  UNL1        0.0345
     31 C          -7.4802  -12.6861   28.8294 C.ar    1  UNL1        0.0202
     32 C          -8.4666  -13.6349   28.5374 C.ar    1  UNL1        0.1946
     33 O          -9.5860  -13.3330   29.1708 O.2     1  UNL1       -0.4492
     34 C          -9.3765  -12.2375   29.8591 C.ar    1  UNL1        0.1452
     35 C         -10.2830  -11.5642   30.6704 C.ar    1  UNL1        0.0375
     36 C          -9.8466  -10.3972   31.3210 C.ar    1  UNL1        0.0031
     37 C          -8.5178   -9.9225   31.1523 C.ar    1  UNL1        0.0002
     38 C          -7.6261  -10.6383   30.3175 C.ar    1  UNL1        0.0028
     39 C          -8.0929  -11.7929   29.6874 C.ar    1  UNL1        0.0337
     40 C          -8.0681   -8.6882   31.8446 C.ar    1  UNL1        0.0000
     41 C          -7.0650   -8.7457   32.8309 C.ar    1  UNL1        0.0000
     42 C          -6.6442   -7.5819   33.4818 C.ar    1  UNL1        0.0000
     43 C          -7.2172   -6.3505   33.1566 C.ar    1  UNL1        0.0000
     44 C          -8.2128   -6.2801   32.1798 C.ar    1  UNL1        0.0000
     45 C          -8.6382   -7.4407   31.5263 C.ar    1  UNL1        0.0000
@<TRIPOS>BOND
     1    30    31    1
     2    31    32   ar
     3    32    26    1
     4    26    27    2
     5    26    28   am
     6    28     1    1
     7     1     2   ar
     8     2     3   ar
     9     3     4   ar
    10     4     7    1
    11     7     8    1
    12     8     9    1
    13     9    10    1
    14    10    14    1
    15    14    15    1
    16    15    16    1
    17    16    17   ar
    18    17    18   ar
    19    18    19   ar
    20    19    20   ar
    21    20    22    1
    22    22    23    2
    23    22    24    1
    24    20    21   ar
    25    10    11    1
    26    11    12    1
    27    11    13    1
    28     4     5   ar
    29     5     6   ar
    30    32    33   ar
    31    33    34   ar
    32    34    35   ar
    33    35    36   ar
    34    36    37   ar
    35    37    40    1
    36    40    41   ar
    37    41    42   ar
    38    42    43   ar
    39    43    44   ar
    40    44    45   ar
    41    37    38   ar
    42    38    39   ar
    43    39    31   ar
    44     6     1   ar
    45    39    34   ar
    46    13     7    1
    47    45    40   ar
    48    21    16   ar
    49    28    29    1
    50    24    25    1
