@<TRIPOS>MOLECULE
*****
 47 52 0 0 0
SMALL
GASTEIGER

@<TRIPOS>ATOM
      1 C          60.9195   88.3441    9.7292 C.ar    1  UNL1        0.1036
      2 N          60.8560   87.6879   10.9211 N.ar    1  UNL1       -0.2313
      3 C          60.3732   88.2578   12.0596 C.ar    1  UNL1        0.1314
      4 C          59.9066   89.5813   12.0073 C.ar    1  UNL1        0.0356
      5 C          59.9456   90.2800   10.8016 C.ar    1  UNL1        0.0188
      6 C          60.4602   89.6753    9.6453 C.ar    1  UNL1        0.0669
      7 N          60.3538   87.4988   13.2911 N.pl3   1  UNL1       -0.2933
      8 C          60.7687   88.1180   14.5628 C.3     1  UNL1        0.0923
      9 C          61.0367   87.0660   15.6498 C.3     1  UNL1        0.0252
     10 C          61.8108   85.8773   15.0530 C.3     1  UNL1        0.0472
     11 C          61.0117   85.1906   13.9123 C.3     1  UNL1        0.0252
     12 C          59.9270   86.0906   13.2969 C.3     1  UNL1        0.0923
     13 C          62.1931   84.8721   16.1562 C.3     1  UNL1        0.2054
     14 O          63.3797   84.1557   15.8097 O.3     1  UNL1       -0.4755
     15 C          63.4821   83.1810   14.8033 C.ar    1  UNL1        0.1388
     16 C          63.3179   81.8057   15.0553 C.ar    1  UNL1        0.0369
     17 C          63.4333   80.8825   14.0142 C.ar    1  UNL1        0.0033
     18 C          63.7083   81.3162   12.7157 C.ar    1  UNL1        0.0066
     19 C          63.8694   82.6857   12.4433 C.ar    1  UNL1        0.0785
     20 C          63.7516   83.6092   13.4972 C.ar    1  UNL1        0.0433
     21 C          64.1593   83.1527   11.0695 C.2     1  UNL1        0.3381
     22 O          65.0106   82.5539   10.3576 O.2     1  UNL1       -0.2451
     23 O          63.4938   84.2598   10.5492 O.3     1  UNL1       -0.4771
     24 H          63.6849   84.5877    9.6099 H       1  UNL1        0.2954
     25 N          60.4620   90.3805    8.3905 N.am    1  UNL1       -0.2769
     26 C          59.7386   89.9348    7.2321 C.2     1  UNL1        0.2839
     27 O          58.9035   88.9955    7.3298 O.2     1  UNL1       -0.2665
     28 H          60.9679   91.2927    8.3340 H       1  UNL1        0.1553
     29 C          59.9499   90.6017    5.9333 C.ar    1  UNL1        0.1946
     30 O          61.1477   90.7863    5.4073 O.2     1  UNL1       -0.4492
     31 C          60.9939   91.4014    4.2604 C.ar    1  UNL1        0.1452
     32 C          61.9899   91.7940    3.3731 C.ar    1  UNL1        0.0375
     33 C          61.6008   92.4476    2.1911 C.ar    1  UNL1        0.0031
     34 C          60.2295   92.6977    1.9144 C.ar    1  UNL1        0.0002
     35 C          59.2467   92.2810    2.8443 C.ar    1  UNL1        0.0028
     36 C          59.6688   91.6347    4.0072 C.ar    1  UNL1        0.0337
     37 C          58.9683   91.1229    5.0827 C.ar    1  UNL1        0.0202
     38 C          57.4838   91.1265    5.2913 C.3     1  UNL1        0.0345
     39 C          59.8305   93.3893    0.6624 C.ar    1  UNL1        0.0000
     40 C          60.7325   94.2404   -0.0040 C.ar    1  UNL1        0.0000
     41 C          60.3537   94.8910   -1.1823 C.ar    1  UNL1        0.0000
     42 C          59.0742   94.6999   -1.7084 C.ar    1  UNL1        0.0000
     43 C          58.1703   93.8579   -1.0571 C.ar    1  UNL1        0.0000
     44 C          58.5434   93.2055    0.1221 C.ar    1  UNL1        0.0000
     45 C          61.4619   87.6255    8.5227 C.3     1  UNL1        0.1889
     46 C          61.5842   85.3705    8.0674 C.3     1  UNL1        0.1747
     47 O          62.0498   86.4003    8.9101 O.3     1  UNL1       -0.3447
@<TRIPOS>BOND
     1    46    47    1
     2    47    45    1
     3    45     1    1
     4     1     2   ar
     5     2     3   ar
     6     3     7    1
     7     7     8    1
     8     8     9    1
     9     9    10    1
    10    10    13    1
    11    13    14    1
    12    14    15    1
    13    15    16   ar
    14    16    17   ar
    15    17    18   ar
    16    18    19   ar
    17    19    21    1
    18    21    22    2
    19    21    23    1
    20    19    20   ar
    21    10    11    1
    22    11    12    1
    23     3     4   ar
    24     4     5   ar
    25     5     6   ar
    26     6    25    1
    27    25    26   am
    28    26    27    2
    29    26    29    1
    30    29    30   ar
    31    30    31   ar
    32    31    32   ar
    33    32    33   ar
    34    33    34   ar
    35    34    39    1
    36    39    40   ar
    37    40    41   ar
    38    41    42   ar
    39    42    43   ar
    40    43    44   ar
    41    34    35   ar
    42    35    36   ar
    43    36    37   ar
    44    37    38    1
    45     6     1   ar
    46    37    29   ar
    47    12     7    1
    48    36    31   ar
    49    20    15   ar
    50    44    39   ar
    51    23    24    1
    52    25    28    1
@<TRIPOS>MOLECULE
*****
 47 52 0 0 0
SMALL
GASTEIGER

@<TRIPOS>ATOM
      1 C          61.0091   86.4902   11.4577 C.ar    1  UNL1        0.1036
      2 N          60.2348   85.6246   10.7460 N.ar    1  UNL1       -0.2313
      3 C          60.2700   85.5390    9.3875 C.ar    1  UNL1        0.1314
      4 C          61.1523   86.3721    8.6806 C.ar    1  UNL1        0.0356
      5 C          61.9684   87.2624    9.3769 C.ar    1  UNL1        0.0188
      6 C          61.9039   87.3414   10.7759 C.ar    1  UNL1        0.0669
      7 N          59.4035   84.6039    8.7034 N.pl3   1  UNL1       -0.2933
      8 C          57.9840   84.4798    9.0806 C.3     1  UNL1        0.0923
      9 C          57.3526   83.1984    8.5153 C.3     1  UNL1        0.0252
     10 C          58.3254   82.0168    8.6756 C.3     1  UNL1        0.0472
     11 C          59.6570   82.2666    7.9167 C.3     1  UNL1        0.0252
     12 C          59.9247   83.7522    7.6226 C.3     1  UNL1        0.0923
     13 C          57.6592   80.7027    8.2253 C.3     1  UNL1        0.2054
     14 O          57.4071   79.8459    9.3406 O.3     1  UNL1       -0.4755
     15 C          57.9947   79.9631   10.6111 C.ar    1  UNL1        0.1388
     16 C          58.2417   78.8535   11.4414 C.ar    1  UNL1        0.0369
     17 C          58.8270   79.0321   12.6964 C.ar    1  UNL1        0.0033
     18 C          59.1750   80.3111   13.1356 C.ar    1  UNL1        0.0066
     19 C          58.9418   81.4307   12.3183 C.ar    1  UNL1        0.0785
     20 C          58.3521   81.2424   11.0556 C.ar    1  UNL1        0.0433
     21 C          59.3094   82.7888   12.7762 C.2     1  UNL1        0.3381
     22 O          60.3690   82.9762   13.4336 O.2     1  UNL1       -0.2451
     23 O          58.4872   83.8745   12.4853 O.3     1  UNL1       -0.4771
     24 H          58.7297   84.8083   12.7942 H       1  UNL1        0.2954
     25 N          62.7758   88.2296   11.4990 N.am    1  UNL1       -0.2769
     26 C          62.6743   89.6612   11.4367 C.2     1  UNL1        0.2839
     27 O          61.6761   90.2019   10.8885 O.2     1  UNL1       -0.2665
     28 H          63.4819   87.8139   12.1469 H       1  UNL1        0.1553
     29 C          63.7246   90.4987   12.0464 C.ar    1  UNL1        0.1946
     30 O          64.1158   91.6496   11.5288 O.2     1  UNL1       -0.4492
     31 C          65.0537   92.1409   12.3011 C.ar    1  UNL1        0.1452
     32 C          65.7474   93.3339   12.1318 C.ar    1  UNL1        0.0375
     33 C          66.7230   93.6714   13.0858 C.ar    1  UNL1        0.0031
     34 C          66.9894   92.8164   14.1892 C.ar    1  UNL1        0.0002
     35 C          66.2599   91.6108   14.3248 C.ar    1  UNL1        0.0028
     36 C          65.2988   91.3075   13.3593 C.ar    1  UNL1        0.0337
     37 C          64.4452   90.2303   13.2157 C.ar    1  UNL1        0.0202
     38 C          64.3203   89.0374   14.1149 C.3     1  UNL1        0.0345
     39 C          68.0226   93.1834   15.1907 C.ar    1  UNL1        0.0000
     40 C          68.3227   94.5349   15.4473 C.ar    1  UNL1        0.0000
     41 C          69.2967   94.8775   16.3901 C.ar    1  UNL1        0.0000
     42 C          69.9802   93.8785   17.0867 C.ar    1  UNL1        0.0000
     43 C          69.6915   92.5343   16.8416 C.ar    1  UNL1        0.0000
     44 C          68.7192   92.1858   15.8991 C.ar    1  UNL1        0.0000
     45 C          60.9052   86.5047   12.9594 C.3     1  UNL1        0.1889
     46 C          59.3268   88.0885   13.5139 C.3     1  UNL1        0.1747
     47 O          60.7088   87.8260   13.4204 O.3     1  UNL1       -0.3447
@<TRIPOS>BOND
     1    46    47    1
     2    47    45    1
     3    45     1    1
     4     1     2   ar
     5     2     3   ar
     6     3     7    1
     7     7     8    1
     8     8     9    1
     9     9    10    1
    10    10    13    1
    11    13    14    1
    12    14    15    1
    13    15    16   ar
    14    16    17   ar
    15    17    18   ar
    16    18    19   ar
    17    19    21    1
    18    21    22    2
    19    21    23    1
    20    19    20   ar
    21    10    11    1
    22    11    12    1
    23     3     4   ar
    24     4     5   ar
    25     5     6   ar
    26     6    25    1
    27    25    26   am
    28    26    27    2
    29    26    29    1
    30    29    30   ar
    31    30    31   ar
    32    31    32   ar
    33    32    33   ar
    34    33    34   ar
    35    34    39    1
    36    39    40   ar
    37    40    41   ar
    38    41    42   ar
    39    42    43   ar
    40    43    44   ar
    41    34    35   ar
    42    35    36   ar
    43    36    37   ar
    44    37    38    1
    45     6     1   ar
    46    37    29   ar
    47    12     7    1
    48    36    31   ar
    49    20    15   ar
    50    44    39   ar
    51    23    24    1
    52    25    28    1
@<TRIPOS>MOLECULE
*****
 47 52 0 0 0
SMALL
GASTEIGER

@<TRIPOS>ATOM
      1 C          61.6081   89.7496   10.4706 C.ar    1  UNL1        0.1036
      2 N          61.6061   88.9937   11.6036 N.ar    1  UNL1       -0.2313
      3 C          60.6856   88.0204   11.8474 C.ar    1  UNL1        0.1314
      4 C          59.6946   87.7712   10.8840 C.ar    1  UNL1        0.0356
      5 C          59.6728   88.5177    9.7068 C.ar    1  UNL1        0.0188
      6 C          60.6242   89.5242    9.4851 C.ar    1  UNL1        0.0669
      7 N          60.7416   87.2712   13.0837 N.pl3   1  UNL1       -0.2933
      8 C          61.5210   87.7704   14.2309 C.3     1  UNL1        0.0923
      9 C          61.7599   86.6736   15.2799 C.3     1  UNL1        0.0252
     10 C          62.1250   85.3502   14.5845 C.3     1  UNL1        0.0472
     11 C          60.9890   84.8683   13.6418 C.3     1  UNL1        0.0252
     12 C          60.0279   85.9914   13.2175 C.3     1  UNL1        0.0923
     13 C          62.4866   84.2739   15.6258 C.3     1  UNL1        0.2054
     14 O          63.5019   83.3995   15.1297 O.3     1  UNL1       -0.4755
     15 C          63.6736   83.0244   13.7869 C.ar    1  UNL1        0.1388
     16 C          64.5450   83.7009   12.9124 C.ar    1  UNL1        0.0369
     17 C          64.6728   83.2832   11.5863 C.ar    1  UNL1        0.0033
     18 C          63.9408   82.1898   11.1187 C.ar    1  UNL1        0.0066
     19 C          63.0703   81.4978   11.9784 C.ar    1  UNL1        0.0785
     20 C          62.9473   81.9246   13.3126 C.ar    1  UNL1        0.0433
     21 C          62.2927   80.3373   11.4905 C.2     1  UNL1        0.3381
     22 O          62.0254   79.3773   12.2630 O.2     1  UNL1       -0.2451
     23 O          61.8485   80.2944   10.1713 O.3     1  UNL1       -0.4771
     24 H          61.3155   79.5046    9.8273 H       1  UNL1        0.2954
     25 N          60.6290   90.2669    8.2520 N.am    1  UNL1       -0.2769
     26 C          59.8681   89.8837    7.0953 C.2     1  UNL1        0.2839
     27 O          59.0006   88.9731    7.1814 O.2     1  UNL1       -0.2665
     28 H          61.1673   91.1613    8.2129 H       1  UNL1        0.1553
     29 C          60.0799   90.5818    5.8131 C.ar    1  UNL1        0.1946
     30 O          61.2772   90.7706    5.2875 O.2     1  UNL1       -0.4492
     31 C          61.1241   91.4158    4.1572 C.ar    1  UNL1        0.1452
     32 C          62.1199   91.8233    3.2765 C.ar    1  UNL1        0.0375
     33 C          61.7317   92.5097    2.1129 C.ar    1  UNL1        0.0031
     34 C          60.3614   92.7773    1.8479 C.ar    1  UNL1        0.0002
     35 C          59.3788   92.3445    2.7705 C.ar    1  UNL1        0.0028
     36 C          59.7999   91.6657    3.9150 C.ar    1  UNL1        0.0337
     37 C          59.0993   91.1319    4.9798 C.ar    1  UNL1        0.0202
     38 C          57.6156   91.1416    5.1940 C.3     1  UNL1        0.0345
     39 C          59.9632   93.5035    0.6153 C.ar    1  UNL1        0.0000
     40 C          58.6042   93.6485    0.2773 C.ar    1  UNL1        0.0000
     41 C          58.2323   94.3319   -0.8845 C.ar    1  UNL1        0.0000
     42 C          59.2093   94.8779   -1.7199 C.ar    1  UNL1        0.0000
     43 C          60.5608   94.7413   -1.3955 C.ar    1  UNL1        0.0000
     44 C          60.9385   94.0579   -0.2355 C.ar    1  UNL1        0.0000
     45 C          62.6739   90.7969   10.2878 C.3     1  UNL1        0.1889
     46 C          64.4885   91.8414   11.2489 C.3     1  UNL1        0.1747
     47 O          63.4614   90.8984   11.4568 O.3     1  UNL1       -0.3447
@<TRIPOS>BOND
     1    46    47    1
     2    47    45    1
     3    45     1    1
     4     1     2   ar
     5     2     3   ar
     6     3     7    1
     7     7     8    1
     8     8     9    1
     9     9    10    1
    10    10    13    1
    11    13    14    1
    12    14    15    1
    13    15    16   ar
    14    16    17   ar
    15    17    18   ar
    16    18    19   ar
    17    19    21    1
    18    21    22    2
    19    21    23    1
    20    19    20   ar
    21    10    11    1
    22    11    12    1
    23     3     4   ar
    24     4     5   ar
    25     5     6   ar
    26     6    25    1
    27    25    26   am
    28    26    27    2
    29    26    29    1
    30    29    30   ar
    31    30    31   ar
    32    31    32   ar
    33    32    33   ar
    34    33    34   ar
    35    34    39    1
    36    39    40   ar
    37    40    41   ar
    38    41    42   ar
    39    42    43   ar
    40    43    44   ar
    41    34    35   ar
    42    35    36   ar
    43    36    37   ar
    44    37    38    1
    45     6     1   ar
    46    37    29   ar
    47    12     7    1
    48    36    31   ar
    49    20    15   ar
    50    44    39   ar
    51    23    24    1
    52    25    28    1
@<TRIPOS>MOLECULE
*****
 47 52 0 0 0
SMALL
GASTEIGER

@<TRIPOS>ATOM
      1 C          60.7538   89.2858    9.4168 C.ar    1  UNL1        0.1036
      2 N          60.4986   88.3504   10.3733 N.ar    1  UNL1       -0.2313
      3 C          59.7170   87.2569   10.1553 C.ar    1  UNL1        0.1314
      4 C          59.1528   87.0726    8.8825 C.ar    1  UNL1        0.0356
      5 C          59.4019   88.0039    7.8754 C.ar    1  UNL1        0.0188
      6 C          60.1996   89.1295    8.1289 C.ar    1  UNL1        0.0669
      7 N          59.4806   86.3164   11.2289 N.pl3   1  UNL1       -0.2933
      8 C          60.5388   85.3849   11.6593 C.3     1  UNL1        0.0923
      9 C          59.9790   84.2437   12.5222 C.3     1  UNL1        0.0252
     10 C          58.6596   83.7275   11.9214 C.3     1  UNL1        0.0472
     11 C          57.5852   84.8468   11.8568 C.3     1  UNL1        0.0252
     12 C          58.1759   86.2659   11.9073 C.3     1  UNL1        0.0923
     13 C          58.1503   82.5035   12.7061 C.3     1  UNL1        0.2054
     14 O          58.1867   81.3246   11.8998 O.3     1  UNL1       -0.4755
     15 C          59.0222   81.1186   10.7895 C.ar    1  UNL1        0.1388
     16 C          60.2716   80.4770   10.8849 C.ar    1  UNL1        0.0369
     17 C          61.0601   80.3025    9.7460 C.ar    1  UNL1        0.0033
     18 C          60.6141   80.7591    8.5040 C.ar    1  UNL1        0.0066
     19 C          59.3668   81.3966    8.3876 C.ar    1  UNL1        0.0785
     20 C          58.5786   81.5684    9.5394 C.ar    1  UNL1        0.0433
     21 C          58.8870   81.8815    7.0745 C.2     1  UNL1        0.3381
     22 O          57.8705   81.3654    6.5357 O.2     1  UNL1       -0.2451
     23 O          59.5547   82.9138    6.4205 O.3     1  UNL1       -0.4771
     24 H          59.2345   83.2531    5.5213 H       1  UNL1        0.2954
     25 N          60.4925   90.0695    7.0788 N.am    1  UNL1       -0.2769
     26 C          59.5568   90.4177    6.0458 C.2     1  UNL1        0.2839
     27 O          58.3532   90.0527    6.1325 O.2     1  UNL1       -0.2665
     28 H          61.4104   90.5676    7.0998 H       1  UNL1        0.1553
     29 C          59.9994   91.2333    4.8990 C.ar    1  UNL1        0.1946
     30 O          59.2655   92.2023    4.3814 O.2     1  UNL1       -0.4492
     31 C          59.9358   92.7272    3.3850 C.ar    1  UNL1        0.1452
     32 C          59.5387   93.7724    2.5585 C.ar    1  UNL1        0.0375
     33 C          60.4185   94.1802    1.5409 C.ar    1  UNL1        0.0031
     34 C          61.6755   93.5410    1.3652 C.ar    1  UNL1        0.0002
     35 C          62.0416   92.4808    2.2291 C.ar    1  UNL1        0.0028
     36 C          61.1439   92.1023    3.2285 C.ar    1  UNL1        0.0337
     37 C          61.2088   91.1251    4.2033 C.ar    1  UNL1        0.0202
     38 C          62.3286   90.1614    4.4577 C.3     1  UNL1        0.0345
     39 C          62.5967   93.9804    0.2866 C.ar    1  UNL1        0.0000
     40 C          63.8829   94.4622    0.5958 C.ar    1  UNL1        0.0000
     41 C          64.7477   94.8762   -0.4220 C.ar    1  UNL1        0.0000
     42 C          64.3408   94.8137   -1.7564 C.ar    1  UNL1        0.0000
     43 C          63.0676   94.3373   -2.0763 C.ar    1  UNL1        0.0000
     44 C          62.1982   93.9229   -1.0626 C.ar    1  UNL1        0.0000
     45 C          61.6385   90.4568    9.7515 C.3     1  UNL1        0.1889
     46 C          63.4410   91.0590   11.0537 C.3     1  UNL1        0.1747
     47 O          62.8445   90.0044   10.3329 O.3     1  UNL1       -0.3447
@<TRIPOS>BOND
     1    46    47    1
     2    47    45    1
     3    45     1    1
     4     1     2   ar
     5     2     3   ar
     6     3     7    1
     7     7     8    1
     8     8     9    1
     9     9    10    1
    10    10    13    1
    11    13    14    1
    12    14    15    1
    13    15    16   ar
    14    16    17   ar
    15    17    18   ar
    16    18    19   ar
    17    19    21    1
    18    21    22    2
    19    21    23    1
    20    19    20   ar
    21    10    11    1
    22    11    12    1
    23     3     4   ar
    24     4     5   ar
    25     5     6   ar
    26     6    25    1
    27    25    26   am
    28    26    27    2
    29    26    29    1
    30    29    30   ar
    31    30    31   ar
    32    31    32   ar
    33    32    33   ar
    34    33    34   ar
    35    34    39    1
    36    39    40   ar
    37    40    41   ar
    38    41    42   ar
    39    42    43   ar
    40    43    44   ar
    41    34    35   ar
    42    35    36   ar
    43    36    37   ar
    44    37    38    1
    45     6     1   ar
    46    37    29   ar
    47    12     7    1
    48    36    31   ar
    49    20    15   ar
    50    44    39   ar
    51    23    24    1
    52    25    28    1
@<TRIPOS>MOLECULE
*****
 47 52 0 0 0
SMALL
GASTEIGER

@<TRIPOS>ATOM
      1 C          61.1380   86.6351   11.6526 C.ar    1  UNL1        0.1036
      2 N          60.3256   85.8069   10.9389 N.ar    1  UNL1       -0.2313
      3 C          60.2201   85.8556    9.5822 C.ar    1  UNL1        0.1314
      4 C          60.9909   86.7946    8.8778 C.ar    1  UNL1        0.0356
      5 C          61.8423   87.6509    9.5745 C.ar    1  UNL1        0.0188
      6 C          61.9233   87.5903   10.9735 C.ar    1  UNL1        0.0669
      7 N          59.3216   84.9512    8.8982 N.pl3   1  UNL1       -0.2933
      8 C          57.9617   84.7098    9.4130 C.3     1  UNL1        0.0923
      9 C          57.3251   83.4621    8.7820 C.3     1  UNL1        0.0252
     10 C          58.3598   82.3258    8.7025 C.3     1  UNL1        0.0472
     11 C          59.5831   82.7273    7.8341 C.3     1  UNL1        0.0252
     12 C          59.7508   84.2481    7.6789 C.3     1  UNL1        0.0923
     13 C          57.7034   81.0316    8.1853 C.3     1  UNL1        0.2054
     14 O          57.7216   80.0111    9.1851 O.3     1  UNL1       -0.4755
     15 C          58.5302   80.0059   10.3338 C.ar    1  UNL1        0.1388
     16 C          58.0051   79.8861   11.6345 C.ar    1  UNL1        0.0369
     17 C          58.8588   79.8893   12.7393 C.ar    1  UNL1        0.0033
     18 C          60.2389   80.0074   12.5625 C.ar    1  UNL1        0.0066
     19 C          60.7824   80.1220   11.2713 C.ar    1  UNL1        0.0785
     20 C          59.9160   80.1178   10.1638 C.ar    1  UNL1        0.0433
     21 C          62.2440   80.2458   11.0762 C.2     1  UNL1        0.3381
     22 O          62.9662   80.7631   11.9711 O.2     1  UNL1       -0.2451
     23 O          62.8364   79.7918    9.9006 O.3     1  UNL1       -0.4771
     24 H          63.8359   79.8719    9.7570 H       1  UNL1        0.2954
     25 N          62.8331   88.4445   11.6909 N.am    1  UNL1       -0.2769
     26 C          62.7263   89.8770   11.7069 C.2     1  UNL1        0.2839
     27 O          61.6982   90.4405   11.2434 O.2     1  UNL1       -0.2665
     28 H          63.5749   87.9996   12.2765 H       1  UNL1        0.1553
     29 C          63.8079   90.6871   12.2987 C.ar    1  UNL1        0.1946
     30 O          64.1989   91.8428   11.7918 O.2     1  UNL1       -0.4492
     31 C          65.1684   92.3049   12.5428 C.ar    1  UNL1        0.1452
     32 C          65.8736   93.4914   12.3749 C.ar    1  UNL1        0.0375
     33 C          66.8844   93.7956   13.3031 C.ar    1  UNL1        0.0031
     34 C          67.1739   92.9145   14.3799 C.ar    1  UNL1        0.0002
     35 C          66.4316   91.7166   14.5150 C.ar    1  UNL1        0.0028
     36 C          65.4354   91.4466   13.5755 C.ar    1  UNL1        0.0337
     37 C          64.5619   90.3847   13.4382 C.ar    1  UNL1        0.0202
     38 C          64.4488   89.1754   14.3169 C.3     1  UNL1        0.0345
     39 C          68.2442   93.2464   15.3543 C.ar    1  UNL1        0.0000
     40 C          68.8764   92.2308   16.0967 C.ar    1  UNL1        0.0000
     41 C          69.8831   92.5465   17.0143 C.ar    1  UNL1        0.0000
     42 C          70.2704   93.8752   17.2007 C.ar    1  UNL1        0.0000
     43 C          69.6513   94.8917   16.4701 C.ar    1  UNL1        0.0000
     44 C          68.6432   94.5821   15.5519 C.ar    1  UNL1        0.0000
     45 C          61.1931   86.4986   13.1508 C.3     1  UNL1        0.1889
     46 C          60.6210   87.5324   15.1285 C.3     1  UNL1        0.1747
     47 O          60.9042   87.7390   13.7629 O.3     1  UNL1       -0.3447
@<TRIPOS>BOND
     1    46    47    1
     2    47    45    1
     3    45     1    1
     4     1     2   ar
     5     2     3   ar
     6     3     7    1
     7     7     8    1
     8     8     9    1
     9     9    10    1
    10    10    13    1
    11    13    14    1
    12    14    15    1
    13    15    16   ar
    14    16    17   ar
    15    17    18   ar
    16    18    19   ar
    17    19    21    1
    18    21    22    2
    19    21    23    1
    20    19    20   ar
    21    10    11    1
    22    11    12    1
    23     3     4   ar
    24     4     5   ar
    25     5     6   ar
    26     6    25    1
    27    25    26   am
    28    26    27    2
    29    26    29    1
    30    29    30   ar
    31    30    31   ar
    32    31    32   ar
    33    32    33   ar
    34    33    34   ar
    35    34    39    1
    36    39    40   ar
    37    40    41   ar
    38    41    42   ar
    39    42    43   ar
    40    43    44   ar
    41    34    35   ar
    42    35    36   ar
    43    36    37   ar
    44    37    38    1
    45     6     1   ar
    46    37    29   ar
    47    12     7    1
    48    36    31   ar
    49    20    15   ar
    50    44    39   ar
    51    23    24    1
    52    25    28    1
