@<TRIPOS>MOLECULE
*****
 41 45 0 0 0
SMALL
GASTEIGER

@<TRIPOS>ATOM
      1 C          -8.5431  -10.4252   31.6610 C.3     1  UNL1        0.1333
      2 N          -8.9327  -11.5972   30.8757 N.ar    1  UNL1       -0.2950
      3 C         -10.0540  -12.3639   30.9936 C.ar    1  UNL1        0.2019
      4 N         -10.0713  -13.4358   30.1615 N.ar    1  UNL1       -0.2134
      5 C          -8.9231  -13.3022   29.4749 C.ar    1  UNL1        0.1033
      6 C          -8.4427  -14.1403   28.4717 C.ar    1  UNL1        0.0284
      7 C          -7.2073  -13.8215   27.8638 C.ar    1  UNL1        0.0922
      8 C          -6.5202  -12.6399   28.2577 C.ar    1  UNL1        0.1782
      9 C          -7.0250  -11.8304   29.2974 C.ar    1  UNL1        0.1897
     10 C          -8.2393  -12.1944   29.8871 C.ar    1  UNL1        0.1173
     11 O          -6.3142  -10.6899   29.6829 O.3     1  UNL1       -0.4669
     12 C          -4.9710  -10.4759   29.2460 C.3     1  UNL1        0.2527
     13 C          -4.8148  -10.9172   27.7865 C.3     1  UNL1        0.2526
     14 O          -5.3483  -12.2311   27.6085 O.3     1  UNL1       -0.4682
     15 C          -6.6787  -14.6972   26.7966 C.2     1  UNL1        0.2526
     16 O          -5.9296  -15.6620   27.1105 O.2     1  UNL1       -0.2697
     17 N          -7.0077  -14.4537   25.4181 N.am    1  UNL1       -0.2799
     18 H          -7.5801  -13.6139   25.1786 H       1  UNL1        0.1552
     19 C          -6.6569  -15.3508   24.3518 C.ar    1  UNL1        0.0561
     20 C          -5.3580  -15.3448   23.8146 C.ar    1  UNL1        0.0213
     21 C          -5.0099  -16.2093   22.7602 C.ar    1  UNL1        0.1001
     22 C          -5.9924  -17.0603   22.2238 C.ar    1  UNL1        0.1446
     23 F          -5.6986  -17.8884   21.1890 F       1  UNL1       -0.2042
     24 C          -7.2890  -17.0566   22.7425 C.ar    1  UNL1        0.0367
     25 C          -7.6281  -16.2062   23.7989 C.ar    1  UNL1        0.0372
     26 S          -9.3028  -16.2522   24.4445 S.3     1  UNL1       -0.1401
     27 H          -8.9673  -17.2336   25.3959 H       1  UNL1        0.1072
     28 C          -3.6208  -16.1996   22.1673 C.3     1  UNL1        0.4207
     29 F          -2.8594  -17.1844   22.7693 F       1  UNL1       -0.1658
     30 F          -3.6449  -16.4298   20.8023 F       1  UNL1       -0.1658
     31 F          -3.0265  -14.9701   22.3890 F       1  UNL1       -0.1658
     32 N         -11.1404  -12.0907   31.8906 N.pl3   1  UNL1       -0.2814
     33 H         -11.5518  -11.1306   31.8734 H       1  UNL1        0.1551
     34 C         -11.6662  -13.0331   32.8389 C.ar    1  UNL1        0.0889
     35 C         -12.9082  -13.6363   32.5780 C.ar    1  UNL1        0.1543
     36 F         -13.5855  -13.3405   31.4402 F       1  UNL1       -0.2028
     37 C         -13.4447  -14.5662   33.4726 C.ar    1  UNL1        0.0310
     38 C         -12.7565  -14.8905   34.6425 C.ar    1  UNL1        0.0033
     39 C         -11.5358  -14.2761   34.9285 C.ar    1  UNL1        0.0128
     40 C         -10.9875  -13.3422   34.0408 C.ar    1  UNL1        0.0733
     41 CL         -9.4954  -12.5345   34.5088 Cl      1  UNL1       -0.0809
@<TRIPOS>BOND
     1     1     2    1
     2     2     3   ar
     3     3    32    1
     4    32    34    1
     5    34    35   ar
     6    35    36    1
     7    35    37   ar
     8    37    38   ar
     9    38    39   ar
    10    39    40   ar
    11    40    41    1
    12     3     4   ar
    13     4     5   ar
    14     5     6   ar
    15     6     7   ar
    16     7    15    1
    17    15    16    2
    18    15    17   am
    19    17    19    1
    20    19    20   ar
    21    20    21   ar
    22    21    28    1
    23    28    29    1
    24    28    30    1
    25    28    31    1
    26    21    22   ar
    27    22    23    1
    28    22    24   ar
    29    24    25   ar
    30    25    26    1
    31     7     8   ar
    32     8     9   ar
    33     9    10   ar
    34     9    11    1
    35    11    12    1
    36    12    13    1
    37    13    14    1
    38    10     2   ar
    39    40    34   ar
    40    10     5   ar
    41    25    19   ar
    42    14     8    1
    43    32    33    1
    44    17    18    1
    45    26    27    1
@<TRIPOS>MOLECULE
*****
 41 45 0 0 0
SMALL
GASTEIGER

@<TRIPOS>ATOM
      1 C          -5.7085  -14.9950   26.7600 C.3     1  UNL1        0.1333
      2 N          -7.0360  -14.8023   27.3454 N.ar    1  UNL1       -0.2950
      3 C          -8.1460  -15.5820   27.2080 C.ar    1  UNL1        0.2019
      4 N          -9.2474  -15.0744   27.8171 N.ar    1  UNL1       -0.2134
      5 C          -8.7843  -13.9474   28.3855 C.ar    1  UNL1        0.1033
      6 C          -9.5067  -13.0355   29.1511 C.ar    1  UNL1        0.0284
      7 C          -8.8304  -11.9075   29.6683 C.ar    1  UNL1        0.0922
      8 C          -7.4349  -11.7623   29.4336 C.ar    1  UNL1        0.1782
      9 C          -6.7430  -12.6929   28.6296 C.ar    1  UNL1        0.1897
     10 C          -7.4552  -13.7824   28.1192 C.ar    1  UNL1        0.1173
     11 O          -5.3773  -12.5100   28.3926 O.3     1  UNL1       -0.4669
     12 C          -4.7329  -11.2754   28.7113 C.3     1  UNL1        0.2527
     13 C          -5.2768  -10.7228   30.0334 C.3     1  UNL1        0.2526
     14 O          -6.7058  -10.7173   30.0154 O.3     1  UNL1       -0.4682
     15 C          -9.5776  -10.9268   30.4838 C.2     1  UNL1        0.2526
     16 O          -9.2925  -10.8020   31.7060 O.2     1  UNL1       -0.2697
     17 N         -10.6188  -10.1269   29.8972 N.am    1  UNL1       -0.2799
     18 H         -10.8768  -10.2913   28.8988 H       1  UNL1        0.1552
     19 C         -11.2751   -9.0526   30.5900 C.ar    1  UNL1        0.0561
     20 C         -10.8844   -7.7203   30.3707 C.ar    1  UNL1        0.0213
     21 C         -11.5113   -6.6631   31.0559 C.ar    1  UNL1        0.1001
     22 C         -12.5159   -6.9596   31.9941 C.ar    1  UNL1        0.1446
     23 F         -13.1236   -5.9666   32.6923 F       1  UNL1       -0.2042
     24 C         -12.8947   -8.2832   32.2282 C.ar    1  UNL1        0.0367
     25 C         -12.2793   -9.3302   31.5361 C.ar    1  UNL1        0.0372
     26 S         -12.8145  -11.0136   31.8573 S.3     1  UNL1       -0.1401
     27 H         -13.7803  -10.9596   30.8350 H       1  UNL1        0.1072
     28 C         -11.0883   -5.2298   30.8373 C.3     1  UNL1        0.4207
     29 F          -9.7082   -5.1503   30.8667 F       1  UNL1       -0.1658
     30 F         -11.5348   -4.7439   29.6202 F       1  UNL1       -0.1658
     31 F         -11.6083   -4.4308   31.8400 F       1  UNL1       -0.1658
     32 N          -8.1845  -16.8326   26.5052 N.pl3   1  UNL1       -0.2814
     33 H          -7.5833  -17.6078   26.8644 H       1  UNL1        0.1551
     34 C          -8.9573  -17.0728   25.3181 C.ar    1  UNL1        0.0889
     35 C          -9.7413  -18.2364   25.2433 C.ar    1  UNL1        0.1543
     36 F          -9.7751  -19.1052   26.2849 F       1  UNL1       -0.2028
     37 C         -10.5146  -18.4965   24.1088 C.ar    1  UNL1        0.0310
     38 C         -10.5003  -17.6083   23.0326 C.ar    1  UNL1        0.0033
     39 C          -9.7025  -16.4636   23.0816 C.ar    1  UNL1        0.0128
     40 C          -8.9225  -16.1914   24.2123 C.ar    1  UNL1        0.0733
     41 CL         -7.8669  -14.7837   24.1687 Cl      1  UNL1       -0.0809
@<TRIPOS>BOND
     1     1     2    1
     2     2     3   ar
     3     3    32    1
     4    32    34    1
     5    34    35   ar
     6    35    36    1
     7    35    37   ar
     8    37    38   ar
     9    38    39   ar
    10    39    40   ar
    11    40    41    1
    12     3     4   ar
    13     4     5   ar
    14     5     6   ar
    15     6     7   ar
    16     7    15    1
    17    15    16    2
    18    15    17   am
    19    17    19    1
    20    19    20   ar
    21    20    21   ar
    22    21    28    1
    23    28    29    1
    24    28    30    1
    25    28    31    1
    26    21    22   ar
    27    22    23    1
    28    22    24   ar
    29    24    25   ar
    30    25    26    1
    31     7     8   ar
    32     8     9   ar
    33     9    10   ar
    34     9    11    1
    35    11    12    1
    36    12    13    1
    37    13    14    1
    38    10     2   ar
    39    40    34   ar
    40    10     5   ar
    41    25    19   ar
    42    14     8    1
    43    32    33    1
    44    17    18    1
    45    26    27    1
@<TRIPOS>MOLECULE
*****
 41 45 0 0 0
SMALL
GASTEIGER

@<TRIPOS>ATOM
      1 C          -7.8789  -17.0708   21.8917 C.3     1  UNL1        0.1333
      2 N          -8.6331  -16.5115   23.0144 N.ar    1  UNL1       -0.2950
      3 C          -9.9790  -16.3218   23.1228 C.ar    1  UNL1        0.2019
      4 N         -10.3508  -15.6983   24.2694 N.ar    1  UNL1       -0.2134
      5 C          -9.1822  -15.5284   24.9121 C.ar    1  UNL1        0.1033
      6 C          -8.9879  -14.9381   26.1585 C.ar    1  UNL1        0.0284
      7 C          -7.6717  -14.8598   26.6673 C.ar    1  UNL1        0.0922
      8 C          -6.6002  -15.4229   25.9202 C.ar    1  UNL1        0.1782
      9 C          -6.8329  -15.9882   24.6485 C.ar    1  UNL1        0.1897
     10 C          -8.1471  -16.0251   24.1729 C.ar    1  UNL1        0.1173
     11 O          -5.7565  -16.5092   23.9241 O.3     1  UNL1       -0.4669
     12 C          -4.4081  -16.2408   24.3122 C.3     1  UNL1        0.2527
     13 C          -4.2829  -16.2725   25.8395 C.3     1  UNL1        0.2526
     14 O          -5.2980  -15.4614   26.4348 O.3     1  UNL1       -0.4682
     15 C          -7.4425  -14.2374   27.9884 C.2     1  UNL1        0.2526
     16 O          -6.5585  -14.7194   28.7478 O.2     1  UNL1       -0.2697
     17 N          -8.2170  -13.1006   28.4078 N.am    1  UNL1       -0.2799
     18 H          -8.9832  -12.7576   27.7868 H       1  UNL1        0.1552
     19 C          -7.9425  -12.3561   29.6057 C.ar    1  UNL1        0.0561
     20 C          -6.6340  -11.9337   29.8973 C.ar    1  UNL1        0.0213
     21 C          -6.3534  -11.2171   31.0755 C.ar    1  UNL1        0.1001
     22 C          -7.3980  -10.9570   31.9802 C.ar    1  UNL1        0.1446
     23 F          -7.1584  -10.2914   33.1389 F       1  UNL1       -0.2042
     24 C          -8.6961  -11.3906   31.7030 C.ar    1  UNL1        0.0367
     25 C          -8.9741  -12.0905   30.5254 C.ar    1  UNL1        0.0372
     26 S         -10.6626  -12.6098   30.2043 S.3     1  UNL1       -0.1401
     27 H         -10.9564  -11.4174   29.5169 H       1  UNL1        0.1072
     28 C          -4.9481  -10.7717   31.4039 C.3     1  UNL1        0.4207
     29 F          -4.1992  -10.7260   30.2424 F       1  UNL1       -0.1658
     30 F          -4.9321   -9.5183   31.9915 F       1  UNL1       -0.1658
     31 F          -4.3664  -11.6692   32.2816 F       1  UNL1       -0.1658
     32 N         -10.9444  -16.7381   22.1461 N.pl3   1  UNL1       -0.2814
     33 H         -11.7483  -16.0981   21.9576 H       1  UNL1        0.1551
     34 C         -10.9027  -17.9928   21.4475 C.ar    1  UNL1        0.0889
     35 C         -10.8493  -17.9856   20.0434 C.ar    1  UNL1        0.1543
     36 F         -10.8219  -16.8097   19.3671 F       1  UNL1       -0.2028
     37 C         -10.7960  -19.1868   19.3314 C.ar    1  UNL1        0.0310
     38 C         -10.8124  -20.4054   20.0113 C.ar    1  UNL1        0.0033
     39 C         -10.8954  -20.4272   21.4048 C.ar    1  UNL1        0.0128
     40 C         -10.9500  -19.2307   22.1302 C.ar    1  UNL1        0.0733
     41 CL        -11.1517  -19.3312   23.8758 Cl      1  UNL1       -0.0809
@<TRIPOS>BOND
     1     1     2    1
     2     2     3   ar
     3     3    32    1
     4    32    34    1
     5    34    35   ar
     6    35    36    1
     7    35    37   ar
     8    37    38   ar
     9    38    39   ar
    10    39    40   ar
    11    40    41    1
    12     3     4   ar
    13     4     5   ar
    14     5     6   ar
    15     6     7   ar
    16     7    15    1
    17    15    16    2
    18    15    17   am
    19    17    19    1
    20    19    20   ar
    21    20    21   ar
    22    21    28    1
    23    28    29    1
    24    28    30    1
    25    28    31    1
    26    21    22   ar
    27    22    23    1
    28    22    24   ar
    29    24    25   ar
    30    25    26    1
    31     7     8   ar
    32     8     9   ar
    33     9    10   ar
    34     9    11    1
    35    11    12    1
    36    12    13    1
    37    13    14    1
    38    10     2   ar
    39    40    34   ar
    40    10     5   ar
    41    25    19   ar
    42    14     8    1
    43    32    33    1
    44    17    18    1
    45    26    27    1
@<TRIPOS>MOLECULE
*****
 41 45 0 0 0
SMALL
GASTEIGER

@<TRIPOS>ATOM
      1 C          -8.5072  -10.5680   31.8252 C.3     1  UNL1        0.1333
      2 N          -9.0040  -11.7033   31.0463 N.ar    1  UNL1       -0.2950
      3 C         -10.1639  -12.4014   31.2080 C.ar    1  UNL1        0.2019
      4 N         -10.2853  -13.4590   30.3662 N.ar    1  UNL1       -0.2134
      5 C          -9.1636  -13.3866   29.6284 C.ar    1  UNL1        0.1033
      6 C          -8.7823  -14.2388   28.5951 C.ar    1  UNL1        0.0284
      7 C          -7.5586  -13.9881   27.9340 C.ar    1  UNL1        0.0922
      8 C          -6.7825  -12.8562   28.3082 C.ar    1  UNL1        0.1782
      9 C          -7.1883  -12.0315   29.3788 C.ar    1  UNL1        0.1897
     10 C          -8.3946  -12.3284   30.0203 C.ar    1  UNL1        0.1173
     11 O          -6.3916  -10.9419   29.7431 O.3     1  UNL1       -0.4669
     12 C          -5.0591  -10.8046   29.2466 C.3     1  UNL1        0.2527
     13 C          -4.9973  -11.2349   27.7767 C.3     1  UNL1        0.2526
     14 O          -5.6185  -12.5111   27.6097 O.3     1  UNL1       -0.4682
     15 C          -7.1343  -14.8800   26.8341 C.2     1  UNL1        0.2526
     16 O          -6.1974  -15.6996   27.0365 O.2     1  UNL1       -0.2697
     17 N          -7.7751  -14.8146   25.5484 N.am    1  UNL1       -0.2799
     18 H          -8.5066  -14.0871   25.3877 H       1  UNL1        0.1552
     19 C          -7.5192  -15.7518   24.4896 C.ar    1  UNL1        0.0561
     20 C          -8.5160  -16.6551   24.0821 C.ar    1  UNL1        0.0213
     21 C          -8.2692  -17.5864   23.0563 C.ar    1  UNL1        0.1001
     22 C          -6.9946  -17.6260   22.4637 C.ar    1  UNL1        0.1446
     23 F          -6.7136  -18.5290   21.4898 F       1  UNL1       -0.2042
     24 C          -5.9959  -16.7424   22.8780 C.ar    1  UNL1        0.0367
     25 C          -6.2482  -15.8094   23.8880 C.ar    1  UNL1        0.0372
     26 S          -4.9380  -14.6814   24.3724 S.3     1  UNL1       -0.1401
     27 H          -5.3480  -13.7159   23.4341 H       1  UNL1        0.1072
     28 C          -9.3296  -18.5703   22.6218 C.3     1  UNL1        0.4207
     29 F          -9.5250  -18.4597   21.2574 F       1  UNL1       -0.1658
     30 F          -8.9686  -19.8746   22.9139 F       1  UNL1       -0.1658
     31 F         -10.5187  -18.2936   23.2725 F       1  UNL1       -0.1658
     32 N         -11.1892  -12.0744   32.1573 N.pl3   1  UNL1       -0.2814
     33 H         -11.4887  -11.0756   32.2207 H       1  UNL1        0.1551
     34 C         -11.7953  -13.0187   33.0546 C.ar    1  UNL1        0.0889
     35 C         -13.0700  -13.5238   32.7477 C.ar    1  UNL1        0.1543
     36 F         -13.7043  -13.1336   31.6135 F       1  UNL1       -0.2028
     37 C         -13.6849  -14.4525   33.5916 C.ar    1  UNL1        0.0310
     38 C         -13.0423  -14.8731   34.7568 C.ar    1  UNL1        0.0033
     39 C         -11.7884  -14.3565   35.0889 C.ar    1  UNL1        0.0128
     40 C         -11.1617  -13.4249   34.2522 C.ar    1  UNL1        0.0733
     41 CL         -9.6274  -12.7420   34.7790 Cl      1  UNL1       -0.0809
@<TRIPOS>BOND
     1     1     2    1
     2     2     3   ar
     3     3    32    1
     4    32    34    1
     5    34    35   ar
     6    35    36    1
     7    35    37   ar
     8    37    38   ar
     9    38    39   ar
    10    39    40   ar
    11    40    41    1
    12     3     4   ar
    13     4     5   ar
    14     5     6   ar
    15     6     7   ar
    16     7    15    1
    17    15    16    2
    18    15    17   am
    19    17    19    1
    20    19    20   ar
    21    20    21   ar
    22    21    28    1
    23    28    29    1
    24    28    30    1
    25    28    31    1
    26    21    22   ar
    27    22    23    1
    28    22    24   ar
    29    24    25   ar
    30    25    26    1
    31     7     8   ar
    32     8     9   ar
    33     9    10   ar
    34     9    11    1
    35    11    12    1
    36    12    13    1
    37    13    14    1
    38    10     2   ar
    39    40    34   ar
    40    10     5   ar
    41    25    19   ar
    42    14     8    1
    43    32    33    1
    44    17    18    1
    45    26    27    1
