@<TRIPOS>MOLECULE
*****
 47 52 0 0 0
SMALL
GASTEIGER

@<TRIPOS>ATOM
      1 O          63.6156   90.8161   12.0080 O.2     1  UNL1       -0.2701
      2 C          63.7829   89.5944   12.2748 C.2     1  UNL1        0.2483
      3 N          64.9395   89.1795   13.0193 N.am    1  UNL1       -0.2945
      4 H          65.1856   88.1639   13.0406 H       1  UNL1        0.1501
      5 C          62.7961   88.6044   11.7876 C.ar    1  UNL1        0.0808
      6 C          62.2268   87.6914   12.6897 C.ar    1  UNL1        0.0080
      7 C          61.2914   86.7499   12.2535 C.ar    1  UNL1        0.0148
      8 C          60.9104   86.6939   10.9020 C.ar    1  UNL1        0.0502
      9 C          61.4971   87.5930    9.9951 C.ar    1  UNL1        0.0443
     10 C          62.4323   88.5380   10.4291 C.ar    1  UNL1        0.1457
     11 F          63.0115   89.3508    9.5094 F       1  UNL1       -0.2040
     12 N          59.9485   85.7167   10.4482 N.pl3   1  UNL1       -0.3040
     13 C          59.3203   84.8142   11.4290 C.3     1  UNL1        0.1122
     14 C          58.1084   84.0982   10.8316 C.3     1  UNL1        0.1122
     15 N          58.4789   83.5097    9.5398 N.pl3   1  UNL1       -0.3040
     16 C          59.1910   84.3243    8.5441 C.3     1  UNL1        0.1122
     17 C          59.4657   85.7451    9.0575 C.3     1  UNL1        0.1122
     18 C          58.2329   82.1168    9.2718 C.ar    1  UNL1        0.0496
     19 C          58.0292   81.6705    7.9551 C.ar    1  UNL1        0.0260
     20 C          57.8015   80.3145    7.6958 C.ar    1  UNL1        0.0597
     21 CL         57.5396   79.7686    6.0494 Cl      1  UNL1       -0.0822
     22 C          57.7801   79.3945    8.7485 C.ar    1  UNL1        0.0229
     23 C          57.9873   79.8284   10.0614 C.ar    1  UNL1        0.0597
     24 CL         57.9694   78.6720   11.3804 Cl      1  UNL1       -0.0822
     25 C          58.2146   81.1839   10.3229 C.ar    1  UNL1        0.0260
     26 C          65.8206   90.1458   13.6838 C.3     1  UNL1        0.1535
     27 C          66.2494   91.2100   12.7054 C.2     1  UNL1        0.2443
     28 O          66.6992   92.3078   13.1340 O.2     1  UNL1       -0.2730
     29 N          66.1662   90.9571   11.2939 N.am    1  UNL1       -0.2825
     30 H          65.5196   90.2023   10.9703 H       1  UNL1        0.1549
     31 C          66.8835   91.7017   10.2949 C.ar    1  UNL1        0.0535
     32 C          67.9758   91.1479    9.6049 C.ar    1  UNL1        0.0353
     33 C          68.6192   91.8983    8.6177 C.ar    1  UNL1        0.1002
     34 N          68.1825   93.1501    8.3183 N.ar    1  UNL1       -0.2422
     35 C          67.1180   93.7040    8.9565 C.ar    1  UNL1        0.1002
     36 C          66.4451   92.9871    9.9486 C.ar    1  UNL1        0.0353
     37 C          65.1079   90.7804   14.8933 C.3     1  UNL1        0.0569
     38 C          63.9506   89.9422   15.3594 C.ar    1  UNL1       -0.0017
     39 C          62.7855   90.4043   15.9648 C.ar    1  UNL1        0.0681
     40 N          62.0112   89.3657   16.3534 N.ar    1  UNL1       -0.3523
     41 C          62.6814   88.2529   16.0072 C.ar    1  UNL1        0.0563
     42 C          62.2950   86.9315   16.2263 C.ar    1  UNL1        0.0170
     43 C          63.1677   85.9124   15.8027 C.ar    1  UNL1        0.0015
     44 C          64.3946   86.2335   15.1803 C.ar    1  UNL1        0.0001
     45 C          64.7598   87.5764   14.9749 C.ar    1  UNL1        0.0012
     46 C          63.8716   88.5641   15.4009 C.ar    1  UNL1        0.0131
     47 H          61.0899   89.4217   16.8416 H       1  UNL1        0.1660
@<TRIPOS>BOND
     1     1     2    2
     2     2     3   am
     3     3    26    1
     4    26    37    1
     5    37    38    1
     6    38    39   ar
     7    39    40   ar
     8    40    41   ar
     9    41    42   ar
    10    42    43   ar
    11    43    44   ar
    12    44    45   ar
    13    45    46   ar
    14    26    27    1
    15    27    28    2
    16    27    29   am
    17    29    31    1
    18    31    32   ar
    19    32    33   ar
    20    33    34   ar
    21    34    35   ar
    22    35    36   ar
    23     2     5    1
    24     5     6   ar
    25     6     7   ar
    26     7     8   ar
    27     8    12    1
    28    12    13    1
    29    13    14    1
    30    14    15    1
    31    15    18    1
    32    18    19   ar
    33    19    20   ar
    34    20    21    1
    35    20    22   ar
    36    22    23   ar
    37    23    24    1
    38    23    25   ar
    39    15    16    1
    40    16    17    1
    41     8     9   ar
    42     9    10   ar
    43    10    11    1
    44    46    38   ar
    45    36    31   ar
    46    10     5   ar
    47    46    41   ar
    48    17    12    1
    49    25    18   ar
    50     3     4    1
    51    40    47    1
    52    29    30    1
@<TRIPOS>MOLECULE
*****
 47 52 0 0 0
SMALL
GASTEIGER

@<TRIPOS>ATOM
      1 O          58.3401   82.2769   11.6475 O.2     1  UNL1       -0.2701
      2 C          59.3217   82.3991   12.4305 C.2     1  UNL1        0.2483
      3 N          59.7452   81.2776   13.2226 N.am    1  UNL1       -0.2945
      4 H          60.4000   81.4445   14.0200 H       1  UNL1        0.1501
      5 C          60.0019   83.7091   12.5413 C.ar    1  UNL1        0.0808
      6 C          61.2938   83.8661   12.0142 C.ar    1  UNL1        0.0080
      7 C          61.9543   85.0938   12.1044 C.ar    1  UNL1        0.0148
      8 C          61.3410   86.1911   12.7326 C.ar    1  UNL1        0.0502
      9 C          60.0570   86.0274   13.2800 C.ar    1  UNL1        0.0443
     10 C          59.3923   84.8003   13.1895 C.ar    1  UNL1        0.1457
     11 F          58.1761   84.6735   13.7782 F       1  UNL1       -0.2040
     12 N          62.0253   87.4591   12.8326 N.pl3   1  UNL1       -0.3040
     13 C          62.3966   88.1770   11.6006 C.3     1  UNL1        0.1122
     14 C          62.7959   89.6230   11.8967 C.3     1  UNL1        0.1122
     15 N          63.7744   89.6435   12.9897 N.pl3   1  UNL1       -0.3040
     16 C          63.5146   88.8753   14.2163 C.3     1  UNL1        0.1122
     17 C          62.1843   88.1120   14.1427 C.3     1  UNL1        0.1122
     18 C          65.0279   90.3350   12.8379 C.ar    1  UNL1        0.0496
     19 C          65.8273   90.6139   13.9594 C.ar    1  UNL1        0.0260
     20 C          67.0506   91.2761   13.8082 C.ar    1  UNL1        0.0597
     21 CL         68.0371   91.6274   15.2155 Cl      1  UNL1       -0.0822
     22 C          67.4862   91.6601   12.5362 C.ar    1  UNL1        0.0229
     23 C          66.7002   91.3818   11.4138 C.ar    1  UNL1        0.0597
     24 CL         67.2520   91.8558    9.8176 Cl      1  UNL1       -0.0822
     25 C          65.4764   90.7204   11.5629 C.ar    1  UNL1        0.0260
     26 C          59.2275   79.9251   12.9897 C.3     1  UNL1        0.1535
     27 C          58.7738   79.7863   11.5584 C.2     1  UNL1        0.2443
     28 O          57.5987   79.4004   11.3103 O.2     1  UNL1       -0.2730
     29 N          59.6737   80.1179   10.4891 N.am    1  UNL1       -0.2825
     30 H          60.6980   80.1255   10.6974 H       1  UNL1        0.1549
     31 C          59.2598   80.4002    9.1415 C.ar    1  UNL1        0.0535
     32 C          57.9292   80.2202    8.7254 C.ar    1  UNL1        0.0353
     33 C          57.5678   80.5416    7.4148 C.ar    1  UNL1        0.1002
     34 N          58.4946   81.0373    6.5529 N.ar    1  UNL1       -0.2422
     35 C          59.7839   81.2385    6.9328 C.ar    1  UNL1        0.1002
     36 C          60.1868   80.9320    8.2347 C.ar    1  UNL1        0.0353
     37 C          60.3039   78.8732   13.3189 C.3     1  UNL1        0.0569
     38 C          61.6394   79.5090   13.5860 C.ar    1  UNL1       -0.0017
     39 C          62.2610   79.6382   14.8247 C.ar    1  UNL1        0.0681
     40 N          63.3990   80.3599   14.7092 N.ar    1  UNL1       -0.3523
     41 C          63.4959   80.6952   13.4109 C.ar    1  UNL1        0.0563
     42 C          64.4910   81.4638   12.8089 C.ar    1  UNL1        0.0170
     43 C          64.3820   81.7169   11.4292 C.ar    1  UNL1        0.0015
     44 C          63.2912   81.2051   10.6915 C.ar    1  UNL1        0.0001
     45 C          62.2999   80.4349   11.3264 C.ar    1  UNL1        0.0012
     46 C          62.4383   80.1967   12.6939 C.ar    1  UNL1        0.0131
     47 H          64.0552   80.6191   15.4789 H       1  UNL1        0.1660
@<TRIPOS>BOND
     1     1     2    2
     2     2     3   am
     3     3    26    1
     4    26    37    1
     5    37    38    1
     6    38    39   ar
     7    39    40   ar
     8    40    41   ar
     9    41    42   ar
    10    42    43   ar
    11    43    44   ar
    12    44    45   ar
    13    45    46   ar
    14    26    27    1
    15    27    28    2
    16    27    29   am
    17    29    31    1
    18    31    32   ar
    19    32    33   ar
    20    33    34   ar
    21    34    35   ar
    22    35    36   ar
    23     2     5    1
    24     5     6   ar
    25     6     7   ar
    26     7     8   ar
    27     8    12    1
    28    12    13    1
    29    13    14    1
    30    14    15    1
    31    15    18    1
    32    18    19   ar
    33    19    20   ar
    34    20    21    1
    35    20    22   ar
    36    22    23   ar
    37    23    24    1
    38    23    25   ar
    39    15    16    1
    40    16    17    1
    41     8     9   ar
    42     9    10   ar
    43    10    11    1
    44    46    38   ar
    45    36    31   ar
    46    10     5   ar
    47    46    41   ar
    48    17    12    1
    49    25    18   ar
    50     3     4    1
    51    40    47    1
    52    29    30    1
@<TRIPOS>MOLECULE
*****
 47 52 0 0 0
SMALL
GASTEIGER

@<TRIPOS>ATOM
      1 O          58.3222   82.3202   11.5629 O.2     1  UNL1       -0.2701
      2 C          59.3172   82.4271   12.3311 C.2     1  UNL1        0.2483
      3 N          59.7231   81.3052   13.1316 N.am    1  UNL1       -0.2945
      4 H          60.3929   81.4651   13.9180 H       1  UNL1        0.1501
      5 C          60.0318   83.7207   12.4160 C.ar    1  UNL1        0.0808
      6 C          59.8458   84.5430   13.5388 C.ar    1  UNL1        0.0080
      7 C          60.5117   85.7667   13.6423 C.ar    1  UNL1        0.0148
      8 C          61.3726   86.2008   12.6199 C.ar    1  UNL1        0.0502
      9 C          61.5411   85.3880   11.4858 C.ar    1  UNL1        0.0443
     10 C          60.8775   84.1615   11.3802 C.ar    1  UNL1        0.1457
     11 F          61.0294   83.4347   10.2442 F       1  UNL1       -0.2040
     12 N          62.0565   87.4688   12.7223 N.pl3   1  UNL1       -0.3040
     13 C          62.4123   88.1974   11.4921 C.3     1  UNL1        0.1122
     14 C          62.8133   89.6414   11.7955 C.3     1  UNL1        0.1122
     15 N          63.8046   89.6542   12.8769 N.pl3   1  UNL1       -0.3040
     16 C          63.5603   88.8754   14.1001 C.3     1  UNL1        0.1122
     17 C          62.2302   88.1110   14.0359 C.3     1  UNL1        0.1122
     18 C          65.0554   90.3485   12.7161 C.ar    1  UNL1        0.0496
     19 C          65.4743   90.7750   11.4444 C.ar    1  UNL1        0.0260
     20 C          66.6850   91.4596   11.2920 C.ar    1  UNL1        0.0597
     21 CL         67.2033   91.9802    9.6990 Cl      1  UNL1       -0.0822
     22 C          67.4833   91.7272   12.4084 C.ar    1  UNL1        0.0229
     23 C          67.0720   91.3117   13.6784 C.ar    1  UNL1        0.0597
     24 CL         68.0698   91.6559   15.0795 Cl      1  UNL1       -0.0822
     25 C          65.8621   90.6264   13.8330 C.ar    1  UNL1        0.0260
     26 C          59.1683   79.9635   12.9229 C.3     1  UNL1        0.1535
     27 C          58.7437   79.7992   11.4854 C.2     1  UNL1        0.2443
     28 O          57.5895   79.3642   11.2208 O.2     1  UNL1       -0.2730
     29 N          59.6463   80.1621   10.4286 N.am    1  UNL1       -0.2825
     30 H          60.6660   80.2128   10.6532 H       1  UNL1        0.1549
     31 C          59.2430   80.4207    9.0731 C.ar    1  UNL1        0.0535
     32 C          57.9267   80.1881    8.6381 C.ar    1  UNL1        0.0353
     33 C          57.5737   80.4879    7.3201 C.ar    1  UNL1        0.1002
     34 N          58.4943   81.0132    6.4692 N.ar    1  UNL1       -0.2422
     35 C          59.7691   81.2652    6.8673 C.ar    1  UNL1        0.1002
     36 C          60.1631   80.9819    8.1772 C.ar    1  UNL1        0.0353
     37 C          60.2028   78.8881   13.3062 C.3     1  UNL1        0.0569
     38 C          61.5453   79.4915   13.6106 C.ar    1  UNL1       -0.0017
     39 C          62.1503   79.5748   14.8614 C.ar    1  UNL1        0.0681
     40 N          63.3027   80.2783   14.7828 N.ar    1  UNL1       -0.3523
     41 C          63.4254   80.6476   13.4959 C.ar    1  UNL1        0.0563
     42 C          64.4432   81.4141   12.9303 C.ar    1  UNL1        0.0170
     43 C          64.3598   81.7072   11.5567 C.ar    1  UNL1        0.0015
     44 C          63.2713   81.2362   10.7892 C.ar    1  UNL1        0.0001
     45 C          62.2567   80.4672   11.3877 C.ar    1  UNL1        0.0012
     46 C          62.3700   80.1887   12.7498 C.ar    1  UNL1        0.0131
     47 H          63.9518   80.5040   15.5690 H       1  UNL1        0.1660
@<TRIPOS>BOND
     1     1     2    2
     2     2     3   am
     3     3    26    1
     4    26    37    1
     5    37    38    1
     6    38    39   ar
     7    39    40   ar
     8    40    41   ar
     9    41    42   ar
    10    42    43   ar
    11    43    44   ar
    12    44    45   ar
    13    45    46   ar
    14    26    27    1
    15    27    28    2
    16    27    29   am
    17    29    31    1
    18    31    32   ar
    19    32    33   ar
    20    33    34   ar
    21    34    35   ar
    22    35    36   ar
    23     2     5    1
    24     5     6   ar
    25     6     7   ar
    26     7     8   ar
    27     8    12    1
    28    12    13    1
    29    13    14    1
    30    14    15    1
    31    15    18    1
    32    18    19   ar
    33    19    20   ar
    34    20    21    1
    35    20    22   ar
    36    22    23   ar
    37    23    24    1
    38    23    25   ar
    39    15    16    1
    40    16    17    1
    41     8     9   ar
    42     9    10   ar
    43    10    11    1
    44    46    38   ar
    45    36    31   ar
    46    10     5   ar
    47    46    41   ar
    48    17    12    1
    49    25    18   ar
    50     3     4    1
    51    40    47    1
    52    29    30    1
@<TRIPOS>MOLECULE
*****
 47 52 0 0 0
SMALL
GASTEIGER

@<TRIPOS>ATOM
      1 O          60.5943   84.0297    9.5769 O.2     1  UNL1       -0.2701
      2 C          59.9916   85.1157    9.7986 C.2     1  UNL1        0.2483
      3 N          59.3095   85.3098   11.0480 N.am    1  UNL1       -0.2945
      4 H          58.6348   86.1035   11.1341 H       1  UNL1        0.1501
      5 C          59.9732   86.1613    8.7510 C.ar    1  UNL1        0.0808
      6 C          60.9080   87.2079    8.7997 C.ar    1  UNL1        0.0080
      7 C          60.9116   88.2044    7.8206 C.ar    1  UNL1        0.0148
      8 C          59.9734   88.1821    6.7744 C.ar    1  UNL1        0.0502
      9 C          59.0236   87.1469    6.7385 C.ar    1  UNL1        0.0443
     10 C          59.0187   86.1468    7.7160 C.ar    1  UNL1        0.1457
     11 F          58.0505   85.1968    7.6708 F       1  UNL1       -0.2040
     12 N          59.9716   89.2153    5.7652 N.pl3   1  UNL1       -0.3040
     13 C          58.7122   89.5479    5.0764 C.3     1  UNL1        0.1122
     14 C          58.8285   90.8640    4.3067 C.3     1  UNL1        0.1122
     15 N          60.0421   90.8403    3.4826 N.pl3   1  UNL1       -0.3040
     16 C          61.3216   90.4294    4.0795 C.3     1  UNL1        0.1122
     17 C          61.1672   90.0495    5.5592 C.3     1  UNL1        0.1122
     18 C          59.9765   91.1280    2.0736 C.ar    1  UNL1        0.0496
     19 C          58.7399   91.3784    1.4550 C.ar    1  UNL1        0.0260
     20 C          58.6796   91.6689    0.0877 C.ar    1  UNL1        0.0597
     21 CL         57.1301   91.9714   -0.6769 Cl      1  UNL1       -0.0822
     22 C          59.8537   91.7159   -0.6704 C.ar    1  UNL1        0.0229
     23 C          61.0893   91.4737   -0.0625 C.ar    1  UNL1        0.0597
     24 CL         62.5623   91.5420   -1.0125 Cl      1  UNL1       -0.0822
     25 C          61.1517   91.1824    1.3045 C.ar    1  UNL1        0.0260
     26 C          59.4774   84.3850   12.1742 C.3     1  UNL1        0.1535
     27 C          59.8275   85.1529   13.4238 C.2     1  UNL1        0.2443
     28 O          59.1882   84.9366   14.4895 O.2     1  UNL1       -0.2730
     29 N          60.9016   86.1062   13.3983 N.am    1  UNL1       -0.2825
     30 H          61.1932   86.4886   12.4703 H       1  UNL1        0.1549
     31 C          61.5742   86.5987   14.5697 C.ar    1  UNL1        0.0535
     32 C          61.7091   85.8136   15.7278 C.ar    1  UNL1        0.0353
     33 C          62.4018   86.3232   16.8287 C.ar    1  UNL1        0.1002
     34 N          62.9524   87.5647   16.7741 N.ar    1  UNL1       -0.2422
     35 C          62.8532   88.3388   15.6614 C.ar    1  UNL1        0.1002
     36 C          62.1707   87.8666   14.5379 C.ar    1  UNL1        0.0353
     37 C          58.1937   83.5608   12.3893 C.3     1  UNL1        0.0569
     38 C          58.1319   82.3767   11.4655 C.ar    1  UNL1       -0.0017
     39 C          57.7486   82.3907   10.1275 C.ar    1  UNL1        0.0681
     40 N          57.7030   81.1315    9.6360 N.ar    1  UNL1       -0.3523
     41 C          58.0447   80.3228   10.6541 C.ar    1  UNL1        0.0563
     42 C          58.1145   78.9306   10.6404 C.ar    1  UNL1        0.0170
     43 C          58.4708   78.2782   11.8350 C.ar    1  UNL1        0.0015
     44 C          58.7424   79.0235   13.0040 C.ar    1  UNL1        0.0001
     45 C          58.6610   80.4279   12.9892 C.ar    1  UNL1        0.0012
     46 C          58.3106   81.0460   11.7887 C.ar    1  UNL1        0.0131
     47 H          57.4358   80.8483    8.6671 H       1  UNL1        0.1660
@<TRIPOS>BOND
     1     1     2    2
     2     2     3   am
     3     3    26    1
     4    26    37    1
     5    37    38    1
     6    38    39   ar
     7    39    40   ar
     8    40    41   ar
     9    41    42   ar
    10    42    43   ar
    11    43    44   ar
    12    44    45   ar
    13    45    46   ar
    14    26    27    1
    15    27    28    2
    16    27    29   am
    17    29    31    1
    18    31    32   ar
    19    32    33   ar
    20    33    34   ar
    21    34    35   ar
    22    35    36   ar
    23     2     5    1
    24     5     6   ar
    25     6     7   ar
    26     7     8   ar
    27     8    12    1
    28    12    13    1
    29    13    14    1
    30    14    15    1
    31    15    18    1
    32    18    19   ar
    33    19    20   ar
    34    20    21    1
    35    20    22   ar
    36    22    23   ar
    37    23    24    1
    38    23    25   ar
    39    15    16    1
    40    16    17    1
    41     8     9   ar
    42     9    10   ar
    43    10    11    1
    44    46    38   ar
    45    36    31   ar
    46    10     5   ar
    47    46    41   ar
    48    17    12    1
    49    25    18   ar
    50     3     4    1
    51    40    47    1
    52    29    30    1
@<TRIPOS>MOLECULE
*****
 47 52 0 0 0
SMALL
GASTEIGER

@<TRIPOS>ATOM
      1 O          60.3484   84.1624    9.3329 O.2     1  UNL1       -0.2701
      2 C          59.8764   85.3028    9.5940 C.2     1  UNL1        0.2483
      3 N          59.2630   85.5448   10.8705 N.am    1  UNL1       -0.2945
      4 H          58.6828   86.4055   10.9940 H       1  UNL1        0.1501
      5 C          59.9367   86.3652    8.5651 C.ar    1  UNL1        0.0808
      6 C          59.0795   86.3043    7.4547 C.ar    1  UNL1        0.0080
      7 C          59.1163   87.2970    6.4724 C.ar    1  UNL1        0.0148
      8 C          60.0187   88.3695    6.5735 C.ar    1  UNL1        0.0502
      9 C          60.8922   88.4183    7.6733 C.ar    1  UNL1        0.0443
     10 C          60.8563   87.4272    8.6594 C.ar    1  UNL1        0.1457
     11 F          61.7537   87.4871    9.6758 F       1  UNL1       -0.2040
     12 N          60.0627   89.3930    5.5553 N.pl3   1  UNL1       -0.3040
     13 C          58.8023   89.8789    4.9667 C.3     1  UNL1        0.1122
     14 C          59.0179   91.1687    4.1743 C.3     1  UNL1        0.1122
     15 N          60.1475   90.9921    3.2550 N.pl3   1  UNL1       -0.3040
     16 C          61.4106   90.4258    3.7512 C.3     1  UNL1        0.1122
     17 C          61.3318   90.0710    5.2430 C.3     1  UNL1        0.1122
     18 C          60.0031   91.2830    1.8525 C.ar    1  UNL1        0.0496
     19 C          61.1368   91.4821    1.0465 C.ar    1  UNL1        0.0260
     20 C          60.9944   91.7536   -0.3187 C.ar    1  UNL1        0.0597
     21 CL         62.4156   92.0093   -1.3147 Cl      1  UNL1       -0.0822
     22 C          59.7198   91.8235   -0.8893 C.ar    1  UNL1        0.0229
     23 C          58.5861   91.6211   -0.0964 C.ar    1  UNL1        0.0597
     24 CL         56.9878   91.7000   -0.8151 Cl      1  UNL1       -0.0822
     25 C          58.7262   91.3502    1.2690 C.ar    1  UNL1        0.0260
     26 C          59.3671   84.5848   11.9745 C.3     1  UNL1        0.1535
     27 C          59.7092   85.3057   13.2539 C.2     1  UNL1        0.2443
     28 O          59.0005   85.1247   14.2816 O.2     1  UNL1       -0.2730
     29 N          60.8531   86.1733   13.3004 N.am    1  UNL1       -0.2825
     30 H          61.2212   86.5449   12.3954 H       1  UNL1        0.1549
     31 C          61.4993   86.5959   14.5131 C.ar    1  UNL1        0.0535
     32 C          61.5495   85.7693   15.6489 C.ar    1  UNL1        0.0353
     33 C          62.2194   86.2102   16.7928 C.ar    1  UNL1        0.1002
     34 N          62.8295   87.4248   16.8013 N.ar    1  UNL1       -0.2422
     35 C          62.8126   88.2372   15.7118 C.ar    1  UNL1        0.1002
     36 C          62.1555   87.8339   14.5471 C.ar    1  UNL1        0.0353
     37 C          58.0498   83.8016   12.1323 C.3     1  UNL1        0.0569
     38 C          58.0402   82.5549   11.2927 C.ar    1  UNL1       -0.0017
     39 C          57.6601   82.4602    9.9570 C.ar    1  UNL1        0.0681
     40 N          57.6687   81.1692    9.5539 N.ar    1  UNL1       -0.3523
     41 C          58.0414   80.4480   10.6254 C.ar    1  UNL1        0.0563
     42 C          58.1697   79.0623   10.7080 C.ar    1  UNL1        0.0170
     43 C          58.5499   78.5097   11.9448 C.ar    1  UNL1        0.0015
     44 C          58.7870   79.3448   13.0594 C.ar    1  UNL1        0.0001
     45 C          58.6467   80.7401   12.9474 C.ar    1  UNL1        0.0012
     46 C          58.2738   81.2585   11.7072 C.ar    1  UNL1        0.0131
     47 H          57.4161   80.8087    8.6070 H       1  UNL1        0.1660
@<TRIPOS>BOND
     1     1     2    2
     2     2     3   am
     3     3    26    1
     4    26    37    1
     5    37    38    1
     6    38    39   ar
     7    39    40   ar
     8    40    41   ar
     9    41    42   ar
    10    42    43   ar
    11    43    44   ar
    12    44    45   ar
    13    45    46   ar
    14    26    27    1
    15    27    28    2
    16    27    29   am
    17    29    31    1
    18    31    32   ar
    19    32    33   ar
    20    33    34   ar
    21    34    35   ar
    22    35    36   ar
    23     2     5    1
    24     5     6   ar
    25     6     7   ar
    26     7     8   ar
    27     8    12    1
    28    12    13    1
    29    13    14    1
    30    14    15    1
    31    15    18    1
    32    18    19   ar
    33    19    20   ar
    34    20    21    1
    35    20    22   ar
    36    22    23   ar
    37    23    24    1
    38    23    25   ar
    39    15    16    1
    40    16    17    1
    41     8     9   ar
    42     9    10   ar
    43    10    11    1
    44    46    38   ar
    45    36    31   ar
    46    10     5   ar
    47    46    41   ar
    48    17    12    1
    49    25    18   ar
    50     3     4    1
    51    40    47    1
    52    29    30    1
@<TRIPOS>MOLECULE
*****
 47 52 0 0 0
SMALL
GASTEIGER

@<TRIPOS>ATOM
      1 O          60.1381   84.2299    9.7604 O.2     1  UNL1       -0.2701
      2 C          59.7196   85.3973    9.9923 C.2     1  UNL1        0.2483
      3 N          59.1477   85.7079   11.2732 N.am    1  UNL1       -0.2945
      4 H          58.6063   86.5957   11.3798 H       1  UNL1        0.1501
      5 C          59.7982   86.4207    8.9257 C.ar    1  UNL1        0.0808
      6 C          59.1013   86.2233    7.7228 C.ar    1  UNL1        0.0080
      7 C          59.1582   87.1766    6.7032 C.ar    1  UNL1        0.0148
      8 C          59.9217   88.3460    6.8597 C.ar    1  UNL1        0.0502
      9 C          60.6372   88.5328    8.0548 C.ar    1  UNL1        0.0443
     10 C          60.5806   87.5813    9.0782 C.ar    1  UNL1        0.1457
     11 F          61.3292   87.7786   10.1929 F       1  UNL1       -0.2040
     12 N          59.9870   89.3293    5.8038 N.pl3   1  UNL1       -0.3040
     13 C          58.7446   89.7495    5.1322 C.3     1  UNL1        0.1122
     14 C          58.9611   91.0134    4.2993 C.3     1  UNL1        0.1122
     15 N          60.1421   90.8381    3.4469 N.pl3   1  UNL1       -0.3040
     16 C          61.3945   90.3342    4.0297 C.3     1  UNL1        0.1122
     17 C          61.2490   90.0362    5.5289 C.3     1  UNL1        0.1122
     18 C          60.0622   91.0684    2.0280 C.ar    1  UNL1        0.0496
     19 C          58.8167   91.2651    1.4079 C.ar    1  UNL1        0.0260
     20 C          58.7423   91.5000    0.0306 C.ar    1  UNL1        0.0597
     21 CL         57.1820   91.7357   -0.7356 Cl      1  UNL1       -0.0822
     22 C          59.9108   91.5448   -0.7360 C.ar    1  UNL1        0.0229
     23 C          61.1551   91.3558   -0.1269 C.ar    1  UNL1        0.0597
     24 CL         62.6210   91.4212   -1.0880 Cl      1  UNL1       -0.0822
     25 C          61.2317   91.1201    1.2501 C.ar    1  UNL1        0.0260
     26 C          59.2393   84.7824   12.4074 C.3     1  UNL1        0.1535
     27 C          58.4956   83.5085   12.0946 C.2     1  UNL1        0.2443
     28 O          57.3851   83.5639   11.4988 O.2     1  UNL1       -0.2730
     29 N          59.0679   82.2412   12.4544 N.am    1  UNL1       -0.2825
     30 H          59.8004   82.2302   13.2000 H       1  UNL1        0.1549
     31 C          58.6701   80.9827   11.8844 C.ar    1  UNL1        0.0535
     32 C          58.2757   80.8737   10.5396 C.ar    1  UNL1        0.0353
     33 C          57.9313   79.6227   10.0219 C.ar    1  UNL1        0.1002
     34 N          57.9904   78.5174   10.8107 N.ar    1  UNL1       -0.2422
     35 C          58.3852   78.5902   12.1092 C.ar    1  UNL1        0.1002
     36 C          58.7399   79.8213   12.6658 C.ar    1  UNL1        0.0353
     37 C          60.7136   84.4794   12.7367 C.3     1  UNL1        0.0569
     38 C          61.1430   85.1356   14.0190 C.ar    1  UNL1       -0.0017
     39 C          60.6993   84.8180   15.2996 C.ar    1  UNL1        0.0681
     40 N          61.2100   85.6836   16.2046 N.ar    1  UNL1       -0.3523
     41 C          61.9641   86.5497   15.5057 C.ar    1  UNL1        0.0563
     42 C          62.6742   87.6424   16.0010 C.ar    1  UNL1        0.0170
     43 C          63.3812   88.4386   15.0814 C.ar    1  UNL1        0.0015
     44 C          63.3597   88.1305   13.7028 C.ar    1  UNL1        0.0001
     45 C          62.6317   87.0230   13.2312 C.ar    1  UNL1        0.0012
     46 C          61.9453   86.2497   14.1676 C.ar    1  UNL1        0.0131
     47 H          61.0346   85.6869   17.2340 H       1  UNL1        0.1660
@<TRIPOS>BOND
     1     1     2    2
     2     2     3   am
     3     3    26    1
     4    26    37    1
     5    37    38    1
     6    38    39   ar
     7    39    40   ar
     8    40    41   ar
     9    41    42   ar
    10    42    43   ar
    11    43    44   ar
    12    44    45   ar
    13    45    46   ar
    14    26    27    1
    15    27    28    2
    16    27    29   am
    17    29    31    1
    18    31    32   ar
    19    32    33   ar
    20    33    34   ar
    21    34    35   ar
    22    35    36   ar
    23     2     5    1
    24     5     6   ar
    25     6     7   ar
    26     7     8   ar
    27     8    12    1
    28    12    13    1
    29    13    14    1
    30    14    15    1
    31    15    18    1
    32    18    19   ar
    33    19    20   ar
    34    20    21    1
    35    20    22   ar
    36    22    23   ar
    37    23    24    1
    38    23    25   ar
    39    15    16    1
    40    16    17    1
    41     8     9   ar
    42     9    10   ar
    43    10    11    1
    44    46    38   ar
    45    36    31   ar
    46    10     5   ar
    47    46    41   ar
    48    17    12    1
    49    25    18   ar
    50     3     4    1
    51    40    47    1
    52    29    30    1
@<TRIPOS>MOLECULE
*****
 47 52 0 0 0
SMALL
GASTEIGER

@<TRIPOS>ATOM
      1 O          60.1622   84.2535    9.8127 O.2     1  UNL1       -0.2701
      2 C          59.7264   85.4203   10.0129 C.2     1  UNL1        0.2483
      3 N          59.1528   85.7580   11.2863 N.am    1  UNL1       -0.2945
      4 H          58.5982   86.6400   11.3695 H       1  UNL1        0.1501
      5 C          59.7867   86.4145    8.9179 C.ar    1  UNL1        0.0808
      6 C          60.5538   87.5792    9.0806 C.ar    1  UNL1        0.0080
      7 C          60.6282   88.5302    8.0599 C.ar    1  UNL1        0.0148
      8 C          59.9288   88.3423    6.8555 C.ar    1  UNL1        0.0502
      9 C          59.1430   87.1874    6.7017 C.ar    1  UNL1        0.0443
     10 C          59.0683   86.2325    7.7208 C.ar    1  UNL1        0.1457
     11 F          58.2559   85.1590    7.5490 F       1  UNL1       -0.2040
     12 N          59.9992   89.3278    5.8020 N.pl3   1  UNL1       -0.3040
     13 C          58.7584   89.7606    5.1355 C.3     1  UNL1        0.1122
     14 C          58.9831   91.0248    4.3053 C.3     1  UNL1        0.1122
     15 N          60.1599   90.8416    3.4486 N.pl3   1  UNL1       -0.3040
     16 C          61.4098   90.3253    4.0261 C.3     1  UNL1        0.1122
     17 C          61.2664   90.0245    5.5250 C.3     1  UNL1        0.1122
     18 C          60.0775   91.0764    2.0306 C.ar    1  UNL1        0.0496
     19 C          61.2441   91.1317    1.2493 C.ar    1  UNL1        0.0260
     20 C          61.1610   91.3487   -0.1304 C.ar    1  UNL1        0.0597
     21 CL         62.6238   91.4248   -1.0957 Cl      1  UNL1       -0.0822
     22 C          59.9127   91.5073   -0.7401 C.ar    1  UNL1        0.0229
     23 C          58.7461   91.4482    0.0282 C.ar    1  UNL1        0.0597
     24 CL         57.1801   91.6382   -0.7391 Cl      1  UNL1       -0.0822
     25 C          58.8270   91.2320    1.4081 C.ar    1  UNL1        0.0260
     26 C          59.2614   84.8661   12.4457 C.3     1  UNL1        0.1535
     27 C          58.5164   83.5824   12.1800 C.2     1  UNL1        0.2443
     28 O          57.3607   83.6237   11.6760 O.2     1  UNL1       -0.2730
     29 N          59.1370   82.3220   12.4792 N.am    1  UNL1       -0.2825
     30 H          59.9271   82.3169   13.1634 H       1  UNL1        0.1549
     31 C          58.7157   81.0620   11.9295 C.ar    1  UNL1        0.0535
     32 C          58.2959   80.9435   10.5933 C.ar    1  UNL1        0.0353
     33 C          57.9291   79.6910   10.0950 C.ar    1  UNL1        0.1002
     34 N          57.9909   78.5933   10.8940 N.ar    1  UNL1       -0.2422
     35 C          58.4100   78.6752   12.1843 C.ar    1  UNL1        0.1002
     36 C          58.7876   79.9080   12.7216 C.ar    1  UNL1        0.0353
     37 C          60.7405   84.5756   12.7642 C.3     1  UNL1        0.0569
     38 C          61.1632   85.2031   14.0630 C.ar    1  UNL1       -0.0017
     39 C          60.7276   84.8441   15.3354 C.ar    1  UNL1        0.0681
     40 N          61.2275   85.6924   16.2625 N.ar    1  UNL1       -0.3523
     41 C          61.9665   86.5886   15.5858 C.ar    1  UNL1        0.0563
     42 C          62.6612   87.6782   16.1091 C.ar    1  UNL1        0.0170
     43 C          63.3537   88.5098   15.2100 C.ar    1  UNL1        0.0015
     44 C          63.3333   88.2390   13.8236 C.ar    1  UNL1        0.0001
     45 C          62.6209   87.1337   13.3236 C.ar    1  UNL1        0.0012
     46 C          61.9488   86.3249   14.2400 C.ar    1  UNL1        0.0131
     47 H          61.0548   85.6651   17.2920 H       1  UNL1        0.1660
@<TRIPOS>BOND
     1     1     2    2
     2     2     3   am
     3     3    26    1
     4    26    37    1
     5    37    38    1
     6    38    39   ar
     7    39    40   ar
     8    40    41   ar
     9    41    42   ar
    10    42    43   ar
    11    43    44   ar
    12    44    45   ar
    13    45    46   ar
    14    26    27    1
    15    27    28    2
    16    27    29   am
    17    29    31    1
    18    31    32   ar
    19    32    33   ar
    20    33    34   ar
    21    34    35   ar
    22    35    36   ar
    23     2     5    1
    24     5     6   ar
    25     6     7   ar
    26     7     8   ar
    27     8    12    1
    28    12    13    1
    29    13    14    1
    30    14    15    1
    31    15    18    1
    32    18    19   ar
    33    19    20   ar
    34    20    21    1
    35    20    22   ar
    36    22    23   ar
    37    23    24    1
    38    23    25   ar
    39    15    16    1
    40    16    17    1
    41     8     9   ar
    42     9    10   ar
    43    10    11    1
    44    46    38   ar
    45    36    31   ar
    46    10     5   ar
    47    46    41   ar
    48    17    12    1
    49    25    18   ar
    50     3     4    1
    51    40    47    1
    52    29    30    1
@<TRIPOS>MOLECULE
*****
 47 52 0 0 0
SMALL
GASTEIGER

@<TRIPOS>ATOM
      1 O          60.6098   84.4903    9.6295 O.2     1  UNL1       -0.2701
      2 C          59.9911   85.5805    9.7721 C.2     1  UNL1        0.2483
      3 N          59.2548   85.8291   10.9805 N.am    1  UNL1       -0.2945
      4 H          58.5719   86.6203   10.9989 H       1  UNL1        0.1501
      5 C          60.0108   86.5739    8.6749 C.ar    1  UNL1        0.0808
      6 C          60.9007   87.6582    8.7373 C.ar    1  UNL1        0.0080
      7 C          60.9391   88.6066    7.7123 C.ar    1  UNL1        0.0148
      8 C          60.0811   88.4973    6.6047 C.ar    1  UNL1        0.0502
      9 C          59.1748   87.4245    6.5533 C.ar    1  UNL1        0.0443
     10 C          59.1354   86.4723    7.5768 C.ar    1  UNL1        0.1457
     11 F          58.2084   85.4832    7.5107 F       1  UNL1       -0.2040
     12 N          60.1149   89.4808    5.5474 N.pl3   1  UNL1       -0.3040
     13 C          58.8491   89.9403    4.9495 C.3     1  UNL1        0.1122
     14 C          59.0553   91.1991    4.1063 C.3     1  UNL1        0.1122
     15 N          60.1790   90.9901    3.1866 N.pl3   1  UNL1       -0.3040
     16 C          61.4472   90.4468    3.6953 C.3     1  UNL1        0.1122
     17 C          61.3798   90.1497    5.2002 C.3     1  UNL1        0.1122
     18 C          60.0239   91.2262    1.7749 C.ar    1  UNL1        0.0496
     19 C          58.7428   91.3251    1.2063 C.ar    1  UNL1        0.0260
     20 C          58.5945   91.5659   -0.1640 C.ar    1  UNL1        0.0597
     21 CL         56.9907   91.6790   -0.8658 Cl      1  UNL1       -0.0822
     22 C          59.7238   91.7142   -0.9749 C.ar    1  UNL1        0.0229
     23 C          61.0027   91.6230   -0.4171 C.ar    1  UNL1        0.0597
     24 CL         62.4188   91.8182   -1.4338 Cl      1  UNL1       -0.0822
     25 C          61.1532   91.3816    0.9527 C.ar    1  UNL1        0.0260
     26 C          59.3803   84.9616   12.1565 C.3     1  UNL1        0.1535
     27 C          59.8121   85.7731   13.3518 C.2     1  UNL1        0.2443
     28 O          59.0739   85.8215   14.3736 O.2     1  UNL1       -0.2730
     29 N          61.0710   86.4643   13.3282 N.am    1  UNL1       -0.2825
     30 H          61.4992   86.6673   12.3965 H       1  UNL1        0.1549
     31 C          61.7602   86.9306   14.5006 C.ar    1  UNL1        0.0535
     32 C          61.8968   86.1258   15.6449 C.ar    1  UNL1        0.0353
     33 C          62.6056   86.6101   16.7471 C.ar    1  UNL1        0.1002
     34 N          63.1700   87.8459   16.7067 N.ar    1  UNL1       -0.2422
     35 C          63.0693   88.6386   15.6073 C.ar    1  UNL1        0.1002
     36 C          62.3710   88.1919   14.4830 C.ar    1  UNL1        0.0353
     37 C          58.0456   84.2474   12.4430 C.3     1  UNL1        0.0569
     38 C          58.0884   82.8027   12.0305 C.ar    1  UNL1       -0.0017
     39 C          58.4082   81.7194   12.8440 C.ar    1  UNL1        0.0681
     40 N          58.4568   80.5804   12.1164 N.ar    1  UNL1       -0.3523
     41 C          58.1799   80.9366   10.8500 C.ar    1  UNL1        0.0563
     42 C          58.1383   80.1084    9.7293 C.ar    1  UNL1        0.0170
     43 C          57.8520   80.6996    8.4851 C.ar    1  UNL1        0.0015
     44 C          57.6201   82.0899    8.3896 C.ar    1  UNL1        0.0001
     45 C          57.6717   82.9018    9.5374 C.ar    1  UNL1        0.0012
     46 C          57.9526   82.2859   10.7571 C.ar    1  UNL1        0.0131
     47 H          58.6841   79.6237   12.4679 H       1  UNL1        0.1660
@<TRIPOS>BOND
     1     1     2    2
     2     2     3   am
     3     3    26    1
     4    26    37    1
     5    37    38    1
     6    38    39   ar
     7    39    40   ar
     8    40    41   ar
     9    41    42   ar
    10    42    43   ar
    11    43    44   ar
    12    44    45   ar
    13    45    46   ar
    14    26    27    1
    15    27    28    2
    16    27    29   am
    17    29    31    1
    18    31    32   ar
    19    32    33   ar
    20    33    34   ar
    21    34    35   ar
    22    35    36   ar
    23     2     5    1
    24     5     6   ar
    25     6     7   ar
    26     7     8   ar
    27     8    12    1
    28    12    13    1
    29    13    14    1
    30    14    15    1
    31    15    18    1
    32    18    19   ar
    33    19    20   ar
    34    20    21    1
    35    20    22   ar
    36    22    23   ar
    37    23    24    1
    38    23    25   ar
    39    15    16    1
    40    16    17    1
    41     8     9   ar
    42     9    10   ar
    43    10    11    1
    44    46    38   ar
    45    36    31   ar
    46    10     5   ar
    47    46    41   ar
    48    17    12    1
    49    25    18   ar
    50     3     4    1
    51    40    47    1
    52    29    30    1
@<TRIPOS>MOLECULE
*****
 47 52 0 0 0
SMALL
GASTEIGER

@<TRIPOS>ATOM
      1 O          57.8503   83.7784   13.2829 O.2     1  UNL1       -0.2701
      2 C          59.0917   83.5936   13.1544 C.2     1  UNL1        0.2483
      3 N          59.5980   82.2625   12.9645 N.am    1  UNL1       -0.2945
      4 H          60.6225   82.0928   13.0843 H       1  UNL1        0.1501
      5 C          60.0090   84.7528   13.2324 C.ar    1  UNL1        0.0808
      6 C          60.4529   85.3662   12.0500 C.ar    1  UNL1        0.0080
      7 C          61.3165   86.4632   12.0988 C.ar    1  UNL1        0.0148
      8 C          61.7637   86.9667   13.3323 C.ar    1  UNL1        0.0502
      9 C          61.3371   86.3385   14.5149 C.ar    1  UNL1        0.0443
     10 C          60.4710   85.2414   14.4694 C.ar    1  UNL1        0.1457
     11 F          60.1274   84.6342   15.6335 F       1  UNL1       -0.2040
     12 N          62.6618   88.0965   13.3842 N.pl3   1  UNL1       -0.3040
     13 C          63.2013   88.6469   12.1284 C.3     1  UNL1        0.1122
     14 C          63.8445   90.0162   12.3506 C.3     1  UNL1        0.1122
     15 N          64.7702   89.9405   13.4863 N.pl3   1  UNL1       -0.3040
     16 C          64.3314   89.3206   14.7454 C.3     1  UNL1        0.1122
     17 C          62.8886   88.8027   14.6562 C.3     1  UNL1        0.1122
     18 C          66.1327   90.3853   13.3517 C.ar    1  UNL1        0.0496
     19 C          66.7297   90.4764   12.0829 C.ar    1  UNL1        0.0260
     20 C          68.0505   90.9197   11.9535 C.ar    1  UNL1        0.0597
     21 CL         68.7895   91.0215   10.3658 Cl      1  UNL1       -0.0822
     22 C          68.7826   91.2794   13.0892 C.ar    1  UNL1        0.0229
     23 C          68.1951   91.1975   14.3553 C.ar    1  UNL1        0.0597
     24 CL         69.1114   91.6578   15.7786 Cl      1  UNL1       -0.0822
     25 C          66.8748   90.7538   14.4870 C.ar    1  UNL1        0.0260
     26 C          58.7108   81.1290   12.6826 C.3     1  UNL1        0.1535
     27 C          58.2756   81.1616   11.2393 C.2     1  UNL1        0.2443
     28 O          57.4262   82.0146   10.8621 O.2     1  UNL1       -0.2730
     29 N          58.8492   80.2388   10.2999 N.am    1  UNL1       -0.2825
     30 H          59.2899   79.3690   10.6767 H       1  UNL1        0.1549
     31 C          58.8207   80.4140    8.8732 C.ar    1  UNL1        0.0535
     32 C          57.7189   80.0057    8.1017 C.ar    1  UNL1        0.0353
     33 C          57.7228   80.2291    6.7226 C.ar    1  UNL1        0.1002
     34 N          58.7797   80.8491    6.1343 N.ar    1  UNL1       -0.2422
     35 C          59.8502   81.2707    6.8578 C.ar    1  UNL1        0.1002
     36 C          59.8857   81.0686    8.2395 C.ar    1  UNL1        0.0353
     37 C          59.4192   79.7989   13.0026 C.3     1  UNL1        0.0569
     38 C          60.8702   80.0076   13.3346 C.ar    1  UNL1       -0.0017
     39 C          61.4669   79.8351   14.5803 C.ar    1  UNL1        0.0681
     40 N          62.7631   80.2189   14.5404 N.ar    1  UNL1       -0.3523
     41 C          62.9871   80.6405   13.2837 C.ar    1  UNL1        0.0563
     42 C          64.1734   81.1570   12.7646 C.ar    1  UNL1        0.0170
     43 C          64.1792   81.5656   11.4183 C.ar    1  UNL1        0.0015
     44 C          63.0114   81.4537   10.6313 C.ar    1  UNL1        0.0001
     45 C          61.8273   80.9315   11.1828 C.ar    1  UNL1        0.0012
     46 C          61.8542   80.5301   12.5185 C.ar    1  UNL1        0.0131
     47 H          63.4427   80.2074   15.3331 H       1  UNL1        0.1660
@<TRIPOS>BOND
     1     1     2    2
     2     2     3   am
     3     3    26    1
     4    26    37    1
     5    37    38    1
     6    38    39   ar
     7    39    40   ar
     8    40    41   ar
     9    41    42   ar
    10    42    43   ar
    11    43    44   ar
    12    44    45   ar
    13    45    46   ar
    14    26    27    1
    15    27    28    2
    16    27    29   am
    17    29    31    1
    18    31    32   ar
    19    32    33   ar
    20    33    34   ar
    21    34    35   ar
    22    35    36   ar
    23     2     5    1
    24     5     6   ar
    25     6     7   ar
    26     7     8   ar
    27     8    12    1
    28    12    13    1
    29    13    14    1
    30    14    15    1
    31    15    18    1
    32    18    19   ar
    33    19    20   ar
    34    20    21    1
    35    20    22   ar
    36    22    23   ar
    37    23    24    1
    38    23    25   ar
    39    15    16    1
    40    16    17    1
    41     8     9   ar
    42     9    10   ar
    43    10    11    1
    44    46    38   ar
    45    36    31   ar
    46    10     5   ar
    47    46    41   ar
    48    17    12    1
    49    25    18   ar
    50     3     4    1
    51    40    47    1
    52    29    30    1
