@<TRIPOS>MOLECULE
*****
 45 50 0 0 0
SMALL
GASTEIGER

@<TRIPOS>ATOM
      1 C         -64.5507  -40.8424  -23.7988 C.ar    1  UNL1        0.0702
      2 C         -65.8618  -41.1334  -23.4044 C.ar    1  UNL1        0.0191
      3 C         -66.2570  -40.9444  -22.0791 C.ar    1  UNL1        0.0356
      4 C         -65.3262  -40.4739  -21.1377 C.ar    1  UNL1        0.1318
      5 N         -64.0465  -40.2336  -21.5392 N.ar    1  UNL1       -0.2279
      6 C         -63.6400  -40.4071  -22.8239 C.ar    1  UNL1        0.1149
      7 N         -65.7048  -40.2327  -19.7646 N.pl3   1  UNL1       -0.2932
      8 C         -64.9072  -39.3409  -18.9052 C.3     1  UNL1        0.0923
      9 C         -65.0391  -39.7257  -17.4194 C.3     1  UNL1        0.0252
     10 C         -65.1236  -41.2580  -17.2378 C.3     1  UNL1        0.0472
     11 C         -66.3455  -41.8429  -18.0013 C.3     1  UNL1        0.0252
     12 C         -66.8309  -40.9567  -19.1607 C.3     1  UNL1        0.0923
     13 C         -63.7866  -41.9306  -17.6261 C.3     1  UNL1        0.2054
     14 O         -63.8096  -42.3900  -18.9807 O.3     1  UNL1       -0.4755
     15 C         -62.7049  -42.5237  -19.8424 C.ar    1  UNL1        0.1388
     16 C         -61.6067  -41.6403  -19.8381 C.ar    1  UNL1        0.0369
     17 C         -60.5432  -41.8358  -20.7204 C.ar    1  UNL1        0.0033
     18 C         -60.5587  -42.9046  -21.6182 C.ar    1  UNL1        0.0066
     19 C         -61.6497  -43.7901  -21.6497 C.ar    1  UNL1        0.0785
     20 C         -62.7127  -43.5914  -20.7493 C.ar    1  UNL1        0.0433
     21 C         -61.6833  -44.9328  -22.5951 C.2     1  UNL1        0.3381
     22 O         -61.2793  -46.0658  -22.2206 O.2     1  UNL1       -0.2451
     23 O         -62.1672  -44.7964  -23.8958 O.3     1  UNL1       -0.4771
     24 H         -62.6012  -43.9461  -24.2303 H       1  UNL1        0.2954
     25 C         -63.0660  -41.9007  -25.5631 C.2     1  UNL1        0.2839
     26 O         -62.2402  -42.3176  -24.7068 O.2     1  UNL1       -0.2665
     27 N         -64.1541  -41.0507  -25.1650 N.am    1  UNL1       -0.2766
     28 H         -64.6291  -40.4828  -25.9028 H       1  UNL1        0.1553
     29 C         -60.3305  -41.8852  -27.2326 C.3     1  UNL1        0.0345
     30 C         -61.7019  -42.2477  -27.7178 C.ar    1  UNL1        0.0202
     31 C         -62.8938  -42.2523  -26.9851 C.ar    1  UNL1        0.1946
     32 O         -63.8968  -42.6313  -27.7566 O.2     1  UNL1       -0.4488
     33 C         -63.4179  -42.8724  -28.9530 C.ar    1  UNL1        0.1504
     34 C         -64.1206  -43.2967  -30.0770 C.ar    1  UNL1        0.0645
     35 I         -66.2032  -43.6245  -30.0039 I       1  UNL1       -0.0393
     36 C         -63.4004  -43.4972  -31.2681 C.ar    1  UNL1        0.0088
     37 C         -61.9984  -43.2728  -31.3186 C.ar    1  UNL1        0.0006
     38 C         -61.3221  -42.8410  -30.1528 C.ar    1  UNL1        0.0028
     39 C         -62.0670  -42.6512  -28.9879 C.ar    1  UNL1        0.0341
     40 C         -61.2492  -43.4889  -32.5823 C.ar    1  UNL1        0.0000
     41 C         -61.8612  -43.2488  -33.8272 C.ar    1  UNL1        0.0000
     42 C         -61.1535  -43.4539  -35.0156 C.ar    1  UNL1        0.0000
     43 C         -59.8304  -43.8991  -34.9757 C.ar    1  UNL1        0.0000
     44 C         -59.2120  -44.1408  -33.7471 C.ar    1  UNL1        0.0000
     45 C         -59.9152  -43.9383  -32.5555 C.ar    1  UNL1        0.0000
@<TRIPOS>BOND
     1    29    30    1
     2    30    31   ar
     3    31    25    1
     4    25    26    2
     5    25    27   am
     6    27     1    1
     7     1     2   ar
     8     2     3   ar
     9     3     4   ar
    10     4     7    1
    11     7     8    1
    12     8     9    1
    13     9    10    1
    14    10    13    1
    15    13    14    1
    16    14    15    1
    17    15    16   ar
    18    16    17   ar
    19    17    18   ar
    20    18    19   ar
    21    19    21    1
    22    21    22    2
    23    21    23    1
    24    19    20   ar
    25    10    11    1
    26    11    12    1
    27     4     5   ar
    28     5     6   ar
    29    31    32   ar
    30    32    33   ar
    31    33    34   ar
    32    34    35    1
    33    34    36   ar
    34    36    37   ar
    35    37    40    1
    36    40    41   ar
    37    41    42   ar
    38    42    43   ar
    39    43    44   ar
    40    44    45   ar
    41    37    38   ar
    42    38    39   ar
    43    39    30   ar
    44     6     1   ar
    45    39    33   ar
    46    12     7    1
    47    45    40   ar
    48    20    15   ar
    49    27    28    1
    50    23    24    1
@<TRIPOS>MOLECULE
*****
 45 50 0 0 0
SMALL
GASTEIGER

@<TRIPOS>ATOM
      1 C         -64.2641  -40.9408  -23.6781 C.ar    1  UNL1        0.0702
      2 C         -63.4142  -40.2376  -22.8165 C.ar    1  UNL1        0.0191
      3 C         -63.7885  -40.0064  -21.4918 C.ar    1  UNL1        0.0356
      4 C         -65.0317  -40.4708  -21.0306 C.ar    1  UNL1        0.1318
      5 N         -65.8565  -41.1199  -21.8996 N.ar    1  UNL1       -0.2279
      6 C         -65.5123  -41.3592  -23.1918 C.ar    1  UNL1        0.1149
      7 N         -65.4408  -40.2818  -19.6581 N.pl3   1  UNL1       -0.2932
      8 C         -64.4769  -39.8407  -18.6351 C.3     1  UNL1        0.0923
      9 C         -64.8806  -40.3332  -17.2325 C.3     1  UNL1        0.0252
     10 C         -65.5011  -41.7475  -17.2870 C.3     1  UNL1        0.0472
     11 C         -66.7662  -41.7662  -18.1910 C.3     1  UNL1        0.0252
     12 C         -66.8009  -40.6309  -19.2279 C.3     1  UNL1        0.0923
     13 C         -64.4425  -42.7949  -17.7028 C.3     1  UNL1        0.2054
     14 O         -64.6957  -43.2965  -19.0184 O.3     1  UNL1       -0.4755
     15 C         -63.7344  -43.6366  -19.9885 C.ar    1  UNL1        0.1388
     16 C         -63.8663  -44.7376  -20.8584 C.ar    1  UNL1        0.0369
     17 C         -62.8731  -45.0140  -21.7990 C.ar    1  UNL1        0.0033
     18 C         -61.7379  -44.2061  -21.8844 C.ar    1  UNL1        0.0066
     19 C         -61.5786  -43.1109  -21.0179 C.ar    1  UNL1        0.0785
     20 C         -62.5901  -42.8336  -20.0797 C.ar    1  UNL1        0.0433
     21 C         -60.3804  -42.2396  -21.0948 C.2     1  UNL1        0.3381
     22 O         -60.3534  -41.1561  -20.4526 O.2     1  UNL1       -0.2451
     23 O         -59.2633  -42.5916  -21.8517 O.3     1  UNL1       -0.4771
     24 H         -59.1741  -43.4901  -22.3077 H       1  UNL1        0.2954
     25 C         -62.9746  -42.2071  -25.4585 C.2     1  UNL1        0.2839
     26 O         -62.2887  -42.8320  -24.6053 O.2     1  UNL1       -0.2665
     27 N         -63.8707  -41.1636  -25.0428 N.am    1  UNL1       -0.2766
     28 H         -64.1863  -40.4723  -25.7605 H       1  UNL1        0.1553
     29 C         -60.3063  -41.9728  -27.2181 C.3     1  UNL1        0.0345
     30 C         -61.6661  -42.4189  -27.6647 C.ar    1  UNL1        0.0202
     31 C         -62.8287  -42.5190  -26.8928 C.ar    1  UNL1        0.1946
     32 O         -63.8300  -42.9509  -27.6381 O.2     1  UNL1       -0.4488
     33 C         -63.3779  -43.1358  -28.8548 C.ar    1  UNL1        0.1504
     34 C         -64.0891  -43.5857  -29.9634 C.ar    1  UNL1        0.0645
     35 I         -66.1410  -44.0564  -29.8276 I       1  UNL1       -0.0393
     36 C         -63.3990  -43.7137  -31.1820 C.ar    1  UNL1        0.0088
     37 C         -62.0180  -43.3931  -31.2746 C.ar    1  UNL1        0.0006
     38 C         -61.3322  -42.9383  -30.1232 C.ar    1  UNL1        0.0028
     39 C         -62.0471  -42.8222  -28.9302 C.ar    1  UNL1        0.0341
     40 C         -61.3005  -43.5333  -32.5670 C.ar    1  UNL1        0.0000
     41 C         -61.9502  -43.2424  -33.7817 C.ar    1  UNL1        0.0000
     42 C         -61.2722  -43.3761  -34.9973 C.ar    1  UNL1        0.0000
     43 C         -59.9416  -43.7998  -35.0149 C.ar    1  UNL1        0.0000
     44 C         -59.2859  -44.0913  -33.8168 C.ar    1  UNL1        0.0000
     45 C         -59.9592  -43.9603  -32.5984 C.ar    1  UNL1        0.0000
@<TRIPOS>BOND
     1    29    30    1
     2    30    31   ar
     3    31    25    1
     4    25    26    2
     5    25    27   am
     6    27     1    1
     7     1     2   ar
     8     2     3   ar
     9     3     4   ar
    10     4     7    1
    11     7     8    1
    12     8     9    1
    13     9    10    1
    14    10    13    1
    15    13    14    1
    16    14    15    1
    17    15    16   ar
    18    16    17   ar
    19    17    18   ar
    20    18    19   ar
    21    19    21    1
    22    21    22    2
    23    21    23    1
    24    19    20   ar
    25    10    11    1
    26    11    12    1
    27     4     5   ar
    28     5     6   ar
    29    31    32   ar
    30    32    33   ar
    31    33    34   ar
    32    34    35    1
    33    34    36   ar
    34    36    37   ar
    35    37    40    1
    36    40    41   ar
    37    41    42   ar
    38    42    43   ar
    39    43    44   ar
    40    44    45   ar
    41    37    38   ar
    42    38    39   ar
    43    39    30   ar
    44     6     1   ar
    45    39    33   ar
    46    12     7    1
    47    45    40   ar
    48    20    15   ar
    49    27    28    1
    50    23    24    1
@<TRIPOS>MOLECULE
*****
 45 50 0 0 0
SMALL
GASTEIGER

@<TRIPOS>ATOM
      1 C         -61.8631  -42.3251  -22.8842 C.ar    1  UNL1        0.0702
      2 C         -62.4128  -43.3103  -22.0557 C.ar    1  UNL1        0.0191
      3 C         -62.8281  -42.9910  -20.7618 C.ar    1  UNL1        0.0356
      4 C         -62.6775  -41.6766  -20.2889 C.ar    1  UNL1        0.1318
      5 N         -62.1052  -40.7451  -21.1022 N.ar    1  UNL1       -0.2279
      6 C         -61.6966  -41.0317  -22.3657 C.ar    1  UNL1        0.1149
      7 N         -63.1261  -41.2984  -18.9689 N.pl3   1  UNL1       -0.2932
      8 C         -63.4080  -42.3186  -17.9443 C.3     1  UNL1        0.0923
      9 C         -64.4553  -41.8223  -16.9295 C.3     1  UNL1        0.0252
     10 C         -65.5380  -40.9566  -17.6125 C.3     1  UNL1        0.0472
     11 C         -64.9051  -39.7157  -18.3034 C.3     1  UNL1        0.0252
     12 C         -63.4177  -39.8944  -18.6514 C.3     1  UNL1        0.0923
     13 C         -66.3994  -41.8114  -18.5707 C.3     1  UNL1        0.2054
     14 O         -65.8318  -41.8530  -19.8832 O.3     1  UNL1       -0.4755
     15 C         -66.2541  -41.1169  -21.0059 C.ar    1  UNL1        0.1388
     16 C         -67.4866  -40.4362  -21.0681 C.ar    1  UNL1        0.0369
     17 C         -67.8393  -39.7230  -22.2147 C.ar    1  UNL1        0.0033
     18 C         -66.9775  -39.6805  -23.3120 C.ar    1  UNL1        0.0066
     19 C         -65.7494  -40.3631  -23.2776 C.ar    1  UNL1        0.0785
     20 C         -65.3975  -41.0710  -22.1135 C.ar    1  UNL1        0.0433
     21 C         -64.8195  -40.3280  -24.4329 C.2     1  UNL1        0.3381
     22 O         -64.5553  -39.2290  -24.9893 O.2     1  UNL1       -0.2451
     23 O         -64.2089  -41.4832  -24.9201 O.3     1  UNL1       -0.4771
     24 H         -64.2933  -42.3804  -24.4606 H       1  UNL1        0.2954
     25 C         -61.8359  -43.8621  -24.9024 C.2     1  UNL1        0.2839
     26 O         -62.4030  -44.7972  -24.2756 O.2     1  UNL1       -0.2665
     27 N         -61.4304  -42.6694  -24.2113 N.am    1  UNL1       -0.2766
     28 H         -60.7112  -42.0602  -24.6632 H       1  UNL1        0.1553
     29 C         -63.0647  -42.1186  -27.2943 C.3     1  UNL1        0.0345
     30 C         -62.0836  -43.2481  -27.3895 C.ar    1  UNL1        0.0202
     31 C         -61.5503  -44.0072  -26.3422 C.ar    1  UNL1        0.1946
     32 O         -60.7159  -44.9128  -26.8201 O.2     1  UNL1       -0.4488
     33 C         -60.6803  -44.7818  -28.1240 C.ar    1  UNL1        0.1504
     34 C         -59.9327  -45.5280  -29.0303 C.ar    1  UNL1        0.0645
     35 I         -58.6712  -47.0894  -28.3815 I       1  UNL1       -0.0393
     36 C         -60.0461  -45.2129  -30.3961 C.ar    1  UNL1        0.0088
     37 C         -60.8985  -44.1639  -30.8336 C.ar    1  UNL1        0.0006
     38 C         -61.6421  -43.4298  -29.8790 C.ar    1  UNL1        0.0028
     39 C         -61.5066  -43.7689  -28.5321 C.ar    1  UNL1        0.0341
     40 C         -61.0089  -43.8404  -32.2786 C.ar    1  UNL1        0.0000
     41 C         -62.2318  -43.4045  -32.8231 C.ar    1  UNL1        0.0000
     42 C         -62.3330  -43.1013  -34.1844 C.ar    1  UNL1        0.0000
     43 C         -61.2181  -43.2285  -35.0157 C.ar    1  UNL1        0.0000
     44 C         -59.9993  -43.6598  -34.4877 C.ar    1  UNL1        0.0000
     45 C         -59.8925  -43.9653  -33.1274 C.ar    1  UNL1        0.0000
@<TRIPOS>BOND
     1    29    30    1
     2    30    31   ar
     3    31    25    1
     4    25    26    2
     5    25    27   am
     6    27     1    1
     7     1     2   ar
     8     2     3   ar
     9     3     4   ar
    10     4     7    1
    11     7     8    1
    12     8     9    1
    13     9    10    1
    14    10    13    1
    15    13    14    1
    16    14    15    1
    17    15    16   ar
    18    16    17   ar
    19    17    18   ar
    20    18    19   ar
    21    19    21    1
    22    21    22    2
    23    21    23    1
    24    19    20   ar
    25    10    11    1
    26    11    12    1
    27     4     5   ar
    28     5     6   ar
    29    31    32   ar
    30    32    33   ar
    31    33    34   ar
    32    34    35    1
    33    34    36   ar
    34    36    37   ar
    35    37    40    1
    36    40    41   ar
    37    41    42   ar
    38    42    43   ar
    39    43    44   ar
    40    44    45   ar
    41    37    38   ar
    42    38    39   ar
    43    39    30   ar
    44     6     1   ar
    45    39    33   ar
    46    12     7    1
    47    45    40   ar
    48    20    15   ar
    49    27    28    1
    50    23    24    1
@<TRIPOS>MOLECULE
*****
 45 50 0 0 0
SMALL
GASTEIGER

@<TRIPOS>ATOM
      1 C         -65.3290  -53.3730  -22.7982 C.ar    1  UNL1        0.0702
      2 C         -66.6290  -53.0648  -23.2158 C.ar    1  UNL1        0.0191
      3 C         -67.6391  -54.0253  -23.1406 C.ar    1  UNL1        0.0356
      4 C         -67.3407  -55.3101  -22.6569 C.ar    1  UNL1        0.1318
      5 N         -66.0593  -55.5959  -22.2919 N.ar    1  UNL1       -0.2279
      6 C         -65.0609  -54.6767  -22.3532 C.ar    1  UNL1        0.1149
      7 N         -68.3651  -56.3209  -22.5314 N.pl3   1  UNL1       -0.2932
      8 C         -69.4803  -56.3913  -23.4913 C.3     1  UNL1        0.0923
      9 C         -70.7343  -57.0169  -22.8516 C.3     1  UNL1        0.0252
     10 C         -70.8872  -56.5911  -21.3740 C.3     1  UNL1        0.0472
     11 C         -69.6489  -57.0234  -20.5387 C.3     1  UNL1        0.0252
     12 C         -68.3790  -57.2333  -21.3806 C.3     1  UNL1        0.0923
     13 C         -71.1930  -55.0792  -21.2680 C.3     1  UNL1        0.2054
     14 O         -72.3706  -54.8399  -20.4917 O.3     1  UNL1       -0.4755
     15 C         -72.4267  -54.5544  -19.1147 C.ar    1  UNL1        0.1388
     16 C         -71.9624  -55.4384  -18.1199 C.ar    1  UNL1        0.0369
     17 C         -72.0475  -55.0876  -16.7718 C.ar    1  UNL1        0.0033
     18 C         -72.5969  -53.8608  -16.3954 C.ar    1  UNL1        0.0066
     19 C         -73.0788  -52.9695  -17.3694 C.ar    1  UNL1        0.0785
     20 C         -72.9794  -53.3270  -18.7268 C.ar    1  UNL1        0.0433
     21 C         -73.6641  -51.6604  -16.9890 C.2     1  UNL1        0.3381
     22 O         -74.8833  -51.4330  -17.2105 O.2     1  UNL1       -0.2451
     23 O         -72.9039  -50.6666  -16.3734 O.3     1  UNL1       -0.4771
     24 H         -71.9497  -50.8169  -16.0730 H       1  UNL1        0.2954
     25 C         -63.8178  -51.8302  -24.1295 C.2     1  UNL1        0.2839
     26 O         -64.1139  -52.3823  -25.2233 O.2     1  UNL1       -0.2665
     27 N         -64.2957  -52.3776  -22.8899 N.am    1  UNL1       -0.2766
     28 H         -63.8046  -52.1019  -22.0093 H       1  UNL1        0.1553
     29 C         -61.4004  -51.2380  -22.1105 C.3     1  UNL1        0.0345
     30 C         -61.8881  -50.3790  -23.2381 C.ar    1  UNL1        0.0202
     31 C         -62.9448  -50.6413  -24.1168 C.ar    1  UNL1        0.1946
     32 O         -63.0719  -49.6491  -24.9794 O.2     1  UNL1       -0.4488
     33 C         -62.1528  -48.7552  -24.7058 C.ar    1  UNL1        0.1504
     34 C         -61.9209  -47.5503  -25.3627 C.ar    1  UNL1        0.0645
     35 I         -63.1087  -46.9527  -27.0005 I       1  UNL1       -0.0393
     36 C         -60.8709  -46.7378  -24.8990 C.ar    1  UNL1        0.0088
     37 C         -60.0732  -47.1383  -23.7936 C.ar    1  UNL1        0.0006
     38 C         -60.3430  -48.3713  -23.1533 C.ar    1  UNL1        0.0028
     39 C         -61.3925  -49.1528  -23.6386 C.ar    1  UNL1        0.0341
     40 C         -58.9669  -46.2717  -23.3140 C.ar    1  UNL1        0.0000
     41 C         -57.7019  -46.8191  -23.0271 C.ar    1  UNL1        0.0000
     42 C         -56.6621  -46.0008  -22.5749 C.ar    1  UNL1        0.0000
     43 C         -56.8718  -44.6305  -22.4047 C.ar    1  UNL1        0.0000
     44 C         -58.1220  -44.0754  -22.6860 C.ar    1  UNL1        0.0000
     45 C         -59.1656  -44.8891  -23.1377 C.ar    1  UNL1        0.0000
@<TRIPOS>BOND
     1    29    30    1
     2    30    31   ar
     3    31    25    1
     4    25    26    2
     5    25    27   am
     6    27     1    1
     7     1     2   ar
     8     2     3   ar
     9     3     4   ar
    10     4     7    1
    11     7     8    1
    12     8     9    1
    13     9    10    1
    14    10    13    1
    15    13    14    1
    16    14    15    1
    17    15    16   ar
    18    16    17   ar
    19    17    18   ar
    20    18    19   ar
    21    19    21    1
    22    21    22    2
    23    21    23    1
    24    19    20   ar
    25    10    11    1
    26    11    12    1
    27     4     5   ar
    28     5     6   ar
    29    31    32   ar
    30    32    33   ar
    31    33    34   ar
    32    34    35    1
    33    34    36   ar
    34    36    37   ar
    35    37    40    1
    36    40    41   ar
    37    41    42   ar
    38    42    43   ar
    39    43    44   ar
    40    44    45   ar
    41    37    38   ar
    42    38    39   ar
    43    39    30   ar
    44     6     1   ar
    45    39    33   ar
    46    12     7    1
    47    45    40   ar
    48    20    15   ar
    49    27    28    1
    50    23    24    1
@<TRIPOS>MOLECULE
*****
 45 50 0 0 0
SMALL
GASTEIGER

@<TRIPOS>ATOM
      1 C         -64.3696  -52.2018  -24.5498 C.ar    1  UNL1        0.0702
      2 C         -63.6445  -52.5993  -23.4204 C.ar    1  UNL1        0.0191
      3 C         -64.1449  -53.5913  -22.5754 C.ar    1  UNL1        0.0356
      4 C         -65.3897  -54.1793  -22.8562 C.ar    1  UNL1        0.1318
      5 N         -66.0927  -53.7481  -23.9409 N.ar    1  UNL1       -0.2279
      6 C         -65.6244  -52.7869  -24.7790 C.ar    1  UNL1        0.1149
      7 N         -65.9259  -55.2326  -22.0258 N.pl3   1  UNL1       -0.2932
      8 C         -66.2743  -56.5445  -22.5983 C.3     1  UNL1        0.0923
      9 C         -67.3876  -57.2344  -21.7874 C.3     1  UNL1        0.0252
     10 C         -68.4234  -56.2126  -21.2666 C.3     1  UNL1        0.0472
     11 C         -67.7473  -55.1489  -20.3559 C.3     1  UNL1        0.0252
     12 C         -66.2398  -54.9849  -20.6126 C.3     1  UNL1        0.0923
     13 C         -69.2178  -55.5915  -22.4387 C.3     1  UNL1        0.2054
     14 O         -69.0572  -56.3544  -23.6381 O.3     1  UNL1       -0.4755
     15 C         -68.9763  -55.8518  -24.9502 C.ar    1  UNL1        0.1388
     16 C         -67.9011  -56.1238  -25.8200 C.ar    1  UNL1        0.0369
     17 C         -67.8886  -55.5929  -27.1106 C.ar    1  UNL1        0.0033
     18 C         -68.9378  -54.7842  -27.5509 C.ar    1  UNL1        0.0066
     19 C         -70.0136  -54.4884  -26.6962 C.ar    1  UNL1        0.0785
     20 C         -70.0229  -55.0366  -25.4002 C.ar    1  UNL1        0.0433
     21 C         -71.1386  -53.6327  -27.1467 C.2     1  UNL1        0.3381
     22 O         -71.6893  -53.8581  -28.2572 O.2     1  UNL1       -0.2451
     23 O         -71.6226  -52.5837  -26.3657 O.3     1  UNL1       -0.4771
     24 H         -71.2988  -52.4107  -25.4231 H       1  UNL1        0.2954
     25 C         -64.0984  -49.7698  -25.2195 C.2     1  UNL1        0.2839
     26 O         -65.0021  -49.3868  -24.4286 O.2     1  UNL1       -0.2665
     27 N         -63.8473  -51.1722  -25.4065 N.am    1  UNL1       -0.2766
     28 H         -63.3281  -51.4682  -26.2641 H       1  UNL1        0.1553
     29 C         -64.0616  -49.3982  -28.4025 C.3     1  UNL1        0.0345
     30 C         -63.3033  -48.6117  -27.3760 C.ar    1  UNL1        0.0202
     31 C         -63.3219  -48.7780  -25.9869 C.ar    1  UNL1        0.1946
     32 O         -62.5235  -47.8944  -25.4155 O.2     1  UNL1       -0.4488
     33 C         -61.9866  -47.1631  -26.3618 C.ar    1  UNL1        0.1504
     34 C         -61.0856  -46.1128  -26.2123 C.ar    1  UNL1        0.0645
     35 I         -60.4068  -45.5188  -24.3053 I       1  UNL1       -0.0393
     36 C         -60.6359  -45.4595  -27.3736 C.ar    1  UNL1        0.0088
     37 C         -61.0899  -45.8619  -28.6583 C.ar    1  UNL1        0.0006
     38 C         -62.0060  -46.9353  -28.7661 C.ar    1  UNL1        0.0028
     39 C         -62.4314  -47.5619  -27.5939 C.ar    1  UNL1        0.0341
     40 C         -60.6081  -45.1633  -29.8768 C.ar    1  UNL1        0.0000
     41 C         -61.4795  -44.3528  -30.6290 C.ar    1  UNL1        0.0000
     42 C         -61.0233  -43.6968  -31.7765 C.ar    1  UNL1        0.0000
     43 C         -59.6957  -43.8411  -32.1853 C.ar    1  UNL1        0.0000
     44 C         -58.8213  -44.6421  -31.4477 C.ar    1  UNL1        0.0000
     45 C         -59.2723  -45.3012  -30.2999 C.ar    1  UNL1        0.0000
@<TRIPOS>BOND
     1    29    30    1
     2    30    31   ar
     3    31    25    1
     4    25    26    2
     5    25    27   am
     6    27     1    1
     7     1     2   ar
     8     2     3   ar
     9     3     4   ar
    10     4     7    1
    11     7     8    1
    12     8     9    1
    13     9    10    1
    14    10    13    1
    15    13    14    1
    16    14    15    1
    17    15    16   ar
    18    16    17   ar
    19    17    18   ar
    20    18    19   ar
    21    19    21    1
    22    21    22    2
    23    21    23    1
    24    19    20   ar
    25    10    11    1
    26    11    12    1
    27     4     5   ar
    28     5     6   ar
    29    31    32   ar
    30    32    33   ar
    31    33    34   ar
    32    34    35    1
    33    34    36   ar
    34    36    37   ar
    35    37    40    1
    36    40    41   ar
    37    41    42   ar
    38    42    43   ar
    39    43    44   ar
    40    44    45   ar
    41    37    38   ar
    42    38    39   ar
    43    39    30   ar
    44     6     1   ar
    45    39    33   ar
    46    12     7    1
    47    45    40   ar
    48    20    15   ar
    49    27    28    1
    50    23    24    1
@<TRIPOS>MOLECULE
*****
 45 50 0 0 0
SMALL
GASTEIGER

@<TRIPOS>ATOM
      1 C         -64.1417  -51.9494  -23.8855 C.ar    1  UNL1        0.0702
      2 C         -63.1572  -52.4439  -23.0220 C.ar    1  UNL1        0.0191
      3 C         -62.0685  -51.6467  -22.6651 C.ar    1  UNL1        0.0356
      4 C         -61.9575  -50.3481  -23.1898 C.ar    1  UNL1        0.1318
      5 N         -62.9097  -49.9041  -24.0575 N.ar    1  UNL1       -0.2279
      6 C         -63.9794  -50.6607  -24.4166 C.ar    1  UNL1        0.1149
      7 N         -60.8644  -49.4799  -22.8180 N.pl3   1  UNL1       -0.2932
      8 C         -60.8552  -48.7896  -21.5167 C.3     1  UNL1        0.0923
      9 C         -60.0466  -47.4799  -21.5804 C.3     1  UNL1        0.0252
     10 C         -60.2315  -46.7672  -22.9391 C.3     1  UNL1        0.0472
     11 C         -59.7734  -47.6783  -24.1129 C.3     1  UNL1        0.0252
     12 C         -59.7903  -49.1782  -23.7732 C.3     1  UNL1        0.0923
     13 C         -61.6824  -46.2568  -23.0974 C.3     1  UNL1        0.2054
     14 O         -62.4041  -47.0310  -24.0598 O.3     1  UNL1       -0.4755
     15 C         -62.7365  -46.6446  -25.3717 C.ar    1  UNL1        0.1388
     16 C         -62.7051  -45.3081  -25.8179 C.ar    1  UNL1        0.0369
     17 C         -63.0456  -44.9981  -27.1354 C.ar    1  UNL1        0.0033
     18 C         -63.4247  -46.0073  -28.0221 C.ar    1  UNL1        0.0066
     19 C         -63.4765  -47.3454  -27.5953 C.ar    1  UNL1        0.0785
     20 C         -63.1214  -47.6499  -26.2681 C.ar    1  UNL1        0.0433
     21 C         -63.8749  -48.4320  -28.5235 C.2     1  UNL1        0.3381
     22 O         -63.8611  -49.6281  -28.1281 O.2     1  UNL1       -0.2451
     23 O         -64.2835  -48.1689  -29.8306 O.3     1  UNL1       -0.4771
     24 H         -64.4173  -47.2298  -30.1820 H       1  UNL1        0.2954
     25 C         -65.7967  -53.8123  -23.4086 C.2     1  UNL1        0.2839
     26 O         -65.1607  -54.2012  -22.3920 O.2     1  UNL1       -0.2665
     27 N         -65.2529  -52.7844  -24.2527 N.am    1  UNL1       -0.2766
     28 H         -65.6292  -52.6963  -25.2239 H       1  UNL1        0.1553
     29 C         -68.5424  -53.6147  -21.7677 C.3     1  UNL1        0.0345
     30 C         -68.2856  -54.3571  -23.0445 C.ar    1  UNL1        0.0202
     31 C         -67.0845  -54.4412  -23.7572 C.ar    1  UNL1        0.1946
     32 O         -67.2504  -55.1856  -24.8356 O.2     1  UNL1       -0.4488
     33 C         -68.4971  -55.5902  -24.8599 C.ar    1  UNL1        0.1504
     34 C         -69.1082  -56.3944  -25.8174 C.ar    1  UNL1        0.0645
     35 I         -68.0303  -57.1311  -27.4744 I       1  UNL1       -0.0393
     36 C         -70.4687  -56.7063  -25.6458 C.ar    1  UNL1        0.0088
     37 C         -71.1939  -56.2135  -24.5279 C.ar    1  UNL1        0.0006
     38 C         -70.5342  -55.3991  -23.5767 C.ar    1  UNL1        0.0028
     39 C         -69.1838  -55.1094  -23.7771 C.ar    1  UNL1        0.0341
     40 C         -72.6303  -56.5494  -24.3583 C.ar    1  UNL1        0.0000
     41 C         -73.4280  -56.8654  -25.4745 C.ar    1  UNL1        0.0000
     42 C         -74.7806  -57.1806  -25.3119 C.ar    1  UNL1        0.0000
     43 C         -75.3512  -57.1847  -24.0372 C.ar    1  UNL1        0.0000
     44 C         -74.5704  -56.8731  -22.9220 C.ar    1  UNL1        0.0000
     45 C         -73.2176  -56.5563  -23.0787 C.ar    1  UNL1        0.0000
@<TRIPOS>BOND
     1    29    30    1
     2    30    31   ar
     3    31    25    1
     4    25    26    2
     5    25    27   am
     6    27     1    1
     7     1     2   ar
     8     2     3   ar
     9     3     4   ar
    10     4     7    1
    11     7     8    1
    12     8     9    1
    13     9    10    1
    14    10    13    1
    15    13    14    1
    16    14    15    1
    17    15    16   ar
    18    16    17   ar
    19    17    18   ar
    20    18    19   ar
    21    19    21    1
    22    21    22    2
    23    21    23    1
    24    19    20   ar
    25    10    11    1
    26    11    12    1
    27     4     5   ar
    28     5     6   ar
    29    31    32   ar
    30    32    33   ar
    31    33    34   ar
    32    34    35    1
    33    34    36   ar
    34    36    37   ar
    35    37    40    1
    36    40    41   ar
    37    41    42   ar
    38    42    43   ar
    39    43    44   ar
    40    44    45   ar
    41    37    38   ar
    42    38    39   ar
    43    39    30   ar
    44     6     1   ar
    45    39    33   ar
    46    12     7    1
    47    45    40   ar
    48    20    15   ar
    49    27    28    1
    50    23    24    1
@<TRIPOS>MOLECULE
*****
 45 50 0 0 0
SMALL
GASTEIGER

@<TRIPOS>ATOM
      1 C         -60.8865  -46.8054  -22.0413 C.ar    1  UNL1        0.0702
      2 C         -60.2421  -47.1397  -23.2380 C.ar    1  UNL1        0.0191
      3 C         -60.0362  -48.4781  -23.5769 C.ar    1  UNL1        0.0356
      4 C         -60.4662  -49.4898  -22.7019 C.ar    1  UNL1        0.1318
      5 N         -61.0573  -49.1369  -21.5260 N.ar    1  UNL1       -0.2279
      6 C         -61.2712  -47.8416  -21.1766 C.ar    1  UNL1        0.1149
      7 N         -60.3025  -50.8865  -23.0322 N.pl3   1  UNL1       -0.2932
      8 C         -60.0567  -51.3120  -24.4209 C.3     1  UNL1        0.0923
      9 C         -60.5695  -52.7431  -24.6698 C.3     1  UNL1        0.0252
     10 C         -61.8803  -53.0159  -23.8981 C.3     1  UNL1        0.0472
     11 C         -61.6741  -52.8333  -22.3678 C.3     1  UNL1        0.0252
     12 C         -60.4868  -51.9239  -22.0090 C.3     1  UNL1        0.0923
     13 C         -63.0368  -52.1580  -24.4614 C.3     1  UNL1        0.2054
     14 O         -62.8525  -50.7723  -24.1572 O.3     1  UNL1       -0.4755
     15 C         -63.1548  -49.6804  -24.9921 C.ar    1  UNL1        0.1388
     16 C         -63.1914  -48.3458  -24.5406 C.ar    1  UNL1        0.0369
     17 C         -63.4966  -47.3116  -25.4266 C.ar    1  UNL1        0.0033
     18 C         -63.7729  -47.5890  -26.7664 C.ar    1  UNL1        0.0066
     19 C         -63.7557  -48.9137  -27.2358 C.ar    1  UNL1        0.0785
     20 C         -63.4367  -49.9490  -26.3378 C.ar    1  UNL1        0.0433
     21 C         -64.0446  -49.2281  -28.6566 C.2     1  UNL1        0.3381
     22 O         -64.0316  -50.4259  -29.0466 O.2     1  UNL1       -0.2451
     23 O         -64.3484  -48.2308  -29.5828 O.3     1  UNL1       -0.4771
     24 H         -64.4776  -47.2627  -29.3196 H       1  UNL1        0.2954
     25 C         -62.0541  -44.5717  -22.3309 C.2     1  UNL1        0.2839
     26 O         -62.6181  -44.9347  -23.3982 O.2     1  UNL1       -0.2665
     27 N         -61.0837  -45.4228  -21.6997 N.am    1  UNL1       -0.2766
     28 H         -60.4232  -44.9908  -21.0143 H       1  UNL1        0.1553
     29 C         -60.9225  -41.7323  -23.2942 C.3     1  UNL1        0.0345
     30 C         -61.8692  -42.0099  -22.1655 C.ar    1  UNL1        0.0202
     31 C         -62.3601  -43.2518  -21.7479 C.ar    1  UNL1        0.1946
     32 O         -63.1739  -43.0933  -20.7197 O.2     1  UNL1       -0.4488
     33 C         -63.2364  -41.8125  -20.4471 C.ar    1  UNL1        0.1504
     34 C         -63.9759  -41.1953  -19.4425 C.ar    1  UNL1        0.0645
     35 I         -65.1764  -42.3200  -18.1219 I       1  UNL1       -0.0393
     36 C         -63.8963  -39.7958  -19.3301 C.ar    1  UNL1        0.0088
     37 C         -63.0849  -39.0384  -20.2170 C.ar    1  UNL1        0.0006
     38 C         -62.3482  -39.7054  -21.2246 C.ar    1  UNL1        0.0028
     39 C         -62.4495  -41.0948  -21.3079 C.ar    1  UNL1        0.0341
     40 C         -63.0100  -37.5610  -20.0883 C.ar    1  UNL1        0.0000
     41 C         -62.1103  -36.8186  -20.8767 C.ar    1  UNL1        0.0000
     42 C         -62.0414  -35.4275  -20.7529 C.ar    1  UNL1        0.0000
     43 C         -62.8675  -34.7628  -19.8440 C.ar    1  UNL1        0.0000
     44 C         -63.7643  -35.4878  -19.0564 C.ar    1  UNL1        0.0000
     45 C         -63.8369  -36.8792  -19.1753 C.ar    1  UNL1        0.0000
@<TRIPOS>BOND
     1    29    30    1
     2    30    31   ar
     3    31    25    1
     4    25    26    2
     5    25    27   am
     6    27     1    1
     7     1     2   ar
     8     2     3   ar
     9     3     4   ar
    10     4     7    1
    11     7     8    1
    12     8     9    1
    13     9    10    1
    14    10    13    1
    15    13    14    1
    16    14    15    1
    17    15    16   ar
    18    16    17   ar
    19    17    18   ar
    20    18    19   ar
    21    19    21    1
    22    21    22    2
    23    21    23    1
    24    19    20   ar
    25    10    11    1
    26    11    12    1
    27     4     5   ar
    28     5     6   ar
    29    31    32   ar
    30    32    33   ar
    31    33    34   ar
    32    34    35    1
    33    34    36   ar
    34    36    37   ar
    35    37    40    1
    36    40    41   ar
    37    41    42   ar
    38    42    43   ar
    39    43    44   ar
    40    44    45   ar
    41    37    38   ar
    42    38    39   ar
    43    39    30   ar
    44     6     1   ar
    45    39    33   ar
    46    12     7    1
    47    45    40   ar
    48    20    15   ar
    49    27    28    1
    50    23    24    1
@<TRIPOS>MOLECULE
*****
 45 50 0 0 0
SMALL
GASTEIGER

@<TRIPOS>ATOM
      1 C         -64.0533  -51.5531  -23.9330 C.ar    1  UNL1        0.0702
      2 C         -63.0380  -52.0635  -23.1157 C.ar    1  UNL1        0.0191
      3 C         -61.9423  -51.2690  -22.7745 C.ar    1  UNL1        0.0356
      4 C         -61.8557  -49.9567  -23.2687 C.ar    1  UNL1        0.1318
      5 N         -62.8386  -49.4964  -24.0926 N.ar    1  UNL1       -0.2279
      6 C         -63.9156  -50.2501  -24.4356 C.ar    1  UNL1        0.1149
      7 N         -60.7555  -49.0916  -22.9110 N.pl3   1  UNL1       -0.2932
      8 C         -60.5747  -48.6317  -21.5232 C.3     1  UNL1        0.0923
      9 C         -59.8408  -47.2784  -21.4702 C.3     1  UNL1        0.0252
     10 C         -60.2623  -46.3608  -22.6401 C.3     1  UNL1        0.0472
     11 C         -59.9530  -47.0275  -24.0103 C.3     1  UNL1        0.0252
     12 C         -59.8548  -48.5609  -23.9426 C.3     1  UNL1        0.0923
     13 C         -61.7402  -45.9305  -22.4943 C.3     1  UNL1        0.2054
     14 O         -61.9167  -45.0428  -21.3864 O.3     1  UNL1       -0.4755
     15 C         -61.8360  -43.6379  -21.4131 C.ar    1  UNL1        0.1388
     16 C         -60.8024  -42.9086  -20.7915 C.ar    1  UNL1        0.0369
     17 C         -60.7848  -41.5149  -20.8611 C.ar    1  UNL1        0.0033
     18 C         -61.7923  -40.8297  -21.5424 C.ar    1  UNL1        0.0066
     19 C         -62.8403  -41.5356  -22.1579 C.ar    1  UNL1        0.0785
     20 C         -62.8442  -42.9412  -22.0916 C.ar    1  UNL1        0.0433
     21 C         -63.9187  -40.8254  -22.8883 C.2     1  UNL1        0.3381
     22 O         -64.3616  -41.3019  -23.9672 O.2     1  UNL1       -0.2451
     23 O         -64.4757  -39.6411  -22.4068 O.3     1  UNL1       -0.4771
     24 H         -64.2427  -39.2575  -21.5002 H       1  UNL1        0.2954
     25 C         -65.6473  -53.4730  -23.4754 C.2     1  UNL1        0.2839
     26 O         -64.9451  -53.9111  -22.5246 O.2     1  UNL1       -0.2665
     27 N         -65.1717  -52.3852  -24.2847 N.am    1  UNL1       -0.2766
     28 H         -65.6073  -52.2450  -25.2245 H       1  UNL1        0.1553
     29 C         -68.2182  -53.6270  -21.5681 C.3     1  UNL1        0.0345
     30 C         -68.0691  -54.1729  -22.9563 C.ar    1  UNL1        0.0202
     31 C         -66.9440  -54.1040  -23.7852 C.ar    1  UNL1        0.1946
     32 O         -67.1951  -54.6982  -24.9378 O.2     1  UNL1       -0.4488
     33 C         -68.4251  -55.1505  -24.9001 C.ar    1  UNL1        0.1504
     34 C         -69.1049  -55.8404  -25.8996 C.ar    1  UNL1        0.0645
     35 I         -68.1778  -56.2914  -27.7401 I       1  UNL1       -0.0393
     36 C         -70.4309  -56.2331  -25.6448 C.ar    1  UNL1        0.0088
     37 C         -71.0543  -55.9328  -24.4040 C.ar    1  UNL1        0.0006
     38 C         -70.3271  -55.2299  -23.4140 C.ar    1  UNL1        0.0028
     39 C         -69.0133  -54.8555  -23.6993 C.ar    1  UNL1        0.0341
     40 C         -72.4554  -56.3524  -24.1474 C.ar    1  UNL1        0.0000
     41 C         -73.2657  -56.8224  -25.1985 C.ar    1  UNL1        0.0000
     42 C         -74.5849  -57.2161  -24.9541 C.ar    1  UNL1        0.0000
     43 C         -75.1094  -57.1463  -23.6616 C.ar    1  UNL1        0.0000
     44 C         -74.3157  -56.6820  -22.6104 C.ar    1  UNL1        0.0000
     45 C         -72.9961  -56.2861  -22.8491 C.ar    1  UNL1        0.0000
@<TRIPOS>BOND
     1    29    30    1
     2    30    31   ar
     3    31    25    1
     4    25    26    2
     5    25    27   am
     6    27     1    1
     7     1     2   ar
     8     2     3   ar
     9     3     4   ar
    10     4     7    1
    11     7     8    1
    12     8     9    1
    13     9    10    1
    14    10    13    1
    15    13    14    1
    16    14    15    1
    17    15    16   ar
    18    16    17   ar
    19    17    18   ar
    20    18    19   ar
    21    19    21    1
    22    21    22    2
    23    21    23    1
    24    19    20   ar
    25    10    11    1
    26    11    12    1
    27     4     5   ar
    28     5     6   ar
    29    31    32   ar
    30    32    33   ar
    31    33    34   ar
    32    34    35    1
    33    34    36   ar
    34    36    37   ar
    35    37    40    1
    36    40    41   ar
    37    41    42   ar
    38    42    43   ar
    39    43    44   ar
    40    44    45   ar
    41    37    38   ar
    42    38    39   ar
    43    39    30   ar
    44     6     1   ar
    45    39    33   ar
    46    12     7    1
    47    45    40   ar
    48    20    15   ar
    49    27    28    1
    50    23    24    1
@<TRIPOS>MOLECULE
*****
 45 50 0 0 0
SMALL
GASTEIGER

@<TRIPOS>ATOM
      1 C         -64.3750  -52.2528  -24.5757 C.ar    1  UNL1        0.0702
      2 C         -63.6655  -52.6325  -23.4305 C.ar    1  UNL1        0.0191
      3 C         -64.1630  -53.6322  -22.5928 C.ar    1  UNL1        0.0356
      4 C         -65.3895  -54.2461  -22.8974 C.ar    1  UNL1        0.1318
      5 N         -66.0785  -53.8322  -23.9977 N.ar    1  UNL1       -0.2279
      6 C         -65.6126  -52.8640  -24.8290 C.ar    1  UNL1        0.1149
      7 N         -65.9213  -55.3079  -22.0750 N.pl3   1  UNL1       -0.2932
      8 C         -66.3941  -56.5667  -22.6767 C.3     1  UNL1        0.0923
      9 C         -67.4793  -57.2320  -21.8091 C.3     1  UNL1        0.0252
     10 C         -68.4056  -56.1804  -21.1578 C.3     1  UNL1        0.0472
     11 C         -67.5950  -55.2051  -20.2581 C.3     1  UNL1        0.0252
     12 C         -66.1055  -55.1149  -20.6307 C.3     1  UNL1        0.0923
     13 C         -69.2515  -55.4558  -22.2302 C.3     1  UNL1        0.2054
     14 O         -70.6149  -55.8875  -22.1965 O.3     1  UNL1       -0.4755
     15 C         -71.4803  -55.8552  -21.0870 C.ar    1  UNL1        0.1388
     16 C         -72.2877  -56.9442  -20.7014 C.ar    1  UNL1        0.0369
     17 C         -73.1213  -56.8418  -19.5868 C.ar    1  UNL1        0.0033
     18 C         -73.1670  -55.6594  -18.8462 C.ar    1  UNL1        0.0066
     19 C         -72.3809  -54.5560  -19.2204 C.ar    1  UNL1        0.0785
     20 C         -71.5356  -54.6718  -20.3394 C.ar    1  UNL1        0.0433
     21 C         -72.4143  -53.2919  -18.4448 C.2     1  UNL1        0.3381
     22 O         -72.4982  -53.3316  -17.1884 O.2     1  UNL1       -0.2451
     23 O         -72.3399  -52.0460  -19.0667 O.3     1  UNL1       -0.4771
     24 H         -72.1680  -51.9403  -20.0580 H       1  UNL1        0.2954
     25 C         -64.0587  -49.8119  -25.1910 C.2     1  UNL1        0.2839
     26 O         -64.9198  -49.4255  -24.3554 O.2     1  UNL1       -0.2665
     27 N         -63.8561  -51.2151  -25.4248 N.am    1  UNL1       -0.2766
     28 H         -63.3791  -51.5019  -26.3096 H       1  UNL1        0.1553
     29 C         -64.1085  -49.3761  -28.3656 C.3     1  UNL1        0.0345
     30 C         -63.3026  -48.6273  -27.3472 C.ar    1  UNL1        0.0202
     31 C         -63.2836  -48.8216  -25.9617 C.ar    1  UNL1        0.1946
     32 O         -62.4491  -47.9674  -25.3972 O.2     1  UNL1       -0.4488
     33 C         -61.9245  -47.2286  -26.3446 C.ar    1  UNL1        0.1504
     34 C         -60.9963  -46.2013  -26.2017 C.ar    1  UNL1        0.0645
     35 I         -60.2481  -45.6612  -24.3047 I       1  UNL1       -0.0393
     36 C         -60.5670  -45.5342  -27.3628 C.ar    1  UNL1        0.0088
     37 C         -61.0679  -45.9002  -28.6410 C.ar    1  UNL1        0.0006
     38 C         -62.0104  -46.9512  -28.7423 C.ar    1  UNL1        0.0028
     39 C         -62.4146  -47.5924  -27.5704 C.ar    1  UNL1        0.0341
     40 C         -60.6072  -45.1875  -29.8594 C.ar    1  UNL1        0.0000
     41 C         -61.4860  -44.3528  -30.5756 C.ar    1  UNL1        0.0000
     42 C         -61.0497  -43.6834  -31.7231 C.ar    1  UNL1        0.0000
     43 C         -59.7348  -43.8382  -32.1677 C.ar    1  UNL1        0.0000
     44 C         -58.8533  -44.6633  -31.4660 C.ar    1  UNL1        0.0000
     45 C         -59.2844  -45.3358  -30.3183 C.ar    1  UNL1        0.0000
@<TRIPOS>BOND
     1    29    30    1
     2    30    31   ar
     3    31    25    1
     4    25    26    2
     5    25    27   am
     6    27     1    1
     7     1     2   ar
     8     2     3   ar
     9     3     4   ar
    10     4     7    1
    11     7     8    1
    12     8     9    1
    13     9    10    1
    14    10    13    1
    15    13    14    1
    16    14    15    1
    17    15    16   ar
    18    16    17   ar
    19    17    18   ar
    20    18    19   ar
    21    19    21    1
    22    21    22    2
    23    21    23    1
    24    19    20   ar
    25    10    11    1
    26    11    12    1
    27     4     5   ar
    28     5     6   ar
    29    31    32   ar
    30    32    33   ar
    31    33    34   ar
    32    34    35    1
    33    34    36   ar
    34    36    37   ar
    35    37    40    1
    36    40    41   ar
    37    41    42   ar
    38    42    43   ar
    39    43    44   ar
    40    44    45   ar
    41    37    38   ar
    42    38    39   ar
    43    39    30   ar
    44     6     1   ar
    45    39    33   ar
    46    12     7    1
    47    45    40   ar
    48    20    15   ar
    49    27    28    1
    50    23    24    1
