@<TRIPOS>MOLECULE
*****
 90 97 0 0 0
SMALL
GASTEIGER

@<TRIPOS>ATOM
      1 C         -64.8816  -40.8397  -19.9236 C.3     1  UNL1        0.0758
      2 C         -64.8462  -42.3902  -20.1643 C.3     1  UNL1        0.0574
      3 C         -63.5671  -42.8940  -20.8260 C.ar    1  UNL1       -0.0141
      4 C         -63.2760  -44.2611  -20.7530 C.ar    1  UNL1       -0.0037
      5 C         -62.1515  -44.7979  -21.3864 C.ar    1  UNL1        0.0085
      6 C         -61.9089  -46.1729  -21.3009 C.ar    1  UNL1        0.0370
      7 C         -60.8310  -46.7574  -21.9785 C.ar    1  UNL1        0.1402
      8 C         -59.9356  -45.9406  -22.6965 C.ar    1  UNL1        0.0459
      9 C         -58.7580  -46.5607  -23.4111 C.3     1  UNL1        0.0374
     10 C         -60.1762  -44.5474  -22.7976 C.ar    1  UNL1        0.1354
     11 O         -59.3135  -43.7351  -23.5430 O.3     1  UNL1       -0.5056
     12 C         -61.2967  -43.9670  -22.1460 C.ar    1  UNL1        0.0673
     13 C         -61.6015  -42.5844  -22.2530 C.ar    1  UNL1        0.1389
     14 O         -60.8438  -41.7812  -23.1119 O.3     1  UNL1       -0.5053
     15 C         -62.6949  -42.0378  -21.5313 C.ar    1  UNL1        0.0670
     16 C         -62.9094  -40.5763  -21.4268 C.2     1  UNL1        0.2026
     17 O         -61.9435  -39.7714  -21.5227 O.2     1  UNL1       -0.2887
     18 C         -64.2708  -40.0434  -21.1162 C.3     1  UNL1        0.1820
     19 H         -58.5142  -44.0794  -24.0581 H       1  UNL1        0.2922
     20 H         -61.1496  -40.8791  -23.4509 H       1  UNL1        0.2922
     21 C         -66.1063  -42.9183  -20.8962 C.3     1  UNL1        0.1416
     22 O         -67.0789  -41.9274  -21.0767 O.3     1  UNL1       -0.3816
     23 H         -66.7554  -41.3338  -21.8015 H       1  UNL1        0.2105
     24 O         -60.6320  -48.1496  -21.9740 O.3     1  UNL1       -0.4526
     25 C         -61.6606  -49.1450  -21.9875 C.3     1  UNL1        0.2901
     26 C         -62.4218  -49.1341  -23.3313 C.3     1  UNL1        0.1085
     27 C         -61.4642  -49.4182  -24.5111 C.3     1  UNL1        0.1531
     28 C         -60.3352  -50.3834  -24.0664 C.3     1  UNL1        0.1648
     29 O         -59.9505  -51.2136  -25.1355 O.3     1  UNL1       -0.3795
     30 C         -60.7504  -51.2123  -22.8164 C.3     1  UNL1        0.1480
     31 C         -59.6330  -52.1745  -22.4081 C.3     1  UNL1        0.0349
     32 O         -61.0734  -50.4066  -21.6844 O.3     1  UNL1       -0.3205
     33 H         -60.7067  -51.8287  -25.3249 H       1  UNL1        0.2105
     34 O         -60.8575  -48.2254  -24.9903 O.3     1  UNL1       -0.3301
     35 C         -61.3698  -47.8066  -26.2458 C.3     1  UNL1        0.2376
     36 C         -60.7692  -46.4280  -26.5818 C.3     1  UNL1        0.0931
     37 C         -61.7003  -45.5962  -27.4860 C.3     1  UNL1        0.1446
     38 O         -60.9256  -44.7653  -28.3120 O.3     1  UNL1       -0.3817
     39 C         -62.5898  -46.5171  -28.3360 C.3     1  UNL1        0.1644
     40 O         -63.4621  -45.7387  -29.1152 O.3     1  UNL1       -0.3795
     41 C         -63.4019  -47.4587  -27.3985 C.3     1  UNL1        0.1469
     42 C         -63.7596  -48.7856  -28.0778 C.3     1  UNL1        0.0348
     43 O         -62.7780  -47.6999  -26.1417 O.3     1  UNL1       -0.3304
     44 H         -61.5096  -44.0149  -28.5973 H       1  UNL1        0.2104
     45 H         -63.8028  -46.3268  -29.8384 H       1  UNL1        0.2105
     46 O         -65.0643  -40.1589  -22.2845 O.3     1  UNL1       -0.3249
     47 C         -64.2807  -40.1609  -23.4681 C.3     1  UNL1        0.2380
     48 C         -64.1168  -41.5944  -24.0289 C.3     1  UNL1        0.0935
     49 C         -64.0573  -41.5551  -25.5528 C.3     1  UNL1        0.1519
     50 C         -65.3878  -40.9953  -26.0738 C.3     1  UNL1        0.1648
     51 O         -65.2196  -40.6142  -27.4154 O.3     1  UNL1       -0.3795
     52 C         -65.8675  -39.7796  -25.2197 C.3     1  UNL1        0.1469
     53 C         -67.1446  -40.0822  -24.4175 C.3     1  UNL1        0.0348
     54 O         -64.8372  -39.2379  -24.4004 O.3     1  UNL1       -0.3304
     55 H         -66.1284  -40.5449  -27.8095 H       1  UNL1        0.2105
     56 O         -63.8708  -42.8703  -26.0567 O.3     1  UNL1       -0.3302
     57 C         -63.3934  -42.8552  -27.3902 C.3     1  UNL1        0.2376
     58 C         -62.5611  -41.5752  -27.5857 C.3     1  UNL1        0.0931
     59 C         -61.9930  -41.4904  -29.0164 C.3     1  UNL1        0.1450
     60 O         -60.6775  -41.9844  -29.0301 O.3     1  UNL1       -0.3817
     61 C         -62.8760  -42.2560  -30.0349 C.3     1  UNL1        0.1715
     62 C         -64.3378  -42.2674  -29.5249 C.3     1  UNL1        0.1473
     63 C         -65.2826  -42.8846  -30.5570 C.3     1  UNL1        0.0348
     64 O         -64.4940  -42.9664  -28.2955 O.3     1  UNL1       -0.3304
     65 H         -60.2460  -41.6259  -29.8493 H       1  UNL1        0.2104
     66 O         -62.4143  -43.5963  -30.1621 O.3     1  UNL1       -0.3279
     67 C         -61.9034  -43.8537  -31.4560 C.3     1  UNL1        0.2376
     68 C         -60.4264  -44.2780  -31.3265 C.3     1  UNL1        0.0907
     69 C         -59.6054  -43.9532  -32.6037 C.3     1  UNL1        0.1201
     70 C         -58.4747  -44.9918  -32.7612 C.3     1  UNL1        0.0321
     71 O         -59.0430  -42.6689  -32.4468 O.3     1  UNL1       -0.3841
     72 C         -60.5581  -43.9720  -33.8297 C.3     1  UNL1        0.1620
     73 O         -59.8658  -43.6650  -35.0157 O.3     1  UNL1       -0.3796
     74 C         -61.6999  -42.9350  -33.6172 C.3     1  UNL1        0.1468
     75 C         -62.9677  -43.3100  -34.3919 C.3     1  UNL1        0.0348
     76 O         -62.0087  -42.6839  -32.2495 O.3     1  UNL1       -0.3304
     77 H         -58.4910  -42.4708  -33.2480 H       1  UNL1        0.2103
     78 H         -59.5408  -44.5221  -35.3970 H       1  UNL1        0.2105
     79 C         -64.1944  -40.4876  -18.5630 C.3     1  UNL1        0.1778
     80 C         -65.0980  -42.1690  -17.2291 C.3     1  UNL1        0.1746
     81 O         -65.0860  -40.7835  -17.4991 O.3     1  UNL1       -0.3460
     82 C         -63.7603  -39.0303  -18.4628 C.2     1  UNL1        0.2064
     83 O         -62.6272  -38.7953  -18.0679 O.2     1  UNL1       -0.2909
     84 C         -64.6436  -37.8520  -18.8487 C.3     1  UNL1        0.1970
     85 O         -65.3266  -37.3286  -17.7367 O.3     1  UNL1       -0.3752
     86 H         -64.6934  -36.7641  -17.2218 H       1  UNL1        0.2110
     87 C         -63.8540  -36.7392  -19.5904 C.3     1  UNL1        0.1445
     88 C         -63.3589  -35.6329  -18.6480 C.3     1  UNL1        0.0348
     89 O         -62.7645  -37.2942  -20.2847 O.3     1  UNL1       -0.3815
     90 H         -62.1685  -37.7214  -19.6142 H       1  UNL1        0.2105
@<TRIPOS>BOND
     1    80    81    1
     2    81    79    1
     3    79    82    1
     4    82    83    2
     5    82    84    1
     6    84    85    1
     7    84    87    1
     8    87    88    1
     9    87    89    1
    10    79     1    1
    11     1     2    1
    12     2    21    1
    13    21    22    1
    14     2     3    1
    15     3     4   ar
    16     4     5   ar
    17     5     6   ar
    18     6     7   ar
    19     7    24    1
    20    24    25    1
    21    25    26    1
    22    26    27    1
    23    27    34    1
    24    34    35    1
    25    35    36    1
    26    36    37    1
    27    37    38    1
    28    37    39    1
    29    39    40    1
    30    39    41    1
    31    41    42    1
    32    41    43    1
    33    27    28    1
    34    28    29    1
    35    28    30    1
    36    30    31    1
    37    30    32    1
    38     7     8   ar
    39     8     9    1
    40     8    10   ar
    41    10    11    1
    42    10    12   ar
    43    12    13   ar
    44    13    14    1
    45    13    15   ar
    46    15    16    1
    47    16    17    2
    48    16    18    1
    49    18    46    1
    50    46    47    1
    51    47    48    1
    52    48    49    1
    53    49    56    1
    54    56    57    1
    55    57    58    1
    56    58    59    1
    57    59    60    1
    58    59    61    1
    59    61    66    1
    60    66    67    1
    61    67    68    1
    62    68    69    1
    63    69    70    1
    64    69    71    1
    65    69    72    1
    66    72    73    1
    67    72    74    1
    68    74    75    1
    69    74    76    1
    70    61    62    1
    71    62    63    1
    72    62    64    1
    73    49    50    1
    74    50    51    1
    75    50    52    1
    76    52    53    1
    77    52    54    1
    78    18     1    1
    79    54    47    1
    80    15     3   ar
    81    64    57    1
    82    12     5   ar
    83    76    67    1
    84    32    25    1
    85    43    35    1
    86    85    86    1
    87    89    90    1
    88    22    23    1
    89    38    44    1
    90    40    45    1
    91    29    33    1
    92    11    19    1
    93    14    20    1
    94    60    65    1
    95    71    77    1
    96    73    78    1
    97    51    55    1
@<TRIPOS>MOLECULE
*****
 90 97 0 0 0
SMALL
GASTEIGER

@<TRIPOS>ATOM
      1 C         -64.5873  -41.0610  -19.7909 C.3     1  UNL1        0.0758
      2 C         -64.5523  -42.6143  -20.0129 C.3     1  UNL1        0.0574
      3 C         -63.3381  -43.1100  -20.7924 C.ar    1  UNL1       -0.0141
      4 C         -63.0201  -44.4717  -20.7303 C.ar    1  UNL1       -0.0037
      5 C         -61.9563  -45.0022  -21.4658 C.ar    1  UNL1        0.0085
      6 C         -61.6852  -46.3722  -21.3864 C.ar    1  UNL1        0.0370
      7 C         -60.6715  -46.9517  -22.1604 C.ar    1  UNL1        0.1402
      8 C         -59.8649  -46.1333  -22.9754 C.ar    1  UNL1        0.0459
      9 C         -58.7552  -46.7476  -23.7957 C.3     1  UNL1        0.0374
     10 C         -60.1359  -44.7453  -23.0708 C.ar    1  UNL1        0.1354
     11 O         -59.3645  -43.9322  -23.9097 O.3     1  UNL1       -0.5056
     12 C         -61.1945  -44.1708  -22.3182 C.ar    1  UNL1        0.0673
     13 C         -61.5297  -42.7944  -22.4129 C.ar    1  UNL1        0.1389
     14 O         -60.8741  -41.9937  -23.3542 O.3     1  UNL1       -0.5053
     15 C         -62.5539  -42.2524  -21.5929 C.ar    1  UNL1        0.0670
     16 C         -62.7795  -40.7926  -21.4873 C.2     1  UNL1        0.2026
     17 O         -61.8405  -39.9759  -21.6902 O.2     1  UNL1       -0.2887
     18 C         -64.1111  -40.2743  -21.0493 C.3     1  UNL1        0.1820
     19 H         -58.6154  -44.2731  -24.4975 H       1  UNL1        0.2922
     20 H         -61.2260  -41.1011  -23.6730 H       1  UNL1        0.2922
     21 C         -65.8709  -43.1709  -20.6078 C.3     1  UNL1        0.1416
     22 O         -66.6981  -42.1636  -21.1193 O.3     1  UNL1       -0.3816
     23 H         -66.2944  -41.8644  -21.9736 H       1  UNL1        0.2105
     24 O         -60.4516  -48.3407  -22.1570 O.3     1  UNL1       -0.4526
     25 C         -61.4539  -49.3492  -21.9909 C.3     1  UNL1        0.2901
     26 C         -62.3171  -49.4847  -23.2643 C.3     1  UNL1        0.1085
     27 C         -61.4475  -49.8692  -24.4830 C.3     1  UNL1        0.1531
     28 C         -60.2643  -50.7668  -24.0372 C.3     1  UNL1        0.1648
     29 O         -59.9440  -51.6929  -25.0471 O.3     1  UNL1       -0.3795
     30 C         -60.5611  -51.4736  -22.6829 C.3     1  UNL1        0.1480
     31 C         -59.3924  -52.3719  -22.2726 C.3     1  UNL1        0.0349
     32 O         -60.8146  -50.5645  -21.6133 O.3     1  UNL1       -0.3205
     33 H         -60.6975  -52.3362  -25.1144 H       1  UNL1        0.2105
     34 O         -60.9088  -48.7203  -25.1237 O.3     1  UNL1       -0.3301
     35 C         -61.9006  -47.9039  -25.7272 C.3     1  UNL1        0.2376
     36 C         -62.5257  -48.6833  -26.9001 C.3     1  UNL1        0.0931
     37 C         -63.0605  -47.7439  -27.9991 C.3     1  UNL1        0.1446
     38 O         -64.1694  -48.3406  -28.6216 O.3     1  UNL1       -0.3817
     39 C         -63.4501  -46.3826  -27.4019 C.3     1  UNL1        0.1644
     40 O         -63.8885  -45.5282  -28.4274 O.3     1  UNL1       -0.3795
     41 C         -62.2172  -45.7651  -26.6781 C.3     1  UNL1        0.1469
     42 C         -62.6248  -44.8274  -25.5360 C.3     1  UNL1        0.0348
     43 O         -61.2778  -46.7291  -26.2142 O.3     1  UNL1       -0.3304
     44 H         -64.2591  -47.9213  -29.5170 H       1  UNL1        0.2104
     45 H         -64.3899  -44.7909  -27.9916 H       1  UNL1        0.2105
     46 O         -65.0154  -40.4184  -22.1307 O.3     1  UNL1       -0.3249
     47 C         -64.3806  -40.2453  -23.3884 C.3     1  UNL1        0.2380
     48 C         -64.2812  -41.5865  -24.1549 C.3     1  UNL1        0.0935
     49 C         -64.4065  -41.3409  -25.6554 C.3     1  UNL1        0.1519
     50 C         -65.7920  -40.7421  -25.9326 C.3     1  UNL1        0.1648
     51 O         -65.7885  -40.1803  -27.2202 O.3     1  UNL1       -0.3795
     52 C         -66.1688  -39.6624  -24.8697 C.3     1  UNL1        0.1469
     53 C         -67.3386  -40.0953  -23.9696 C.3     1  UNL1        0.0348
     54 O         -65.0487  -39.2161  -24.1131 O.3     1  UNL1       -0.3304
     55 H         -66.7385  -40.0763  -27.4898 H       1  UNL1        0.2105
     56 O         -64.2781  -42.5721  -26.3524 O.3     1  UNL1       -0.3302
     57 C         -63.6505  -42.3966  -27.6100 C.3     1  UNL1        0.2376
     58 C         -62.4500  -41.4526  -27.4178 C.3     1  UNL1        0.0931
     59 C         -61.7030  -41.2199  -28.7462 C.3     1  UNL1        0.1450
     60 O         -60.6103  -42.0993  -28.8316 O.3     1  UNL1       -0.3817
     61 C         -62.6376  -41.3874  -29.9715 C.3     1  UNL1        0.1715
     62 C         -64.0866  -41.0405  -29.5504 C.3     1  UNL1        0.1473
     63 C         -65.0326  -41.0489  -30.7520 C.3     1  UNL1        0.0348
     64 O         -64.6059  -41.9216  -28.5613 O.3     1  UNL1       -0.3304
     65 H         -59.9879  -41.7175  -29.5044 H       1  UNL1        0.2104
     66 O         -62.5936  -42.7337  -30.4315 O.3     1  UNL1       -0.3279
     67 C         -61.2641  -43.1982  -30.5652 C.3     1  UNL1        0.2376
     68 C         -60.8166  -42.9954  -32.0270 C.3     1  UNL1        0.0907
     69 C         -59.7167  -44.0054  -32.4525 C.3     1  UNL1        0.1201
     70 C         -58.8059  -43.3511  -33.5129 C.3     1  UNL1        0.0321
     71 O         -60.3524  -45.1333  -33.0130 O.3     1  UNL1       -0.3841
     72 C         -58.9047  -44.4206  -31.1958 C.3     1  UNL1        0.1620
     73 O         -57.9025  -45.3523  -31.5235 O.3     1  UNL1       -0.3796
     74 C         -59.8634  -45.0459  -30.1402 C.3     1  UNL1        0.1468
     75 C         -59.3263  -44.8906  -28.7135 C.3     1  UNL1        0.0348
     76 O         -61.2042  -44.5721  -30.2213 O.3     1  UNL1       -0.3304
     77 H         -59.6510  -45.7676  -33.3156 H       1  UNL1        0.2103
     78 H         -57.0830  -44.8375  -31.7446 H       1  UNL1        0.2105
     79 C         -63.7732  -40.6789  -18.5108 C.3     1  UNL1        0.1778
     80 C         -65.8149  -41.0810  -17.4652 C.3     1  UNL1        0.1746
     81 O         -64.4141  -41.2266  -17.3689 O.3     1  UNL1       -0.3460
     82 C         -63.6114  -39.1754  -18.3220 C.2     1  UNL1        0.2064
     83 O         -62.6150  -38.7748  -17.7376 O.2     1  UNL1       -0.2909
     84 C         -64.6027  -38.1425  -18.8394 C.3     1  UNL1        0.1970
     85 O         -65.3951  -37.6180  -17.8030 O.3     1  UNL1       -0.3752
     86 H         -64.8564  -36.9449  -17.3115 H       1  UNL1        0.2110
     87 C         -63.9089  -37.0057  -19.6384 C.3     1  UNL1        0.1445
     88 C         -63.4818  -35.8293  -18.7490 C.3     1  UNL1        0.0348
     89 O         -62.7926  -37.5071  -20.3308 O.3     1  UNL1       -0.3815
     90 H         -62.1563  -37.8624  -19.6554 H       1  UNL1        0.2105
@<TRIPOS>BOND
     1    80    81    1
     2    81    79    1
     3    79    82    1
     4    82    83    2
     5    82    84    1
     6    84    85    1
     7    84    87    1
     8    87    88    1
     9    87    89    1
    10    79     1    1
    11     1     2    1
    12     2    21    1
    13    21    22    1
    14     2     3    1
    15     3     4   ar
    16     4     5   ar
    17     5     6   ar
    18     6     7   ar
    19     7    24    1
    20    24    25    1
    21    25    26    1
    22    26    27    1
    23    27    34    1
    24    34    35    1
    25    35    36    1
    26    36    37    1
    27    37    38    1
    28    37    39    1
    29    39    40    1
    30    39    41    1
    31    41    42    1
    32    41    43    1
    33    27    28    1
    34    28    29    1
    35    28    30    1
    36    30    31    1
    37    30    32    1
    38     7     8   ar
    39     8     9    1
    40     8    10   ar
    41    10    11    1
    42    10    12   ar
    43    12    13   ar
    44    13    14    1
    45    13    15   ar
    46    15    16    1
    47    16    17    2
    48    16    18    1
    49    18    46    1
    50    46    47    1
    51    47    48    1
    52    48    49    1
    53    49    56    1
    54    56    57    1
    55    57    58    1
    56    58    59    1
    57    59    60    1
    58    59    61    1
    59    61    66    1
    60    66    67    1
    61    67    68    1
    62    68    69    1
    63    69    70    1
    64    69    71    1
    65    69    72    1
    66    72    73    1
    67    72    74    1
    68    74    75    1
    69    74    76    1
    70    61    62    1
    71    62    63    1
    72    62    64    1
    73    49    50    1
    74    50    51    1
    75    50    52    1
    76    52    53    1
    77    52    54    1
    78    18     1    1
    79    54    47    1
    80    15     3   ar
    81    64    57    1
    82    12     5   ar
    83    76    67    1
    84    32    25    1
    85    43    35    1
    86    85    86    1
    87    89    90    1
    88    22    23    1
    89    38    44    1
    90    40    45    1
    91    29    33    1
    92    11    19    1
    93    14    20    1
    94    60    65    1
    95    71    77    1
    96    73    78    1
    97    51    55    1
@<TRIPOS>MOLECULE
*****
 90 97 0 0 0
SMALL
GASTEIGER

@<TRIPOS>ATOM
      1 C         -62.7676  -47.9051  -26.0773 C.3     1  UNL1        0.0758
      2 C         -63.4155  -47.2035  -24.8319 C.3     1  UNL1        0.0574
      3 C         -62.5125  -46.1830  -24.1456 C.ar    1  UNL1       -0.0141
      4 C         -63.0994  -45.2550  -23.2776 C.ar    1  UNL1       -0.0037
      5 C         -62.3237  -44.3304  -22.5723 C.ar    1  UNL1        0.0085
      6 C         -62.9514  -43.4325  -21.7025 C.ar    1  UNL1        0.0370
      7 C         -62.2022  -42.5374  -20.9278 C.ar    1  UNL1        0.1402
      8 C         -60.8024  -42.4894  -21.0794 C.ar    1  UNL1        0.0459
      9 C         -59.9898  -41.5114  -20.2641 C.3     1  UNL1        0.0374
     10 C         -60.1547  -43.4004  -21.9509 C.ar    1  UNL1        0.1354
     11 O         -58.7604  -43.3859  -22.0766 O.3     1  UNL1       -0.5056
     12 C         -60.9160  -44.3365  -22.7000 C.ar    1  UNL1        0.0673
     13 C         -60.3087  -45.2953  -23.5532 C.ar    1  UNL1        0.1389
     14 O         -58.9140  -45.4007  -23.5806 O.3     1  UNL1       -0.5053
     15 C         -61.1138  -46.1680  -24.3313 C.ar    1  UNL1        0.0670
     16 C         -60.5382  -47.0172  -25.3992 C.2     1  UNL1        0.2026
     17 O         -59.4772  -46.6818  -25.9923 O.2     1  UNL1       -0.2887
     18 C         -61.2638  -48.2446  -25.8473 C.3     1  UNL1        0.1820
     19 H         -58.1504  -42.7705  -21.5550 H       1  UNL1        0.2922
     20 H         -58.4199  -46.2086  -23.9347 H       1  UNL1        0.2922
     21 C         -64.0093  -48.2081  -23.8118 C.3     1  UNL1        0.1416
     22 O         -65.2511  -48.7140  -24.2148 O.3     1  UNL1       -0.3816
     23 H         -65.0757  -49.3652  -24.9410 H       1  UNL1        0.2105
     24 O         -62.8163  -41.6950  -19.9839 O.3     1  UNL1       -0.4526
     25 C         -63.9331  -42.0352  -19.1557 C.3     1  UNL1        0.2901
     26 C         -64.3941  -40.8188  -18.3233 C.3     1  UNL1        0.1085
     27 C         -64.8167  -39.6492  -19.2414 C.3     1  UNL1        0.1531
     28 C         -65.4387  -40.1935  -20.5532 C.3     1  UNL1        0.1648
     29 O         -66.4448  -39.3252  -21.0159 O.3     1  UNL1       -0.3795
     30 C         -65.9703  -41.6452  -20.3751 C.3     1  UNL1        0.1480
     31 C         -66.6008  -42.1549  -21.6727 C.3     1  UNL1        0.0349
     32 O         -64.9613  -42.5734  -19.9813 O.3     1  UNL1       -0.3205
     33 H         -67.2015  -39.3738  -20.3746 H       1  UNL1        0.2105
     34 O         -63.7077  -38.8307  -19.5888 O.3     1  UNL1       -0.3301
     35 C         -64.0087  -37.4441  -19.5582 C.3     1  UNL1        0.2376
     36 C         -62.7661  -36.6869  -19.0517 C.3     1  UNL1        0.0931
     37 C         -63.1402  -35.3698  -18.3434 C.3     1  UNL1        0.1446
     38 O         -62.1142  -34.4301  -18.5370 O.3     1  UNL1       -0.3817
     39 C         -64.4725  -34.8269  -18.8837 C.3     1  UNL1        0.1644
     40 O         -64.8169  -33.6541  -18.1911 O.3     1  UNL1       -0.3795
     41 C         -65.5812  -35.9049  -18.6998 C.3     1  UNL1        0.1469
     42 C         -66.6939  -35.7767  -19.7464 C.3     1  UNL1        0.0348
     43 O         -65.0879  -37.2399  -18.6644 O.3     1  UNL1       -0.3304
     44 H         -62.1916  -33.7623  -17.8065 H       1  UNL1        0.2104
     45 H         -65.4994  -33.1870  -18.7397 H       1  UNL1        0.2105
     46 O         -61.0976  -49.2403  -24.8529 O.3     1  UNL1       -0.3249
     47 C         -62.3356  -49.6558  -24.2965 C.3     1  UNL1        0.2380
     48 C         -62.8894  -50.9014  -25.0300 C.3     1  UNL1        0.0935
     49 C         -63.6434  -51.7931  -24.0483 C.3     1  UNL1        0.1519
     50 C         -62.6551  -52.2775  -22.9788 C.3     1  UNL1        0.1648
     51 O         -63.3847  -52.7823  -21.8895 O.3     1  UNL1       -0.3795
     52 C         -61.7103  -51.1252  -22.5129 C.3     1  UNL1        0.1469
     53 C         -60.2464  -51.3506  -22.9279 C.3     1  UNL1        0.0348
     54 O         -62.1811  -49.8363  -22.8914 O.3     1  UNL1       -0.3304
     55 H         -62.7600  -53.3476  -21.3639 H       1  UNL1        0.2105
     56 O         -64.1783  -52.9147  -24.7370 O.3     1  UNL1       -0.3302
     57 C         -65.1864  -53.5598  -23.9793 C.3     1  UNL1        0.2376
     58 C         -64.5667  -54.8059  -23.3217 C.3     1  UNL1        0.0931
     59 C         -65.6030  -55.5602  -22.4651 C.3     1  UNL1        0.1450
     60 O         -65.4809  -55.1642  -21.1223 O.3     1  UNL1       -0.3817
     61 C         -67.0493  -55.3317  -22.9740 C.3     1  UNL1        0.1715
     62 C         -67.0083  -55.0460  -24.4951 C.3     1  UNL1        0.1473
     63 C         -68.4174  -54.9535  -25.0823 C.3     1  UNL1        0.0348
     64 O         -66.3052  -53.8523  -24.8195 O.3     1  UNL1       -0.3304
     65 H         -65.9092  -55.8733  -20.5750 H       1  UNL1        0.2104
     66 O         -67.6262  -54.2164  -22.3037 O.3     1  UNL1       -0.3279
     67 C         -68.2871  -54.6044  -21.1147 C.3     1  UNL1        0.2376
     68 C         -69.8092  -54.5130  -21.3454 C.3     1  UNL1        0.0907
     69 C         -70.5916  -54.2656  -20.0273 C.3     1  UNL1        0.1201
     70 C         -71.9879  -54.9146  -20.1332 C.3     1  UNL1        0.0321
     71 O         -70.7345  -52.8721  -19.8590 O.3     1  UNL1       -0.3841
     72 C         -69.7833  -54.8653  -18.8448 C.3     1  UNL1        0.1620
     73 O         -70.4415  -54.6519  -17.6196 O.3     1  UNL1       -0.3796
     74 C         -68.3727  -54.2081  -18.7926 C.3     1  UNL1        0.1468
     75 C         -67.3358  -55.1256  -18.1361 C.3     1  UNL1        0.0348
     76 O         -67.9005  -53.7464  -20.0547 O.3     1  UNL1       -0.3304
     77 H         -71.2622  -52.7108  -19.0336 H       1  UNL1        0.2103
     78 H         -71.0338  -55.4332  -17.4638 H       1  UNL1        0.2105
     79 C         -62.9893  -47.0400  -27.3618 C.3     1  UNL1        0.1778
     80 C         -62.8657  -44.7172  -27.2486 C.3     1  UNL1        0.1746
     81 O         -63.6755  -45.8485  -27.0097 O.3     1  UNL1       -0.3460
     82 C         -63.7690  -47.7640  -28.4527 C.2     1  UNL1        0.2064
     83 O         -64.2648  -48.8479  -28.1800 O.2     1  UNL1       -0.2909
     84 C         -63.9886  -47.2071  -29.8523 C.3     1  UNL1        0.1970
     85 O         -64.8511  -48.0223  -30.6064 O.3     1  UNL1       -0.3752
     86 H         -65.7827  -47.8361  -30.3198 H       1  UNL1        0.2110
     87 C         -64.4897  -45.7372  -29.8318 C.3     1  UNL1        0.1445
     88 C         -64.8481  -45.2118  -31.2292 C.3     1  UNL1        0.0348
     89 O         -65.6001  -45.6122  -28.9784 O.3     1  UNL1       -0.3815
     90 H         -66.3207  -46.1943  -29.3376 H       1  UNL1        0.2105
@<TRIPOS>BOND
     1    80    81    1
     2    81    79    1
     3    79    82    1
     4    82    83    2
     5    82    84    1
     6    84    85    1
     7    84    87    1
     8    87    88    1
     9    87    89    1
    10    79     1    1
    11     1     2    1
    12     2    21    1
    13    21    22    1
    14     2     3    1
    15     3     4   ar
    16     4     5   ar
    17     5     6   ar
    18     6     7   ar
    19     7    24    1
    20    24    25    1
    21    25    26    1
    22    26    27    1
    23    27    34    1
    24    34    35    1
    25    35    36    1
    26    36    37    1
    27    37    38    1
    28    37    39    1
    29    39    40    1
    30    39    41    1
    31    41    42    1
    32    41    43    1
    33    27    28    1
    34    28    29    1
    35    28    30    1
    36    30    31    1
    37    30    32    1
    38     7     8   ar
    39     8     9    1
    40     8    10   ar
    41    10    11    1
    42    10    12   ar
    43    12    13   ar
    44    13    14    1
    45    13    15   ar
    46    15    16    1
    47    16    17    2
    48    16    18    1
    49    18    46    1
    50    46    47    1
    51    47    48    1
    52    48    49    1
    53    49    56    1
    54    56    57    1
    55    57    58    1
    56    58    59    1
    57    59    60    1
    58    59    61    1
    59    61    66    1
    60    66    67    1
    61    67    68    1
    62    68    69    1
    63    69    70    1
    64    69    71    1
    65    69    72    1
    66    72    73    1
    67    72    74    1
    68    74    75    1
    69    74    76    1
    70    61    62    1
    71    62    63    1
    72    62    64    1
    73    49    50    1
    74    50    51    1
    75    50    52    1
    76    52    53    1
    77    52    54    1
    78    18     1    1
    79    54    47    1
    80    15     3   ar
    81    64    57    1
    82    12     5   ar
    83    76    67    1
    84    32    25    1
    85    43    35    1
    86    85    86    1
    87    89    90    1
    88    22    23    1
    89    38    44    1
    90    40    45    1
    91    29    33    1
    92    11    19    1
    93    14    20    1
    94    60    65    1
    95    71    77    1
    96    73    78    1
    97    51    55    1
@<TRIPOS>MOLECULE
*****
 90 97 0 0 0
SMALL
GASTEIGER

@<TRIPOS>ATOM
      1 C         -62.9920  -43.7410  -29.8754 C.3     1  UNL1        0.0758
      2 C         -63.6528  -43.2125  -28.5535 C.3     1  UNL1        0.0574
      3 C         -62.7464  -43.2792  -27.3281 C.ar    1  UNL1       -0.0141
      4 C         -63.0887  -42.5145  -26.2068 C.ar    1  UNL1       -0.0037
      5 C         -62.3347  -42.5734  -25.0313 C.ar    1  UNL1        0.0085
      6 C         -62.7237  -41.8044  -23.9294 C.ar    1  UNL1        0.0370
      7 C         -62.0337  -41.8884  -22.7131 C.ar    1  UNL1        0.1402
      8 C         -60.8881  -42.7028  -22.6182 C.ar    1  UNL1        0.0459
      9 C         -60.1256  -42.7811  -21.3166 C.3     1  UNL1        0.0374
     10 C         -60.4898  -43.4932  -23.7252 C.ar    1  UNL1        0.1354
     11 O         -59.3761  -44.3357  -23.6257 O.3     1  UNL1       -0.5056
     12 C         -61.2203  -43.4384  -24.9418 C.ar    1  UNL1        0.0673
     13 C         -60.8843  -44.2423  -26.0629 C.ar    1  UNL1        0.1389
     14 O         -59.8718  -45.1997  -25.9394 O.3     1  UNL1       -0.5053
     15 C         -61.6038  -44.1058  -27.2790 C.ar    1  UNL1        0.0670
     16 C         -61.1465  -44.7466  -28.5332 C.2     1  UNL1        0.2026
     17 O         -59.9269  -45.0066  -28.7204 O.2     1  UNL1       -0.2887
     18 C         -62.1229  -45.0120  -29.6332 C.3     1  UNL1        0.1820
     19 H         -58.8254  -44.4507  -22.7853 H       1  UNL1        0.2922
     20 H         -59.7553  -45.9774  -26.5749 H       1  UNL1        0.2922
     21 C         -65.0349  -43.8538  -28.2691 C.3     1  UNL1        0.1416
     22 O         -65.2963  -44.9565  -29.0915 O.3     1  UNL1       -0.3816
     23 H         -64.7415  -45.7056  -28.7551 H       1  UNL1        0.2105
     24 O         -62.4715  -41.1899  -21.5736 O.3     1  UNL1       -0.4526
     25 C         -63.0827  -41.7699  -20.4164 C.3     1  UNL1        0.2901
     26 C         -63.2345  -40.7247  -19.2897 C.3     1  UNL1        0.1085
     27 C         -64.1113  -39.5382  -19.7512 C.3     1  UNL1        0.1531
     28 C         -65.1951  -40.0263  -20.7469 C.3     1  UNL1        0.1648
     29 O         -66.3710  -39.2669  -20.6027 O.3     1  UNL1       -0.3795
     30 C         -65.4724  -41.5495  -20.5894 C.3     1  UNL1        0.1480
     31 C         -66.5604  -42.0062  -21.5634 C.3     1  UNL1        0.0349
     32 O         -64.3189  -42.3604  -20.8056 O.3     1  UNL1       -0.3205
     33 H         -66.7653  -39.4891  -19.7188 H       1  UNL1        0.2105
     34 O         -63.3375  -38.5385  -20.4012 O.3     1  UNL1       -0.3301
     35 C         -63.7599  -37.2195  -20.0913 C.3     1  UNL1        0.2376
     36 C         -62.5602  -36.4481  -19.5085 C.3     1  UNL1        0.0931
     37 C         -63.0044  -35.3305  -18.5442 C.3     1  UNL1        0.1446
     38 O         -62.0824  -34.2724  -18.6025 O.3     1  UNL1       -0.3817
     39 C         -64.4129  -34.8340  -18.9067 C.3     1  UNL1        0.1644
     40 O         -64.8156  -33.8515  -17.9868 O.3     1  UNL1       -0.3795
     41 C         -65.4052  -36.0339  -18.8805 C.3     1  UNL1        0.1469
     42 C         -66.5912  -35.8264  -19.8294 C.3     1  UNL1        0.0348
     43 O         -64.7921  -37.2954  -19.1249 O.3     1  UNL1       -0.3304
     44 H         -62.1717  -33.7635  -17.7548 H       1  UNL1        0.2104
     45 H         -65.5720  -33.3620  -18.4028 H       1  UNL1        0.2105
     46 O         -62.9153  -46.1249  -29.2575 O.3     1  UNL1       -0.3249
     47 C         -62.3320  -46.8661  -28.1967 C.3     1  UNL1        0.2380
     48 C         -63.0203  -46.5489  -26.8470 C.3     1  UNL1        0.0935
     49 C         -63.0352  -47.7926  -25.9636 C.3     1  UNL1        0.1519
     50 C         -63.8609  -48.8766  -26.6696 C.3     1  UNL1        0.1648
     51 O         -63.5860  -50.1147  -26.0654 O.3     1  UNL1       -0.3795
     52 C         -63.5389  -48.9337  -28.1963 C.3     1  UNL1        0.1469
     53 C         -64.7224  -48.4878  -29.0718 C.3     1  UNL1        0.0348
     54 O         -62.3366  -48.2506  -28.5342 O.3     1  UNL1       -0.3304
     55 H         -64.3253  -50.7274  -26.3187 H       1  UNL1        0.2105
     56 O         -63.6362  -47.4828  -24.7141 O.3     1  UNL1       -0.3302
     57 C         -62.7217  -47.6357  -23.6433 C.3     1  UNL1        0.2376
     58 C         -62.6124  -46.2861  -22.9113 C.3     1  UNL1        0.0931
     59 C         -61.6396  -46.3738  -21.7186 C.3     1  UNL1        0.1450
     60 O         -62.3634  -46.6109  -20.5377 O.3     1  UNL1       -0.3817
     61 C         -60.5632  -47.4691  -21.9303 C.3     1  UNL1        0.1715
     62 C         -60.3225  -47.6511  -23.4489 C.3     1  UNL1        0.1473
     63 C         -59.1679  -48.6174  -23.7175 C.3     1  UNL1        0.0348
     64 O         -61.4728  -48.1184  -24.1437 O.3     1  UNL1       -0.3304
     65 H         -61.7760  -46.3427  -19.7835 H       1  UNL1        0.2104
     66 O         -61.0129  -48.7009  -21.3768 O.3     1  UNL1       -0.3279
     67 C         -60.9861  -49.7447  -22.3312 C.3     1  UNL1        0.2376
     68 C         -62.3612  -50.4427  -22.3359 C.3     1  UNL1        0.0907
     69 C         -62.2701  -51.9220  -22.7988 C.3     1  UNL1        0.1201
     70 C         -63.5863  -52.3190  -23.5003 C.3     1  UNL1        0.0321
     71 O         -62.0877  -52.7274  -21.6550 O.3     1  UNL1       -0.3841
     72 C         -61.0572  -52.0733  -23.7564 C.3     1  UNL1        0.1620
     73 O         -60.9176  -53.4037  -24.1930 O.3     1  UNL1       -0.3796
     74 C         -59.7566  -51.6335  -23.0221 C.3     1  UNL1        0.1468
     75 C         -58.6827  -51.1443  -23.9996 C.3     1  UNL1        0.0348
     76 O         -59.9681  -50.6713  -21.9932 O.3     1  UNL1       -0.3304
     77 H         -62.0611  -53.6769  -21.9439 H       1  UNL1        0.2103
     78 H         -61.4454  -53.4961  -25.0287 H       1  UNL1        0.2105
     79 C         -62.1850  -42.5961  -30.5721 C.3     1  UNL1        0.1778
     80 C         -61.5880  -40.5099  -29.7268 C.3     1  UNL1        0.1746
     81 O         -62.6620  -41.3413  -30.1112 O.3     1  UNL1       -0.3460
     82 C         -62.2675  -42.6358  -32.0932 C.2     1  UNL1        0.2064
     83 O         -63.0370  -41.8631  -32.6462 O.2     1  UNL1       -0.2909
     84 C         -61.4313  -43.5616  -32.9657 C.3     1  UNL1        0.1970
     85 O         -61.7244  -43.3942  -34.3307 O.3     1  UNL1       -0.3752
     86 H         -61.2616  -42.5761  -34.6488 H       1  UNL1        0.2110
     87 C         -59.9087  -43.4076  -32.7011 C.3     1  UNL1        0.1445
     88 C         -59.3015  -44.6287  -31.9959 C.3     1  UNL1        0.0348
     89 O         -59.2259  -43.1672  -33.9065 O.3     1  UNL1       -0.3815
     90 H         -59.3737  -43.9533  -34.4961 H       1  UNL1        0.2105
@<TRIPOS>BOND
     1    80    81    1
     2    81    79    1
     3    79    82    1
     4    82    83    2
     5    82    84    1
     6    84    85    1
     7    84    87    1
     8    87    88    1
     9    87    89    1
    10    79     1    1
    11     1     2    1
    12     2    21    1
    13    21    22    1
    14     2     3    1
    15     3     4   ar
    16     4     5   ar
    17     5     6   ar
    18     6     7   ar
    19     7    24    1
    20    24    25    1
    21    25    26    1
    22    26    27    1
    23    27    34    1
    24    34    35    1
    25    35    36    1
    26    36    37    1
    27    37    38    1
    28    37    39    1
    29    39    40    1
    30    39    41    1
    31    41    42    1
    32    41    43    1
    33    27    28    1
    34    28    29    1
    35    28    30    1
    36    30    31    1
    37    30    32    1
    38     7     8   ar
    39     8     9    1
    40     8    10   ar
    41    10    11    1
    42    10    12   ar
    43    12    13   ar
    44    13    14    1
    45    13    15   ar
    46    15    16    1
    47    16    17    2
    48    16    18    1
    49    18    46    1
    50    46    47    1
    51    47    48    1
    52    48    49    1
    53    49    56    1
    54    56    57    1
    55    57    58    1
    56    58    59    1
    57    59    60    1
    58    59    61    1
    59    61    66    1
    60    66    67    1
    61    67    68    1
    62    68    69    1
    63    69    70    1
    64    69    71    1
    65    69    72    1
    66    72    73    1
    67    72    74    1
    68    74    75    1
    69    74    76    1
    70    61    62    1
    71    62    63    1
    72    62    64    1
    73    49    50    1
    74    50    51    1
    75    50    52    1
    76    52    53    1
    77    52    54    1
    78    18     1    1
    79    54    47    1
    80    15     3   ar
    81    64    57    1
    82    12     5   ar
    83    76    67    1
    84    32    25    1
    85    43    35    1
    86    85    86    1
    87    89    90    1
    88    22    23    1
    89    38    44    1
    90    40    45    1
    91    29    33    1
    92    11    19    1
    93    14    20    1
    94    60    65    1
    95    71    77    1
    96    73    78    1
    97    51    55    1
@<TRIPOS>MOLECULE
*****
 90 97 0 0 0
SMALL
GASTEIGER

@<TRIPOS>ATOM
      1 C         -62.8318  -48.0507  -26.2526 C.3     1  UNL1        0.0758
      2 C         -63.4150  -47.3716  -24.9634 C.3     1  UNL1        0.0574
      3 C         -62.4600  -46.3977  -24.2799 C.ar    1  UNL1       -0.0141
      4 C         -62.9894  -45.4821  -23.3631 C.ar    1  UNL1       -0.0037
      5 C         -62.1636  -44.6013  -22.6588 C.ar    1  UNL1        0.0085
      6 C         -62.7345  -43.7147  -21.7397 C.ar    1  UNL1        0.0370
      7 C         -61.9335  -42.8649  -20.9659 C.ar    1  UNL1        0.1402
      8 C         -60.5392  -42.8495  -21.1671 C.ar    1  UNL1        0.0459
      9 C         -59.6711  -41.9197  -20.3525 C.3     1  UNL1        0.0374
     10 C         -59.9487  -43.7496  -22.0891 C.ar    1  UNL1        0.1354
     11 O         -58.5599  -43.7685  -22.2651 O.3     1  UNL1       -0.5056
     12 C         -60.7620  -44.6410  -22.8379 C.ar    1  UNL1        0.0673
     13 C         -60.2126  -45.5883  -23.7416 C.ar    1  UNL1        0.1389
     14 O         -58.8232  -45.7301  -23.8233 O.3     1  UNL1       -0.5053
     15 C         -61.0689  -46.4142  -24.5160 C.ar    1  UNL1        0.0670
     16 C         -60.5557  -47.2446  -25.6296 C.2     1  UNL1        0.2026
     17 O         -59.5077  -46.9191  -26.2506 O.2     1  UNL1       -0.2887
     18 C         -61.3308  -48.4374  -26.0882 C.3     1  UNL1        0.1820
     19 H         -57.9148  -43.1864  -21.7476 H       1  UNL1        0.2922
     20 H         -58.3648  -46.5394  -24.2196 H       1  UNL1        0.2922
     21 C         -63.9997  -48.3915  -23.9534 C.3     1  UNL1        0.1416
     22 O         -65.2630  -48.8612  -24.3329 O.3     1  UNL1       -0.3816
     23 H         -65.1225  -49.4958  -25.0811 H       1  UNL1        0.2105
     24 O         -62.4897  -42.0364  -19.9750 O.3     1  UNL1       -0.4526
     25 C         -62.2474  -40.6342  -19.8195 C.3     1  UNL1        0.2901
     26 C         -62.6481  -39.8599  -21.0942 C.3     1  UNL1        0.1085
     27 C         -64.1486  -40.0549  -21.4104 C.3     1  UNL1        0.1531
     28 C         -64.9590  -40.2078  -20.0974 C.3     1  UNL1        0.1648
     29 O         -66.2431  -39.6519  -20.2463 O.3     1  UNL1       -0.3795
     30 C         -64.2039  -39.5920  -18.8840 C.3     1  UNL1        0.1480
     31 C         -65.0298  -39.7319  -17.6035 C.3     1  UNL1        0.0349
     32 O         -62.9272  -40.1843  -18.6516 O.3     1  UNL1       -0.3205
     33 H         -66.1366  -38.6680  -20.3281 H       1  UNL1        0.2105
     34 O         -64.3695  -41.2164  -22.1995 O.3     1  UNL1       -0.3301
     35 C         -64.1206  -41.0058  -23.5808 C.3     1  UNL1        0.2376
     36 C         -65.4021  -40.4452  -24.2268 C.3     1  UNL1        0.0931
     37 C         -65.5049  -40.8117  -25.7206 C.3     1  UNL1        0.1446
     38 O         -66.1879  -39.7918  -26.4036 O.3     1  UNL1       -0.3817
     39 C         -64.1059  -41.0157  -26.3230 C.3     1  UNL1        0.1644
     40 O         -64.2257  -41.3956  -27.6703 O.3     1  UNL1       -0.3795
     41 C         -63.3537  -42.1169  -25.5189 C.3     1  UNL1        0.1469
     42 C         -61.8327  -41.9314  -25.5644 C.3     1  UNL1        0.0348
     43 O         -63.7948  -42.2507  -24.1719 O.3     1  UNL1       -0.3304
     44 H         -66.5535  -40.1942  -27.2343 H       1  UNL1        0.2104
     45 H         -63.3414  -41.2381  -28.0924 H       1  UNL1        0.2105
     46 O         -61.1570  -49.4680  -25.1313 O.3     1  UNL1       -0.3249
     47 C         -62.3851  -49.8656  -24.5409 C.3     1  UNL1        0.2380
     48 C         -62.9413  -51.1444  -25.2126 C.3     1  UNL1        0.0935
     49 C         -63.6771  -51.9969  -24.1833 C.3     1  UNL1        0.1519
     50 C         -62.6719  -52.4297  -23.1075 C.3     1  UNL1        0.1648
     51 O         -63.3840  -52.8908  -21.9878 O.3     1  UNL1       -0.3795
     52 C         -61.7276  -51.2535  -22.7043 C.3     1  UNL1        0.1469
     53 C         -60.2681  -51.4890  -23.1291 C.3     1  UNL1        0.0348
     54 O         -62.2108  -49.9845  -23.1315 O.3     1  UNL1       -0.3304
     55 H         -62.7492  -53.4298  -21.4468 H       1  UNL1        0.2105
     56 O         -64.2147  -53.1499  -24.8159 O.3     1  UNL1       -0.3302
     57 C         -65.3443  -53.6472  -24.1209 C.3     1  UNL1        0.2376
     58 C         -64.8607  -54.7172  -23.1257 C.3     1  UNL1        0.0931
     59 C         -66.0362  -55.3016  -22.3175 C.3     1  UNL1        0.1450
     60 O         -66.1366  -54.6351  -21.0844 O.3     1  UNL1       -0.3817
     61 C         -67.3732  -55.2147  -23.0973 C.3     1  UNL1        0.1715
     62 C         -67.0730  -55.2474  -24.6158 C.3     1  UNL1        0.1473
     63 C         -68.3619  -55.3089  -25.4368 C.3     1  UNL1        0.0348
     64 O         -66.3096  -54.1309  -25.0576 O.3     1  UNL1       -0.3304
     65 H         -66.6602  -55.2256  -20.4820 H       1  UNL1        0.2104
     66 O         -68.0397  -53.9982  -22.7781 O.3     1  UNL1       -0.3279
     67 C         -69.3428  -54.2304  -22.2789 C.3     1  UNL1        0.2376
     68 C         -69.4017  -53.7502  -20.8147 C.3     1  UNL1        0.0907
     69 C         -70.4761  -54.5077  -19.9884 C.3     1  UNL1        0.1201
     70 C         -71.0261  -53.5744  -18.8891 C.3     1  UNL1        0.0321
     71 O         -69.8581  -55.6249  -19.3881 O.3     1  UNL1       -0.3841
     72 C         -71.6070  -54.9739  -20.9449 C.3     1  UNL1        0.1620
     73 O         -72.6016  -55.6841  -20.2475 O.3     1  UNL1       -0.3796
     74 C         -71.0064  -55.8854  -22.0552 C.3     1  UNL1        0.1468
     75 C         -71.8476  -55.8607  -23.3357 C.3     1  UNL1        0.0348
     76 O         -69.6399  -55.6145  -22.3523 O.3     1  UNL1       -0.3304
     77 H         -70.5346  -56.0939  -18.8329 H       1  UNL1        0.2103
     78 H         -73.2800  -55.0238  -19.9489 H       1  UNL1        0.2105
     79 C         -63.0751  -47.1400  -27.5011 C.3     1  UNL1        0.1778
     80 C         -63.0034  -44.8164  -27.3627 C.3     1  UNL1        0.1746
     81 O         -63.7714  -45.9708  -27.0978 O.3     1  UNL1       -0.3460
     82 C         -63.8566  -47.8309  -28.6120 C.2     1  UNL1        0.2064
     83 O         -64.3350  -48.9315  -28.3775 O.2     1  UNL1       -0.2909
     84 C         -64.0984  -47.2222  -29.9861 C.3     1  UNL1        0.1970
     85 O         -65.0027  -47.9889  -30.7421 O.3     1  UNL1       -0.3752
     86 H         -65.9209  -47.7878  -30.4239 H       1  UNL1        0.2110
     87 C         -64.5585  -45.7411  -29.9040 C.3     1  UNL1        0.1445
     88 C         -64.8491  -45.1317  -31.2828 C.3     1  UNL1        0.0348
     89 O         -65.6963  -45.6284  -29.0856 O.3     1  UNL1       -0.3815
     90 H         -66.4189  -46.1687  -29.5017 H       1  UNL1        0.2105
@<TRIPOS>BOND
     1    80    81    1
     2    81    79    1
     3    79    82    1
     4    82    83    2
     5    82    84    1
     6    84    85    1
     7    84    87    1
     8    87    88    1
     9    87    89    1
    10    79     1    1
    11     1     2    1
    12     2    21    1
    13    21    22    1
    14     2     3    1
    15     3     4   ar
    16     4     5   ar
    17     5     6   ar
    18     6     7   ar
    19     7    24    1
    20    24    25    1
    21    25    26    1
    22    26    27    1
    23    27    34    1
    24    34    35    1
    25    35    36    1
    26    36    37    1
    27    37    38    1
    28    37    39    1
    29    39    40    1
    30    39    41    1
    31    41    42    1
    32    41    43    1
    33    27    28    1
    34    28    29    1
    35    28    30    1
    36    30    31    1
    37    30    32    1
    38     7     8   ar
    39     8     9    1
    40     8    10   ar
    41    10    11    1
    42    10    12   ar
    43    12    13   ar
    44    13    14    1
    45    13    15   ar
    46    15    16    1
    47    16    17    2
    48    16    18    1
    49    18    46    1
    50    46    47    1
    51    47    48    1
    52    48    49    1
    53    49    56    1
    54    56    57    1
    55    57    58    1
    56    58    59    1
    57    59    60    1
    58    59    61    1
    59    61    66    1
    60    66    67    1
    61    67    68    1
    62    68    69    1
    63    69    70    1
    64    69    71    1
    65    69    72    1
    66    72    73    1
    67    72    74    1
    68    74    75    1
    69    74    76    1
    70    61    62    1
    71    62    63    1
    72    62    64    1
    73    49    50    1
    74    50    51    1
    75    50    52    1
    76    52    53    1
    77    52    54    1
    78    18     1    1
    79    54    47    1
    80    15     3   ar
    81    64    57    1
    82    12     5   ar
    83    76    67    1
    84    32    25    1
    85    43    35    1
    86    85    86    1
    87    89    90    1
    88    22    23    1
    89    38    44    1
    90    40    45    1
    91    29    33    1
    92    11    19    1
    93    14    20    1
    94    60    65    1
    95    71    77    1
    96    73    78    1
    97    51    55    1
@<TRIPOS>MOLECULE
*****
 90 97 0 0 0
SMALL
GASTEIGER

@<TRIPOS>ATOM
      1 C         -64.8795  -41.0677  -19.9695 C.3     1  UNL1        0.0758
      2 C         -64.7790  -42.6178  -20.1943 C.3     1  UNL1        0.0574
      3 C         -63.4728  -43.0759  -20.8359 C.ar    1  UNL1       -0.0141
      4 C         -63.1281  -44.4295  -20.7458 C.ar    1  UNL1       -0.0037
      5 C         -61.9753  -44.9266  -21.3606 C.ar    1  UNL1        0.0085
      6 C         -61.6788  -46.2899  -21.2586 C.ar    1  UNL1        0.0370
      7 C         -60.5701  -46.8369  -21.9175 C.ar    1  UNL1        0.1402
      8 C         -59.6995  -45.9915  -22.6331 C.ar    1  UNL1        0.0459
      9 C         -58.4895  -46.5706  -23.3275 C.3     1  UNL1        0.0374
     10 C         -59.9946  -44.6103  -22.7508 C.ar    1  UNL1        0.1354
     11 O         -59.1561  -43.7709  -23.4941 O.3     1  UNL1       -0.5056
     12 C         -61.1453  -44.0692  -22.1182 C.ar    1  UNL1        0.0673
     13 C         -61.5040  -42.7010  -22.2425 C.ar    1  UNL1        0.1389
     14 O         -60.7687  -41.8762  -23.1005 O.3     1  UNL1       -0.5053
     15 C         -62.6271  -42.1921  -21.5393 C.ar    1  UNL1        0.0670
     16 C         -62.9014  -40.7395  -21.4519 C.2     1  UNL1        0.2026
     17 O         -61.9674  -39.8973  -21.5443 O.2     1  UNL1       -0.2887
     18 C         -64.2867  -40.2589  -21.1627 C.3     1  UNL1        0.1820
     19 H         -58.3375  -44.0877  -23.9963 H       1  UNL1        0.2922
     20 H         -61.1063  -40.9903  -23.4520 H       1  UNL1        0.2922
     21 C         -66.0079  -43.2030  -20.9357 C.3     1  UNL1        0.1416
     22 O         -66.8689  -42.2098  -21.4181 O.3     1  UNL1       -0.3816
     23 H         -66.4291  -41.8056  -22.2090 H       1  UNL1        0.2105
     24 O         -60.3155  -48.2199  -21.8969 O.3     1  UNL1       -0.4526
     25 C         -61.2626  -49.2434  -21.5733 C.3     1  UNL1        0.2901
     26 C         -62.4027  -49.2896  -22.6140 C.3     1  UNL1        0.1085
     27 C         -61.8489  -49.5785  -24.0279 C.3     1  UNL1        0.1531
     28 C         -60.6049  -50.4998  -23.9399 C.3     1  UNL1        0.1648
     29 O         -60.5422  -51.3473  -25.0615 O.3     1  UNL1       -0.3795
     30 C         -60.5832  -51.3061  -22.6090 C.3     1  UNL1        0.1480
     31 C         -59.3616  -52.2257  -22.5520 C.3     1  UNL1        0.0349
     32 O         -60.5670  -50.4796  -21.4464 O.3     1  UNL1       -0.3205
     33 H         -61.2981  -51.9880  -24.9962 H       1  UNL1        0.2105
     34 O         -61.4624  -48.3826  -24.6920 O.3     1  UNL1       -0.3301
     35 C         -61.8038  -48.3763  -26.0696 C.3     1  UNL1        0.2376
     36 C         -61.1131  -47.1717  -26.7372 C.3     1  UNL1        0.0931
     37 C         -61.8955  -46.6631  -27.9642 C.3     1  UNL1        0.1446
     38 O         -60.9951  -46.1318  -28.9023 O.3     1  UNL1       -0.3817
     39 C         -62.7129  -47.8029  -28.5925 C.3     1  UNL1        0.1644
     40 O         -63.4541  -47.3061  -29.6777 O.3     1  UNL1       -0.3795
     41 C         -63.6680  -48.4046  -27.5197 C.3     1  UNL1        0.1469
     42 C         -63.9944  -49.8770  -27.7944 C.3     1  UNL1        0.0348
     43 O         -63.2090  -48.2418  -26.1819 O.3     1  UNL1       -0.3304
     44 H         -61.5106  -45.5076  -29.4770 H       1  UNL1        0.2104
     45 H         -63.7288  -48.0904  -30.2202 H       1  UNL1        0.2105
     46 O         -65.0606  -40.4172  -22.3390 O.3     1  UNL1       -0.3249
     47 C         -64.2800  -40.2862  -23.5173 C.3     1  UNL1        0.2380
     48 C         -64.0249  -41.6634  -24.1763 C.3     1  UNL1        0.0935
     49 C         -63.9700  -41.5140  -25.6935 C.3     1  UNL1        0.1519
     50 C         -65.3345  -41.0059  -26.1785 C.3     1  UNL1        0.1648
     51 O         -65.1929  -40.5220  -27.4897 O.3     1  UNL1       -0.3795
     52 C         -65.8904  -39.8862  -25.2431 C.3     1  UNL1        0.1469
     53 C         -67.1443  -40.3255  -24.4681 C.3     1  UNL1        0.0348
     54 O         -64.8960  -39.3380  -24.3847 O.3     1  UNL1       -0.3304
     55 H         -66.1048  -40.4839  -27.8809 H       1  UNL1        0.2105
     56 O         -63.6999  -42.7761  -26.2874 O.3     1  UNL1       -0.3302
     57 C         -62.7038  -42.6785  -27.2897 C.3     1  UNL1        0.2376
     58 C         -61.3356  -42.9277  -26.6300 C.3     1  UNL1        0.0931
     59 C         -60.1940  -42.8501  -27.6632 C.3     1  UNL1        0.1450
     60 O         -59.8745  -44.1439  -28.1091 O.3     1  UNL1       -0.3817
     61 C         -60.5582  -41.9332  -28.8588 C.3     1  UNL1        0.1715
     62 C         -61.5660  -40.8594  -28.3808 C.3     1  UNL1        0.1473
     63 C         -61.8539  -39.8371  -29.4812 C.3     1  UNL1        0.0348
     64 O         -62.8023  -41.4107  -27.9426 O.3     1  UNL1       -0.3304
     65 H         -58.9627  -44.0949  -28.4989 H       1  UNL1        0.2104
     66 O         -61.1541  -42.7057  -29.8953 O.3     1  UNL1       -0.3279
     67 C         -62.5642  -42.5929  -29.8879 C.3     1  UNL1        0.2376
     68 C         -63.1706  -44.0079  -29.7982 C.3     1  UNL1        0.0907
     69 C         -64.5899  -44.0820  -30.4235 C.3     1  UNL1        0.1201
     70 C         -65.4159  -45.1586  -29.6882 C.3     1  UNL1        0.0321
     71 O         -64.4513  -44.4436  -31.7802 O.3     1  UNL1       -0.3841
     72 C         -65.2608  -42.6863  -30.3097 C.3     1  UNL1        0.1620
     73 O         -66.5473  -42.6931  -30.8797 O.3     1  UNL1       -0.3796
     74 C         -64.3819  -41.6257  -31.0356 C.3     1  UNL1        0.1468
     75 C         -64.5864  -40.2200  -30.4611 C.3     1  UNL1        0.0348
     76 O         -62.9954  -41.9500  -31.0754 O.3     1  UNL1       -0.3304
     77 H         -65.3587  -44.5233  -32.1753 H       1  UNL1        0.2103
     78 H         -67.1868  -42.9347  -30.1599 H       1  UNL1        0.2105
     79 C         -64.2236  -40.6754  -18.6044 C.3     1  UNL1        0.1778
     80 C         -65.1414  -42.2811  -17.1894 C.3     1  UNL1        0.1746
     81 O         -65.1482  -40.9178  -17.5552 O.3     1  UNL1       -0.3460
     82 C         -63.7689  -39.2221  -18.5463 C.2     1  UNL1        0.2064
     83 O         -62.6081  -38.9964  -18.2354 O.2     1  UNL1       -0.2909
     84 C         -64.6658  -38.0372  -18.8765 C.3     1  UNL1        0.1970
     85 O         -65.2785  -37.5126  -17.7248 O.3     1  UNL1       -0.3752
     86 H         -64.6124  -36.9535  -17.2469 H       1  UNL1        0.2110
     87 C         -63.9141  -36.9274  -19.6608 C.3     1  UNL1        0.1445
     88 C         -63.4849  -35.7549  -18.7673 C.3     1  UNL1        0.0348
     89 O         -62.7893  -37.4657  -20.3106 O.3     1  UNL1       -0.3815
     90 H         -62.1863  -37.8320  -19.6110 H       1  UNL1        0.2105
@<TRIPOS>BOND
     1    80    81    1
     2    81    79    1
     3    79    82    1
     4    82    83    2
     5    82    84    1
     6    84    85    1
     7    84    87    1
     8    87    88    1
     9    87    89    1
    10    79     1    1
    11     1     2    1
    12     2    21    1
    13    21    22    1
    14     2     3    1
    15     3     4   ar
    16     4     5   ar
    17     5     6   ar
    18     6     7   ar
    19     7    24    1
    20    24    25    1
    21    25    26    1
    22    26    27    1
    23    27    34    1
    24    34    35    1
    25    35    36    1
    26    36    37    1
    27    37    38    1
    28    37    39    1
    29    39    40    1
    30    39    41    1
    31    41    42    1
    32    41    43    1
    33    27    28    1
    34    28    29    1
    35    28    30    1
    36    30    31    1
    37    30    32    1
    38     7     8   ar
    39     8     9    1
    40     8    10   ar
    41    10    11    1
    42    10    12   ar
    43    12    13   ar
    44    13    14    1
    45    13    15   ar
    46    15    16    1
    47    16    17    2
    48    16    18    1
    49    18    46    1
    50    46    47    1
    51    47    48    1
    52    48    49    1
    53    49    56    1
    54    56    57    1
    55    57    58    1
    56    58    59    1
    57    59    60    1
    58    59    61    1
    59    61    66    1
    60    66    67    1
    61    67    68    1
    62    68    69    1
    63    69    70    1
    64    69    71    1
    65    69    72    1
    66    72    73    1
    67    72    74    1
    68    74    75    1
    69    74    76    1
    70    61    62    1
    71    62    63    1
    72    62    64    1
    73    49    50    1
    74    50    51    1
    75    50    52    1
    76    52    53    1
    77    52    54    1
    78    18     1    1
    79    54    47    1
    80    15     3   ar
    81    64    57    1
    82    12     5   ar
    83    76    67    1
    84    32    25    1
    85    43    35    1
    86    85    86    1
    87    89    90    1
    88    22    23    1
    89    38    44    1
    90    40    45    1
    91    29    33    1
    92    11    19    1
    93    14    20    1
    94    60    65    1
    95    71    77    1
    96    73    78    1
    97    51    55    1
