@<TRIPOS>MOLECULE
*****
 29 32 0 0 0
SMALL
GASTEIGER

@<TRIPOS>ATOM
      1 N          46.2777   13.6432  -24.3203 N.ar    1  UNL1       -0.3243
      2 C          46.5869   14.9640  -24.3906 C.ar    1  UNL1        0.0600
      3 C          46.7819   15.8610  -23.3350 C.ar    1  UNL1        0.0177
      4 C          47.0996   17.1952  -23.6479 C.ar    1  UNL1        0.0082
      5 C          47.2200   17.6099  -24.9929 C.ar    1  UNL1        0.0347
      6 BR         47.6526   19.4263  -25.3920 Br      1  UNL1       -0.0490
      7 C          47.0250   16.6923  -26.0407 C.ar    1  UNL1        0.0082
      8 C          46.7109   15.3775  -25.7024 C.ar    1  UNL1        0.0177
      9 C          46.4707   14.2704  -26.4826 C.ar    1  UNL1        0.0177
     10 C          46.4601   14.1045  -27.8661 C.ar    1  UNL1        0.0082
     11 C          46.1734   12.8237  -28.3703 C.ar    1  UNL1        0.0347
     12 BR         46.1426   12.5329  -30.2571 Br      1  UNL1       -0.0490
     13 C          45.9089   11.7517  -27.4896 C.ar    1  UNL1        0.0082
     14 C          45.9271   11.9468  -26.0967 C.ar    1  UNL1        0.0177
     15 C          46.2114   13.2289  -25.6129 C.ar    1  UNL1        0.0600
     16 C          46.0313   12.8505  -23.1082 C.3     1  UNL1        0.1429
     17 C          47.2843   12.0777  -22.6646 C.3     1  UNL1        0.2027
     18 F          47.8284   11.3939  -23.7382 F       1  UNL1       -0.2334
     19 C          48.3494   12.9943  -22.0479 C.3     1  UNL1        0.1259
     20 N          49.5959   12.9180  -22.8085 N.pl3   1  UNL1       -0.3157
     21 H          50.2719   12.1561  -22.5727 H       1  UNL1        0.1483
     22 C          50.4594   15.9719  -24.6967 C.ar    1  UNL1        0.2261
     23 C          50.4455   15.5167  -26.0178 C.ar    1  UNL1        0.0578
     24 C          50.1447   14.1785  -26.2778 C.ar    1  UNL1        0.0077
     25 C          49.8625   13.3101  -25.2214 C.ar    1  UNL1        0.0343
     26 C          49.8851   13.7954  -23.9072 C.ar    1  UNL1        0.1317
     27 N          50.1790   15.1066  -23.6824 N.ar    1  UNL1       -0.1969
     28 C          51.3064   18.1831  -25.4142 C.3     1  UNL1        0.2542
     29 O          50.7623   17.3101  -24.4311 O.3     1  UNL1       -0.4561
@<TRIPOS>BOND
     1    28    29    1
     2    29    22    1
     3    22    23   ar
     4    23    24   ar
     5    24    25   ar
     6    25    26   ar
     7    26    20    1
     8    20    19    1
     9    19    17    1
    10    17    18    1
    11    17    16    1
    12    16     1    1
    13     1     2   ar
    14     2     3   ar
    15     3     4   ar
    16     4     5   ar
    17     5     6    1
    18     5     7   ar
    19     7     8   ar
    20     8     9   ar
    21     9    10   ar
    22    10    11   ar
    23    11    12    1
    24    11    13   ar
    25    13    14   ar
    26    14    15   ar
    27    26    27   ar
    28    27    22   ar
    29    15     1   ar
    30     8     2   ar
    31    15     9   ar
    32    20    21    1
@<TRIPOS>MOLECULE
*****
 29 32 0 0 0
SMALL
GASTEIGER

@<TRIPOS>ATOM
      1 N          46.2449   13.6547  -24.3114 N.ar    1  UNL1       -0.3243
      2 C          46.1878   13.2263  -25.5992 C.ar    1  UNL1        0.0600
      3 C          45.8827   11.9442  -26.0683 C.ar    1  UNL1        0.0177
      4 C          45.8812   11.7291  -27.4584 C.ar    1  UNL1        0.0082
      5 C          46.1775   12.7839  -28.3502 C.ar    1  UNL1        0.0347
      6 BR         46.1686   12.4670  -30.2330 Br      1  UNL1       -0.0490
      7 C          46.4772   14.0674  -27.8598 C.ar    1  UNL1        0.0082
      8 C          46.4719   14.2524  -26.4786 C.ar    1  UNL1        0.0177
      9 C          46.7151   15.3665  -25.7094 C.ar    1  UNL1        0.0177
     10 C          47.0494   16.6726  -26.0616 C.ar    1  UNL1        0.0082
     11 C          47.2379   17.6031  -25.0245 C.ar    1  UNL1        0.0347
     12 BR         47.6987   19.4082  -25.4428 Br      1  UNL1       -0.0490
     13 C          47.0879   17.2105  -23.6761 C.ar    1  UNL1        0.0082
     14 C          46.7487   15.8853  -23.3487 C.ar    1  UNL1        0.0177
     15 C          46.5679   14.9721  -24.3937 C.ar    1  UNL1        0.0600
     16 C          46.0399   12.8532  -23.0973 C.3     1  UNL1        0.1429
     17 C          47.3080   12.0795  -22.7008 C.3     1  UNL1        0.2027
     18 F          47.8335   11.4274  -23.8029 F       1  UNL1       -0.2334
     19 C          48.3795   12.9887  -22.0842 C.3     1  UNL1        0.1259
     20 N          49.6184   12.9206  -22.8578 N.pl3   1  UNL1       -0.3157
     21 H          50.2898   12.1475  -22.6470 H       1  UNL1        0.1483
     22 C          50.4855   16.0141  -24.6786 C.ar    1  UNL1        0.2261
     23 C          50.4618   15.5903  -26.0099 C.ar    1  UNL1        0.0578
     24 C          50.1531   14.2601  -26.2996 C.ar    1  UNL1        0.0077
     25 C          49.8729   13.3683  -25.2623 C.ar    1  UNL1        0.0343
     26 C          49.9055   13.8223  -23.9372 C.ar    1  UNL1        0.1317
     27 N          50.2069   15.1265  -23.6833 N.ar    1  UNL1       -0.1969
     28 C          51.3740   18.2272  -25.3381 C.3     1  UNL1        0.2542
     29 O          50.7964   17.3443  -24.3833 O.3     1  UNL1       -0.4561
@<TRIPOS>BOND
     1    28    29    1
     2    29    22    1
     3    22    23   ar
     4    23    24   ar
     5    24    25   ar
     6    25    26   ar
     7    26    20    1
     8    20    19    1
     9    19    17    1
    10    17    18    1
    11    17    16    1
    12    16     1    1
    13     1     2   ar
    14     2     3   ar
    15     3     4   ar
    16     4     5   ar
    17     5     6    1
    18     5     7   ar
    19     7     8   ar
    20     8     9   ar
    21     9    10   ar
    22    10    11   ar
    23    11    12    1
    24    11    13   ar
    25    13    14   ar
    26    14    15   ar
    27    26    27   ar
    28    27    22   ar
    29    15     1   ar
    30     8     2   ar
    31    15     9   ar
    32    20    21    1
@<TRIPOS>MOLECULE
*****
 29 32 0 0 0
SMALL
GASTEIGER

@<TRIPOS>ATOM
      1 N          47.5747   13.2474  -26.1691 N.ar    1  UNL1       -0.3243
      2 C          47.7683   14.5675  -26.4241 C.ar    1  UNL1        0.0600
      3 C          46.8215   15.5158  -26.8257 C.ar    1  UNL1        0.0177
      4 C          47.2531   16.8387  -27.0312 C.ar    1  UNL1        0.0082
      5 C          48.6061   17.1934  -26.8326 C.ar    1  UNL1        0.0347
      6 BR         49.1674   18.9960  -27.1177 Br      1  UNL1       -0.0490
      7 C          49.5425   16.2270  -26.4241 C.ar    1  UNL1        0.0082
      8 C          49.0879   14.9244  -26.2283 C.ar    1  UNL1        0.0177
      9 C          49.7445   13.7818  -25.8341 C.ar    1  UNL1        0.0177
     10 C          51.0795   13.5546  -25.5055 C.ar    1  UNL1        0.0082
     11 C          51.4503   12.2500  -25.1350 C.ar    1  UNL1        0.0347
     12 BR         53.2651   11.8749  -24.6749 Br      1  UNL1       -0.0490
     13 C          50.4886   11.2162  -25.1008 C.ar    1  UNL1        0.0082
     14 C          49.1471   11.4734  -25.4364 C.ar    1  UNL1        0.0177
     15 C          48.7968   12.7772  -25.8056 C.ar    1  UNL1        0.0600
     16 C          46.3220   12.4908  -26.2984 C.3     1  UNL1        0.1429
     17 C          45.4517   12.6039  -25.0360 C.3     1  UNL1        0.2027
     18 F          44.1813   12.1145  -25.2865 F       1  UNL1       -0.2334
     19 C          46.0594   11.8623  -23.8378 C.3     1  UNL1        0.1259
     20 N          46.2442   12.7735  -22.7093 N.pl3   1  UNL1       -0.3157
     21 H          45.6360   12.6471  -21.8684 H       1  UNL1        0.1483
     22 C          47.9590   16.0197  -23.1076 C.ar    1  UNL1        0.2261
     23 C          49.2482   15.7311  -22.6525 C.ar    1  UNL1        0.0578
     24 C          49.5452   14.4409  -22.2097 C.ar    1  UNL1        0.0077
     25 C          48.5567   13.4548  -22.2242 C.ar    1  UNL1        0.0343
     26 C          47.2728   13.7745  -22.6853 C.ar    1  UNL1        0.1317
     27 N          47.0113   15.0409  -23.1143 N.ar    1  UNL1       -0.1969
     28 C          46.4289   17.9597  -23.2382 C.3     1  UNL1        0.2542
     29 O          47.6561   17.3105  -23.5496 O.3     1  UNL1       -0.4561
@<TRIPOS>BOND
     1    28    29    1
     2    29    22    1
     3    22    23   ar
     4    23    24   ar
     5    24    25   ar
     6    25    26   ar
     7    26    20    1
     8    20    19    1
     9    19    17    1
    10    17    18    1
    11    17    16    1
    12    16     1    1
    13     1     2   ar
    14     2     3   ar
    15     3     4   ar
    16     4     5   ar
    17     5     6    1
    18     5     7   ar
    19     7     8   ar
    20     8     9   ar
    21     9    10   ar
    22    10    11   ar
    23    11    12    1
    24    11    13   ar
    25    13    14   ar
    26    14    15   ar
    27    26    27   ar
    28    27    22   ar
    29    15     1   ar
    30     8     2   ar
    31    15     9   ar
    32    20    21    1
@<TRIPOS>MOLECULE
*****
 29 32 0 0 0
SMALL
GASTEIGER

@<TRIPOS>ATOM
      1 N          50.4989   13.5461  -23.6296 N.ar    1  UNL1       -0.3243
      2 C          51.0024   12.7143  -24.5781 C.ar    1  UNL1        0.0600
      3 C          52.3453   12.4616  -24.8780 C.ar    1  UNL1        0.0177
      4 C          52.6347   11.5512  -25.9105 C.ar    1  UNL1        0.0082
      5 C          51.5933   10.9111  -26.6185 C.ar    1  UNL1        0.0347
      6 BR         52.0118    9.6788  -28.0156 Br      1  UNL1       -0.0490
      7 C          50.2492   11.1743  -26.2994 C.ar    1  UNL1        0.0082
      8 C          49.9911   12.0806  -25.2728 C.ar    1  UNL1        0.0177
      9 C          48.8085   12.5337  -24.7358 C.ar    1  UNL1        0.0177
     10 C          47.4832   12.2361  -25.0466 C.ar    1  UNL1        0.0082
     11 C          46.4761   12.8761  -24.3028 C.ar    1  UNL1        0.0347
     12 BR         44.6407   12.5110  -24.6819 Br      1  UNL1       -0.0490
     13 C          46.8143   13.7863  -23.2771 C.ar    1  UNL1        0.0082
     14 C          48.1608   14.0678  -22.9835 C.ar    1  UNL1        0.0177
     15 C          49.1496   13.4239  -23.7360 C.ar    1  UNL1        0.0600
     16 C          51.2539   14.4155  -22.7172 C.3     1  UNL1        0.1429
     17 C          52.0298   13.6057  -21.6654 C.3     1  UNL1        0.2027
     18 F          53.2538   14.2008  -21.4123 F       1  UNL1       -0.2334
     19 C          51.2515   13.4554  -20.3514 C.3     1  UNL1        0.1259
     20 N          50.9452   12.0491  -20.0934 N.pl3   1  UNL1       -0.3157
     21 H          51.4890   11.5540  -19.3504 H       1  UNL1        0.1483
     22 C          49.1801    9.8031  -22.4337 C.ar    1  UNL1        0.2261
     23 C          47.8425    9.9995  -22.0802 C.ar    1  UNL1        0.0578
     24 C          47.5298   10.8902  -21.0517 C.ar    1  UNL1        0.0077
     25 C          48.5506   11.5732  -20.3874 C.ar    1  UNL1        0.0343
     26 C          49.8825   11.3547  -20.7636 C.ar    1  UNL1        0.1317
     27 N          50.1589   10.4821  -21.7727 N.ar    1  UNL1       -0.1969
     28 C          50.8400    8.5975  -23.8168 C.3     1  UNL1        0.2542
     29 O          49.4984    8.9107  -23.4611 O.3     1  UNL1       -0.4561
@<TRIPOS>BOND
     1    28    29    1
     2    29    22    1
     3    22    23   ar
     4    23    24   ar
     5    24    25   ar
     6    25    26   ar
     7    26    20    1
     8    20    19    1
     9    19    17    1
    10    17    18    1
    11    17    16    1
    12    16     1    1
    13     1     2   ar
    14     2     3   ar
    15     3     4   ar
    16     4     5   ar
    17     5     6    1
    18     5     7   ar
    19     7     8   ar
    20     8     9   ar
    21     9    10   ar
    22    10    11   ar
    23    11    12    1
    24    11    13   ar
    25    13    14   ar
    26    14    15   ar
    27    26    27   ar
    28    27    22   ar
    29    15     1   ar
    30     8     2   ar
    31    15     9   ar
    32    20    21    1
@<TRIPOS>MOLECULE
*****
 29 32 0 0 0
SMALL
GASTEIGER

@<TRIPOS>ATOM
      1 N          46.1497   14.6880  -26.5851 N.ar    1  UNL1       -0.3243
      2 C          46.2371   13.7386  -27.5528 C.ar    1  UNL1        0.0600
      3 C          46.0503   13.8925  -28.9306 C.ar    1  UNL1        0.0177
      4 C          46.1948   12.7587  -29.7506 C.ar    1  UNL1        0.0082
      5 C          46.5225   11.5034  -29.1917 C.ar    1  UNL1        0.0347
      6 BR         46.7136    9.9792  -30.3258 Br      1  UNL1       -0.0490
      7 C          46.7112   11.3693  -27.8046 C.ar    1  UNL1        0.0082
      8 C          46.5616   12.5084  -27.0159 C.ar    1  UNL1        0.0177
      9 C          46.6829   12.6971  -25.6588 C.ar    1  UNL1        0.0177
     10 C          46.9916   11.8090  -24.6303 C.ar    1  UNL1        0.0082
     11 C          47.0397   12.3154  -23.3196 C.ar    1  UNL1        0.0347
     12 BR         47.4559   11.1481  -21.8671 Br      1  UNL1       -0.0490
     13 C          46.7825   13.6819  -23.0715 C.ar    1  UNL1        0.0082
     14 C          46.4742   14.5569  -24.1288 C.ar    1  UNL1        0.0177
     15 C          46.4279   14.0347  -25.4264 C.ar    1  UNL1        0.0600
     16 C          45.7927   16.1027  -26.7565 C.3     1  UNL1        0.1429
     17 C          47.0143   17.0240  -26.6049 C.3     1  UNL1        0.2027
     18 F          47.2648   17.2681  -25.2655 F       1  UNL1       -0.2334
     19 C          48.2720   16.4416  -27.2636 C.3     1  UNL1        0.1259
     20 N          49.4107   16.5121  -26.3490 N.pl3   1  UNL1       -0.3157
     21 H          49.9146   17.4235  -26.2580 H       1  UNL1        0.1483
     22 C          50.2984   13.0830  -25.3048 C.ar    1  UNL1        0.2261
     23 C          50.5709   13.2492  -23.9444 C.ar    1  UNL1        0.0578
     24 C          50.4562   14.5178  -23.3731 C.ar    1  UNL1        0.0077
     25 C          50.0732   15.6047  -24.1616 C.ar    1  UNL1        0.0343
     26 C          49.8075   15.4071  -25.5231 C.ar    1  UNL1        0.1317
     27 N          49.9244   14.1578  -26.0538 N.ar    1  UNL1       -0.1969
     28 C          50.5535   10.6298  -25.1074 C.3     1  UNL1        0.2542
     29 O          50.4140   11.8154  -25.8818 O.3     1  UNL1       -0.4561
@<TRIPOS>BOND
     1    28    29    1
     2    29    22    1
     3    22    23   ar
     4    23    24   ar
     5    24    25   ar
     6    25    26   ar
     7    26    20    1
     8    20    19    1
     9    19    17    1
    10    17    18    1
    11    17    16    1
    12    16     1    1
    13     1     2   ar
    14     2     3   ar
    15     3     4   ar
    16     4     5   ar
    17     5     6    1
    18     5     7   ar
    19     7     8   ar
    20     8     9   ar
    21     9    10   ar
    22    10    11   ar
    23    11    12    1
    24    11    13   ar
    25    13    14   ar
    26    14    15   ar
    27    26    27   ar
    28    27    22   ar
    29    15     1   ar
    30     8     2   ar
    31    15     9   ar
    32    20    21    1
@<TRIPOS>MOLECULE
*****
 29 32 0 0 0
SMALL
GASTEIGER

@<TRIPOS>ATOM
      1 N          49.6298   11.7962  -23.1644 N.ar    1  UNL1       -0.3243
      2 C          49.7559   13.1039  -23.5096 C.ar    1  UNL1        0.0600
      3 C          49.4105   14.2312  -22.7567 C.ar    1  UNL1        0.0177
      4 C          49.6344   15.5002  -23.3210 C.ar    1  UNL1        0.0082
      5 C          50.1957   15.6252  -24.6112 C.ar    1  UNL1        0.0347
      6 BR         50.4904   17.3588  -25.3553 Br      1  UNL1       -0.0490
      7 C          50.5411   14.4802  -25.3511 C.ar    1  UNL1        0.0082
      8 C          50.3082   13.2359  -24.7684 C.ar    1  UNL1        0.0177
      9 C          50.5374   11.9597  -25.2274 C.ar    1  UNL1        0.0177
     10 C          51.0741   11.4958  -26.4267 C.ar    1  UNL1        0.0082
     11 C          51.1804   10.1048  -26.6025 C.ar    1  UNL1        0.0347
     12 BR         51.9063    9.4071  -28.2248 Br      1  UNL1       -0.0490
     13 C          50.7539    9.2214  -25.5863 C.ar    1  UNL1        0.0082
     14 C          50.2166    9.7169  -24.3845 C.ar    1  UNL1        0.0177
     15 C          50.1157   11.1040  -24.2282 C.ar    1  UNL1        0.0600
     16 C          49.0558   11.2545  -21.9254 C.3     1  UNL1        0.1429
     17 C          47.6120   10.7665  -22.1285 C.3     1  UNL1        0.2027
     18 F          47.3753    9.6415  -21.3574 F       1  UNL1       -0.2334
     19 C          46.5760   11.8469  -21.7901 C.3     1  UNL1        0.1259
     20 N          45.6991   12.0942  -22.9338 N.pl3   1  UNL1       -0.3157
     21 H          44.6725   11.9392  -22.8109 H       1  UNL1        0.1483
     22 C          47.0899   12.2139  -26.3526 C.ar    1  UNL1        0.2261
     23 C          47.1335   13.5873  -26.6064 C.ar    1  UNL1        0.0578
     24 C          46.6947   14.4791  -25.6260 C.ar    1  UNL1        0.0077
     25 C          46.2174   13.9940  -24.4067 C.ar    1  UNL1        0.0343
     26 C          46.1847   12.6114  -24.1817 C.ar    1  UNL1        0.1317
     27 N          46.6219   11.7640  -25.1548 N.ar    1  UNL1       -0.1969
     28 C          46.7710   11.0353  -28.5046 C.3     1  UNL1        0.2542
     29 O          47.5259   11.3171  -27.3319 O.3     1  UNL1       -0.4561
@<TRIPOS>BOND
     1    28    29    1
     2    29    22    1
     3    22    23   ar
     4    23    24   ar
     5    24    25   ar
     6    25    26   ar
     7    26    20    1
     8    20    19    1
     9    19    17    1
    10    17    18    1
    11    17    16    1
    12    16     1    1
    13     1     2   ar
    14     2     3   ar
    15     3     4   ar
    16     4     5   ar
    17     5     6    1
    18     5     7   ar
    19     7     8   ar
    20     8     9   ar
    21     9    10   ar
    22    10    11   ar
    23    11    12    1
    24    11    13   ar
    25    13    14   ar
    26    14    15   ar
    27    26    27   ar
    28    27    22   ar
    29    15     1   ar
    30     8     2   ar
    31    15     9   ar
    32    20    21    1
@<TRIPOS>MOLECULE
*****
 29 32 0 0 0
SMALL
GASTEIGER

@<TRIPOS>ATOM
      1 N          48.2511   10.1858  -22.6099 N.ar    1  UNL1       -0.3243
      2 C          47.6118   11.3015  -23.0477 C.ar    1  UNL1        0.0600
      3 C          46.5827   12.0087  -22.4170 C.ar    1  UNL1        0.0177
      4 C          46.0686   13.1483  -23.0617 C.ar    1  UNL1        0.0082
      5 C          46.5842   13.5632  -24.3098 C.ar    1  UNL1        0.0347
      6 BR         45.8700   15.1138  -25.1648 Br      1  UNL1       -0.0490
      7 C          47.6224   12.8420  -24.9261 C.ar    1  UNL1        0.0082
      8 C          48.1126   11.7170  -24.2657 C.ar    1  UNL1        0.0177
      9 C          49.1051   10.8259  -24.6016 C.ar    1  UNL1        0.0177
     10 C          49.9414   10.7565  -25.7141 C.ar    1  UNL1        0.0082
     11 C          50.8730    9.7048  -25.7690 C.ar    1  UNL1        0.0347
     12 BR         52.0458    9.5547  -27.2681 Br      1  UNL1       -0.0490
     13 C          50.9463    8.7597  -24.7219 C.ar    1  UNL1        0.0082
     14 C          50.0905    8.8540  -23.6096 C.ar    1  UNL1        0.0177
     15 C          49.1676    9.9056  -23.5734 C.ar    1  UNL1        0.0600
     16 C          47.9789    9.4292  -21.3804 C.3     1  UNL1        0.1429
     17 C          49.0394    9.6932  -20.2988 C.3     1  UNL1        0.2027
     18 F          50.2678    9.2002  -20.7041 F       1  UNL1       -0.2334
     19 C          49.1719   11.1843  -19.9608 C.3     1  UNL1        0.1259
     20 N          50.4544   11.7059  -20.4311 N.pl3   1  UNL1       -0.3157
     21 H          51.3276   11.3465  -19.9825 H       1  UNL1        0.1483
     22 C          51.5112   13.2013  -23.6380 C.ar    1  UNL1        0.2261
     23 C          50.7809   14.3924  -23.6639 C.ar    1  UNL1        0.0578
     24 C          49.9295   14.6968  -22.6003 C.ar    1  UNL1        0.0077
     25 C          49.8142   13.8130  -21.5254 C.ar    1  UNL1        0.0343
     26 C          50.5584   12.6257  -21.5282 C.ar    1  UNL1        0.1317
     27 N          51.3839   12.3553  -22.5777 N.ar    1  UNL1       -0.1969
     28 C          53.4576   11.9912  -24.5703 C.3     1  UNL1        0.2542
     29 O          52.3631   12.8910  -24.7016 O.3     1  UNL1       -0.4561
@<TRIPOS>BOND
     1    28    29    1
     2    29    22    1
     3    22    23   ar
     4    23    24   ar
     5    24    25   ar
     6    25    26   ar
     7    26    20    1
     8    20    19    1
     9    19    17    1
    10    17    18    1
    11    17    16    1
    12    16     1    1
    13     1     2   ar
    14     2     3   ar
    15     3     4   ar
    16     4     5   ar
    17     5     6    1
    18     5     7   ar
    19     7     8   ar
    20     8     9   ar
    21     9    10   ar
    22    10    11   ar
    23    11    12    1
    24    11    13   ar
    25    13    14   ar
    26    14    15   ar
    27    26    27   ar
    28    27    22   ar
    29    15     1   ar
    30     8     2   ar
    31    15     9   ar
    32    20    21    1
@<TRIPOS>MOLECULE
*****
 29 32 0 0 0
SMALL
GASTEIGER

@<TRIPOS>ATOM
      1 N          49.5288   12.0066  -23.1763 N.ar    1  UNL1       -0.3243
      2 C          50.0383   11.2911  -24.2125 C.ar    1  UNL1        0.0600
      3 C          50.1381    9.9011  -24.3336 C.ar    1  UNL1        0.0177
      4 C          50.7049    9.3763  -25.5093 C.ar    1  UNL1        0.0082
      5 C          51.1558   10.2351  -26.5363 C.ar    1  UNL1        0.0347
      6 BR         51.9212    9.4985  -28.1229 Br      1  UNL1       -0.0490
      7 C          51.0427   11.6300  -26.3984 C.ar    1  UNL1        0.0082
      8 C          50.4779   12.1227  -25.2236 C.ar    1  UNL1        0.0177
      9 C          50.2320   13.4090  -24.8026 C.ar    1  UNL1        0.0177
     10 C          50.4713   14.6385  -25.4132 C.ar    1  UNL1        0.0082
     11 C          50.1007   15.8005  -24.7138 C.ar    1  UNL1        0.0347
     12 BR         50.4039   17.5153  -25.4968 Br      1  UNL1       -0.0490
     13 C          49.5054   15.7066  -23.4364 C.ar    1  UNL1        0.0082
     14 C          49.2742   14.4521  -22.8436 C.ar    1  UNL1        0.0177
     15 C          49.6522   13.3065  -23.5530 C.ar    1  UNL1        0.0600
     16 C          48.9979   11.4837  -21.9102 C.3     1  UNL1        0.1429
     17 C          47.5715   10.9328  -22.0713 C.3     1  UNL1        0.2027
     18 F          47.3623    9.8848  -21.1914 F       1  UNL1       -0.2334
     19 C          46.5000   12.0090  -21.8505 C.3     1  UNL1        0.1259
     20 N          45.6431   12.1304  -23.0290 N.pl3   1  UNL1       -0.3157
     21 H          44.6303   11.8910  -22.9294 H       1  UNL1        0.1483
     22 C          47.0609   12.2210  -26.4377 C.ar    1  UNL1        0.2261
     23 C          47.0613   13.5892  -26.7217 C.ar    1  UNL1        0.0578
     24 C          46.5840   14.4872  -25.7652 C.ar    1  UNL1        0.0077
     25 C          46.1117   14.0135  -24.5395 C.ar    1  UNL1        0.0343
     26 C          46.1229   12.6358  -24.2840 C.ar    1  UNL1        0.1317
     27 N          46.5970   11.7823  -25.2341 N.ar    1  UNL1       -0.1969
     28 C          46.7865   10.9594  -28.5483 C.3     1  UNL1        0.2542
     29 O          47.5355   11.3179  -27.3928 O.3     1  UNL1       -0.4561
@<TRIPOS>BOND
     1    28    29    1
     2    29    22    1
     3    22    23   ar
     4    23    24   ar
     5    24    25   ar
     6    25    26   ar
     7    26    20    1
     8    20    19    1
     9    19    17    1
    10    17    18    1
    11    17    16    1
    12    16     1    1
    13     1     2   ar
    14     2     3   ar
    15     3     4   ar
    16     4     5   ar
    17     5     6    1
    18     5     7   ar
    19     7     8   ar
    20     8     9   ar
    21     9    10   ar
    22    10    11   ar
    23    11    12    1
    24    11    13   ar
    25    13    14   ar
    26    14    15   ar
    27    26    27   ar
    28    27    22   ar
    29    15     1   ar
    30     8     2   ar
    31    15     9   ar
    32    20    21    1
@<TRIPOS>MOLECULE
*****
 29 32 0 0 0
SMALL
GASTEIGER

@<TRIPOS>ATOM
      1 N          47.5644   13.1837  -26.0695 N.ar    1  UNL1       -0.3243
      2 C          47.7605   14.5028  -26.3280 C.ar    1  UNL1        0.0600
      3 C          46.8112   15.4569  -26.7094 C.ar    1  UNL1        0.0177
      4 C          47.2463   16.7773  -26.9234 C.ar    1  UNL1        0.0082
      5 C          48.6052   17.1239  -26.7530 C.ar    1  UNL1        0.0347
      6 BR         49.1711   18.9232  -27.0490 Br      1  UNL1       -0.0490
      7 C          49.5442   16.1517  -26.3645 C.ar    1  UNL1        0.0082
      8 C          49.0860   14.8517  -26.1597 C.ar    1  UNL1        0.0177
      9 C          49.7439   13.7050  -25.7797 C.ar    1  UNL1        0.0177
     10 C          51.0841   13.4698  -25.4791 C.ar    1  UNL1        0.0082
     11 C          51.4548   12.1628  -25.1169 C.ar    1  UNL1        0.0347
     12 BR         53.2764   11.7767  -24.6949 Br      1  UNL1       -0.0490
     13 C          50.4878   11.1347  -25.0630 C.ar    1  UNL1        0.0082
     14 C          49.1411   11.4001  -25.3705 C.ar    1  UNL1        0.0177
     15 C          48.7910   12.7061  -25.7318 C.ar    1  UNL1        0.0600
     16 C          46.3048   12.4347  -26.1730 C.3     1  UNL1        0.1429
     17 C          45.3348   12.7850  -25.0326 C.3     1  UNL1        0.2027
     18 F          44.1133   12.1669  -25.2380 F       1  UNL1       -0.2334
     19 C          45.8838   12.3900  -23.6551 C.3     1  UNL1        0.1259
     20 N          46.4897   13.5444  -22.9930 N.pl3   1  UNL1       -0.3157
     21 H          45.8785   14.3632  -22.7717 H       1  UNL1        0.1483
     22 C          49.7763   12.3808  -21.7758 C.ar    1  UNL1        0.2261
     23 C          50.5171   13.5653  -21.7464 C.ar    1  UNL1        0.0578
     24 C          49.9119   14.7613  -22.1363 C.ar    1  UNL1        0.0077
     25 C          48.5787   14.7643  -22.5513 C.ar    1  UNL1        0.0343
     26 C          47.8617   13.5607  -22.5712 C.ar    1  UNL1        0.1317
     27 N          48.4763   12.4085  -22.1826 N.ar    1  UNL1       -0.1969
     28 C          49.7014    9.9302  -21.4433 C.3     1  UNL1        0.2542
     29 O          50.3784   11.1805  -21.3886 O.3     1  UNL1       -0.4561
@<TRIPOS>BOND
     1    28    29    1
     2    29    22    1
     3    22    23   ar
     4    23    24   ar
     5    24    25   ar
     6    25    26   ar
     7    26    20    1
     8    20    19    1
     9    19    17    1
    10    17    18    1
    11    17    16    1
    12    16     1    1
    13     1     2   ar
    14     2     3   ar
    15     3     4   ar
    16     4     5   ar
    17     5     6    1
    18     5     7   ar
    19     7     8   ar
    20     8     9   ar
    21     9    10   ar
    22    10    11   ar
    23    11    12    1
    24    11    13   ar
    25    13    14   ar
    26    14    15   ar
    27    26    27   ar
    28    27    22   ar
    29    15     1   ar
    30     8     2   ar
    31    15     9   ar
    32    20    21    1
