@<TRIPOS>MOLECULE
*****
 55 61 0 0 0
SMALL
GASTEIGER

@<TRIPOS>ATOM
      1 C          58.3007   83.3742   10.7429 C.ar    1  UNL1        0.0481
      2 C          58.2055   83.4006   12.1424 C.ar    1  UNL1        0.0176
      3 C          58.1408   82.2081   12.8681 C.ar    1  UNL1        0.0382
      4 C          58.1646   80.9722   12.2119 C.ar    1  UNL1        0.1388
      5 C          58.2657   80.9445   10.8074 C.ar    1  UNL1        0.0382
      6 C          58.3292   82.1374   10.0813 C.ar    1  UNL1        0.0176
      7 N          59.0552   86.6080    8.1100 N.pl3   1  UNL1       -0.2968
      8 C          58.4132   85.3577    7.6724 C.3     1  UNL1        0.1126
      9 C          57.5495   84.7645    8.7828 C.3     1  UNL1        0.1123
     10 N          58.3547   84.6020    9.9955 N.pl3   1  UNL1       -0.3036
     11 C          59.2837   85.6606   10.4131 C.3     1  UNL1        0.1221
     12 C          59.1439   86.9355    9.5521 C.3     1  UNL1        0.1924
     13 C          59.9255   89.5394    5.1340 C.ar    1  UNL1        0.0699
     14 C          58.6038   89.3161    5.5551 C.ar    1  UNL1        0.0190
     15 C          58.3222   88.3571    6.5317 C.ar    1  UNL1        0.0160
     16 C          59.3546   87.5940    7.0981 C.ar    1  UNL1        0.0484
     17 C          60.6765   87.8153    6.6785 C.ar    1  UNL1        0.0160
     18 C          60.9588   88.7752    5.7029 C.ar    1  UNL1        0.0190
     19 N          61.1880   91.7311    2.5297 N.ar    1  UNL1       -0.2024
     20 N          60.0075   92.2866    2.7586 N.ar    1  UNL1       -0.1442
     21 C          59.4203   91.5519    3.7282 C.ar    1  UNL1        0.2073
     22 N          60.2082   90.5262    4.1230 N.ar    1  UNL1       -0.2398
     23 C          61.3073   90.6739    3.3570 C.ar    1  UNL1        0.3522
     24 O          62.3306   89.9413    3.4298 O.2     1  UNL1       -0.2444
     25 C          62.1547   92.2438    1.5516 C.3     1  UNL1        0.1099
     26 C          62.1551   91.3615    0.2956 C.3     1  UNL1        0.0265
     27 C          64.6805   92.3283    1.1622 C.3     1  UNL1        0.0021
     28 C          63.5530   92.3568    2.1942 C.3     1  UNL1        0.0245
     29 C          60.3039   87.8517    9.8462 C.2     1  UNL1        0.3337
     30 O          61.4731   87.3889    9.9395 O.2     1  UNL1       -0.2484
     31 O          60.0799   89.2115   10.0368 O.3     1  UNL1       -0.4790
     32 H          60.8472   89.8408   10.2397 H       1  UNL1        0.2951
     33 O          58.0928   79.8071   12.9931 O.3     1  UNL1       -0.4727
     34 C          59.2091   79.0316   13.4324 C.3     1  UNL1        0.2374
     35 C          60.5114   79.5267   12.7888 C.3     1  UNL1        0.1909
     36 C          61.7242   78.8062   13.2993 C.3     1  UNL1        0.1783
     37 O          62.7430   79.7532   13.3323 O.3     1  UNL1       -0.3266
     38 C          62.1237   81.0193   13.2217 C.3     1  UNL1        0.2314
     39 O          60.7214   80.8642   13.1044 O.3     1  UNL1       -0.3254
     40 C          62.6444   81.7842   11.9969 C.ar    1  UNL1        0.0410
     41 C          61.7026   82.4472   11.1797 C.ar    1  UNL1        0.0022
     42 C          62.1046   83.1862   10.0667 C.ar    1  UNL1        0.0113
     43 C          63.4568   83.2967    9.7516 C.ar    1  UNL1        0.0585
     44 CL         63.9595   84.2312    8.3546 Cl      1  UNL1       -0.0822
     45 C          64.4112   82.6764   10.5575 C.ar    1  UNL1        0.0226
     46 C          64.0262   81.9304   11.6794 C.ar    1  UNL1        0.0591
     47 CL         65.3350   81.2539   12.6483 Cl      1  UNL1       -0.0824
     48 C          62.3940   81.8258   14.5089 C.3     1  UNL1        0.1893
     49 N          62.0690   83.2444   14.3480 N.ar    1  UNL1       -0.2313
     50 N          60.8365   83.7092   14.2539 N.ar    1  UNL1       -0.1532
     51 C          60.9623   85.0414   14.1001 C.ar    1  UNL1        0.1604
     52 C          59.8005   85.9695   13.9982 C.3     1  UNL1        0.0756
     53 N          62.2489   85.4540   14.1177 N.ar    1  UNL1       -0.2146
     54 C          62.9152   84.2914   14.2639 C.ar    1  UNL1        0.1381
     55 C          64.4043   84.2084   14.3833 C.3     1  UNL1        0.0734
@<TRIPOS>BOND
     1    27    28    1
     2    28    25    1
     3    25    26    1
     4    25    19    1
     5    19    20   ar
     6    20    21   ar
     7    21    22   ar
     8    22    13    1
     9    13    14   ar
    10    14    15   ar
    11    15    16   ar
    12    16     7    1
    13     7     8    1
    14     8     9    1
    15     9    10    1
    16    10     1    1
    17     1     2   ar
    18     2     3   ar
    19     3     4   ar
    20     4    33    1
    21    33    34    1
    22    34    35    1
    23    35    36    1
    24    36    37    1
    25    37    38    1
    26    38    48    1
    27    48    49    1
    28    49    50   ar
    29    50    51   ar
    30    51    52    1
    31    51    53   ar
    32    53    54   ar
    33    54    55    1
    34    38    40    1
    35    40    41   ar
    36    41    42   ar
    37    42    43   ar
    38    43    44    1
    39    43    45   ar
    40    45    46   ar
    41    46    47    1
    42    38    39    1
    43     4     5   ar
    44     5     6   ar
    45    10    11    1
    46    11    12    1
    47    12    29    1
    48    29    30    2
    49    29    31    1
    50    16    17   ar
    51    17    18   ar
    52    22    23   ar
    53    23    24    2
    54    23    19   ar
    55    18    13   ar
    56    12     7    1
    57     6     1   ar
    58    39    35    1
    59    54    49   ar
    60    46    40   ar
    61    31    32    1
@<TRIPOS>MOLECULE
*****
 55 61 0 0 0
SMALL
GASTEIGER

@<TRIPOS>ATOM
      1 C          59.9947   83.9114   11.9315 C.ar    1  UNL1        0.0481
      2 C          59.2367   82.7329   11.8614 C.ar    1  UNL1        0.0176
      3 C          59.5063   81.6677   12.7249 C.ar    1  UNL1        0.0382
      4 C          60.5372   81.7574   13.6672 C.ar    1  UNL1        0.1388
      5 C          61.2951   82.9421   13.7421 C.ar    1  UNL1        0.0382
      6 C          61.0263   84.0073   12.8775 C.ar    1  UNL1        0.0176
      7 N          59.8620   86.8448    8.8760 N.pl3   1  UNL1       -0.2968
      8 C          59.5407   85.4287    8.6351 C.3     1  UNL1        0.1126
      9 C          58.8770   84.7991    9.8574 C.3     1  UNL1        0.1123
     10 N          59.7250   85.0027   11.0342 N.pl3   1  UNL1       -0.3036
     11 C          60.3713   86.3019   11.2634 C.3     1  UNL1        0.1221
     12 C          59.8996   87.3760   10.2585 C.3     1  UNL1        0.1924
     13 C          59.9488   89.4418    5.4914 C.ar    1  UNL1        0.0699
     14 C          61.0936   89.2610    6.2857 C.ar    1  UNL1        0.0190
     15 C          61.0628   88.4079    7.3920 C.ar    1  UNL1        0.0160
     16 C          59.8839   87.7279    7.7334 C.ar    1  UNL1        0.0484
     17 C          58.7382   87.9073    6.9412 C.ar    1  UNL1        0.0160
     18 C          58.7688   88.7592    5.8338 C.ar    1  UNL1        0.0190
     19 N          60.6567   91.5475    2.6201 N.ar    1  UNL1       -0.2024
     20 N          59.3553   91.7551    2.7542 N.ar    1  UNL1       -0.1442
     21 C          58.9562   91.0135    3.8103 C.ar    1  UNL1        0.2073
     22 N          59.9860   90.3268    4.3551 N.ar    1  UNL1       -0.2398
     23 C          61.0338   90.6904    3.5894 C.ar    1  UNL1        0.3522
     24 O          62.2204   90.3084    3.7770 O.2     1  UNL1       -0.2444
     25 C          61.4833   92.1898    1.5915 C.3     1  UNL1        0.1099
     26 C          60.8435   93.5131    1.1489 C.3     1  UNL1        0.0265
     27 C          61.9054   91.9485   -0.9190 C.3     1  UNL1        0.0021
     28 C          61.7132   91.2217    0.4122 C.3     1  UNL1        0.0245
     29 C          60.8023   88.5778   10.3704 C.2     1  UNL1        0.3337
     30 O          62.0461   88.4288   10.5146 O.2     1  UNL1       -0.2484
     31 O          60.2573   89.8574   10.3359 O.3     1  UNL1       -0.4790
     32 H          60.8487   90.6760   10.4142 H       1  UNL1        0.2951
     33 O          60.7645   80.6539   14.5058 O.3     1  UNL1       -0.4727
     34 C          61.1249   79.3414   14.0721 C.3     1  UNL1        0.2374
     35 C          60.6220   79.0746   12.6470 C.3     1  UNL1        0.1909
     36 C          61.1528   77.7946   12.0719 C.3     1  UNL1        0.1783
     37 O          61.3416   78.0371   10.7149 O.3     1  UNL1       -0.3266
     38 C          61.2985   79.4398   10.5437 C.3     1  UNL1        0.2314
     39 O          61.0680   80.0731   11.7887 O.3     1  UNL1       -0.3254
     40 C          60.1859   79.8433    9.5661 C.ar    1  UNL1        0.0410
     41 C          60.5641   80.4020    8.3254 C.ar    1  UNL1        0.0022
     42 C          59.6094   80.7655    7.3752 C.ar    1  UNL1        0.0113
     43 C          58.2552   80.5643    7.6317 C.ar    1  UNL1        0.0585
     44 CL         57.0575   81.0172    6.4327 Cl      1  UNL1       -0.0822
     45 C          57.8543   79.9877    8.8367 C.ar    1  UNL1        0.0226
     46 C          58.7988   79.6161    9.8026 C.ar    1  UNL1        0.0591
     47 CL         58.1626   78.8389   11.2519 Cl      1  UNL1       -0.0824
     48 C          62.6675   79.9256   10.0238 C.3     1  UNL1        0.1893
     49 N          63.2233   80.9959   10.8540 N.ar    1  UNL1       -0.2313
     50 N          63.7128   80.8060   12.0658 N.ar    1  UNL1       -0.1532
     51 C          64.1013   82.0225   12.4944 C.ar    1  UNL1        0.1604
     52 C          64.7567   82.2581   13.8121 C.3     1  UNL1        0.0756
     53 N          63.8975   82.9935   11.5770 N.ar    1  UNL1       -0.2146
     54 C          63.3325   82.3084   10.5629 C.ar    1  UNL1        0.1381
     55 C          62.9465   82.9381    9.2619 C.3     1  UNL1        0.0734
@<TRIPOS>BOND
     1    27    28    1
     2    28    25    1
     3    25    26    1
     4    25    19    1
     5    19    20   ar
     6    20    21   ar
     7    21    22   ar
     8    22    13    1
     9    13    14   ar
    10    14    15   ar
    11    15    16   ar
    12    16     7    1
    13     7     8    1
    14     8     9    1
    15     9    10    1
    16    10     1    1
    17     1     2   ar
    18     2     3   ar
    19     3     4   ar
    20     4    33    1
    21    33    34    1
    22    34    35    1
    23    35    36    1
    24    36    37    1
    25    37    38    1
    26    38    48    1
    27    48    49    1
    28    49    50   ar
    29    50    51   ar
    30    51    52    1
    31    51    53   ar
    32    53    54   ar
    33    54    55    1
    34    38    40    1
    35    40    41   ar
    36    41    42   ar
    37    42    43   ar
    38    43    44    1
    39    43    45   ar
    40    45    46   ar
    41    46    47    1
    42    38    39    1
    43     4     5   ar
    44     5     6   ar
    45    10    11    1
    46    11    12    1
    47    12    29    1
    48    29    30    2
    49    29    31    1
    50    16    17   ar
    51    17    18   ar
    52    22    23   ar
    53    23    24    2
    54    23    19   ar
    55    18    13   ar
    56    12     7    1
    57     6     1   ar
    58    39    35    1
    59    54    49   ar
    60    46    40   ar
    61    31    32    1
