@<TRIPOS>MOLECULE
*****
 47 52 0 0 0
SMALL
GASTEIGER

@<TRIPOS>ATOM
      1 C          13.3427   82.5678   25.9446 C.ar    1  UNL1        0.0401
      2 C          12.5144   81.4724   26.2305 C.ar    1  UNL1        0.0172
      3 C          11.6408   80.9648   25.2567 C.ar    1  UNL1        0.0699
      4 C          11.5881   81.5979   24.0106 C.ar    1  UNL1        0.1149
      5 N          12.3851   82.6655   23.7497 N.ar    1  UNL1       -0.2281
      6 C          13.2515   83.1673   24.6701 C.ar    1  UNL1        0.1300
      7 N          14.0409   84.3115   24.3228 N.pl3   1  UNL1       -0.2934
      8 C          13.7917   85.6008   24.9761 C.3     1  UNL1        0.0923
      9 C          13.5220   86.6995   23.9344 C.3     1  UNL1        0.0252
     10 C          14.3492   86.5419   22.6271 C.3     1  UNL1        0.0472
     11 C          15.5375   85.5758   22.8065 C.3     1  UNL1        0.0252
     12 C          15.0291   84.1970   23.2446 C.3     1  UNL1        0.0923
     13 C          14.8256   87.9143   22.1111 C.3     1  UNL1        0.2054
     14 O          14.8193   87.9630   20.6830 O.3     1  UNL1       -0.4755
     15 C          14.4513   86.9101   19.8291 C.ar    1  UNL1        0.1388
     16 C          13.0902   86.7240   19.5656 C.ar    1  UNL1        0.0369
     17 C          12.6648   85.6965   18.7225 C.ar    1  UNL1        0.0033
     18 C          13.5971   84.8400   18.1340 C.ar    1  UNL1        0.0066
     19 C          14.9703   85.0027   18.3869 C.ar    1  UNL1        0.0785
     20 C          15.3909   86.0397   19.2398 C.ar    1  UNL1        0.0433
     21 C          15.9625   84.0966   17.7659 C.2     1  UNL1        0.3381
     22 O          16.4948   83.1738   18.4404 O.2     1  UNL1       -0.2451
     23 O          16.3175   84.2541   16.4284 O.3     1  UNL1       -0.4771
     24 H          16.9950   83.6390   15.9940 H       1  UNL1        0.2954
     25 N          10.7716   79.8518   25.5277 N.am    1  UNL1       -0.2767
     26 C          11.2390   78.5539   25.9241 C.2     1  UNL1        0.2839
     27 O          12.3975   78.1760   25.6015 O.2     1  UNL1       -0.2665
     28 H           9.7542   79.9597   25.3175 H       1  UNL1        0.1553
     29 C          10.3588   77.6112   26.6366 C.ar    1  UNL1        0.1946
     30 O          10.7858   76.8646   27.6399 O.2     1  UNL1       -0.4492
     31 C           9.7810   76.1316   28.0529 C.ar    1  UNL1        0.1452
     32 C           9.7832   75.1964   29.0820 C.ar    1  UNL1        0.0375
     33 C           8.5851   74.5139   29.3562 C.ar    1  UNL1        0.0031
     34 C           7.4088   74.7746   28.6020 C.ar    1  UNL1        0.0002
     35 C           7.4497   75.7362   27.5640 C.ar    1  UNL1        0.0028
     36 C           8.6555   76.3943   27.3204 C.ar    1  UNL1        0.0337
     37 C           9.0002   77.3654   26.4015 C.ar    1  UNL1        0.0202
     38 C           8.0973   78.0040   25.3896 C.3     1  UNL1        0.0345
     39 C           6.1491   74.0467   28.8995 C.ar    1  UNL1        0.0000
     40 C           5.3454   74.4241   29.9922 C.ar    1  UNL1        0.0000
     41 C           4.1597   73.7371   30.2700 C.ar    1  UNL1        0.0000
     42 C           3.7625   72.6693   29.4624 C.ar    1  UNL1        0.0000
     43 C           4.5506   72.2856   28.3752 C.ar    1  UNL1        0.0000
     44 C           5.7378   72.9683   28.0931 C.ar    1  UNL1        0.0000
     45 C          14.3104   83.0522   27.0008 C.3     1  UNL1        0.1715
     46 C          14.3332   84.4966   28.8130 C.3     1  UNL1        0.1746
     47 O          13.6209   83.4641   28.1658 O.3     1  UNL1       -0.3462
@<TRIPOS>BOND
     1    46    47    1
     2    47    45    1
     3    45     1    1
     4     1     2   ar
     5     2     3   ar
     6     3    25    1
     7    25    26   am
     8    26    27    2
     9    26    29    1
    10    29    30   ar
    11    30    31   ar
    12    31    32   ar
    13    32    33   ar
    14    33    34   ar
    15    34    39    1
    16    39    40   ar
    17    40    41   ar
    18    41    42   ar
    19    42    43   ar
    20    43    44   ar
    21    34    35   ar
    22    35    36   ar
    23    36    37   ar
    24    37    38    1
    25     3     4   ar
    26     4     5   ar
    27     5     6   ar
    28     6     7    1
    29     7     8    1
    30     8     9    1
    31     9    10    1
    32    10    13    1
    33    13    14    1
    34    14    15    1
    35    15    16   ar
    36    16    17   ar
    37    17    18   ar
    38    18    19   ar
    39    19    21    1
    40    21    22    2
    41    21    23    1
    42    19    20   ar
    43    10    11    1
    44    11    12    1
    45     6     1   ar
    46    12     7    1
    47    37    29   ar
    48    20    15   ar
    49    36    31   ar
    50    44    39   ar
    51    25    28    1
    52    23    24    1
@<TRIPOS>MOLECULE
*****
 47 52 0 0 0
SMALL
GASTEIGER

@<TRIPOS>ATOM
      1 C          13.4143   83.0204   25.7227 C.ar    1  UNL1        0.0401
      2 C          12.7372   81.8894   26.2021 C.ar    1  UNL1        0.0172
      3 C          11.8949   81.1503   25.3575 C.ar    1  UNL1        0.0699
      4 C          11.7172   81.5881   24.0410 C.ar    1  UNL1        0.1149
      5 N          12.3677   82.6919   23.5918 N.ar    1  UNL1       -0.2281
      6 C          13.2015   83.4166   24.3849 C.ar    1  UNL1        0.1300
      7 N          13.8318   84.5824   23.8401 N.pl3   1  UNL1       -0.2934
      8 C          13.3674   85.9178   24.2303 C.3     1  UNL1        0.0923
      9 C          12.9901   86.7496   22.9930 C.3     1  UNL1        0.0252
     10 C          13.8920   86.4788   21.7555 C.3     1  UNL1        0.0472
     11 C          15.1983   85.7545   22.1382 C.3     1  UNL1        0.0252
     12 C          14.8756   84.4204   22.8222 C.3     1  UNL1        0.0923
     13 C          14.1876   87.7872   20.9959 C.3     1  UNL1        0.2054
     14 O          13.4073   87.8828   19.8026 O.3     1  UNL1       -0.4755
     15 C          13.8307   87.5130   18.5152 C.ar    1  UNL1        0.1388
     16 C          13.8230   88.4914   17.5156 C.ar    1  UNL1        0.0369
     17 C          14.2357   88.1837   16.2185 C.ar    1  UNL1        0.0033
     18 C          14.6595   86.8910   15.9048 C.ar    1  UNL1        0.0066
     19 C          14.6717   85.8884   16.8901 C.ar    1  UNL1        0.0785
     20 C          14.2520   86.2062   18.1949 C.ar    1  UNL1        0.0433
     21 C          15.1194   84.5162   16.5621 C.2     1  UNL1        0.3381
     22 O          14.2813   83.5811   16.4480 O.2     1  UNL1       -0.2451
     23 O          16.4724   84.2443   16.3751 O.3     1  UNL1       -0.4771
     24 H          16.7889   83.3088   16.1497 H       1  UNL1        0.2954
     25 N          11.1788   79.9951   25.8270 N.am    1  UNL1       -0.2767
     26 C          10.1820   80.0406   26.8587 C.2     1  UNL1        0.2839
     27 O          10.2126   80.9566   27.7241 O.2     1  UNL1       -0.2665
     28 H          11.4772   79.0566   25.4792 H       1  UNL1        0.1553
     29 C           9.1613   78.9849   26.9800 C.ar    1  UNL1        0.1946
     30 O           8.3508   78.6667   25.9860 O.2     1  UNL1       -0.4492
     31 C           7.5589   77.7089   26.4025 C.ar    1  UNL1        0.1452
     32 C           6.5462   77.0784   25.6881 C.ar    1  UNL1        0.0375
     33 C           5.8101   76.0710   26.3361 C.ar    1  UNL1        0.0031
     34 C           6.0954   75.7107   27.6812 C.ar    1  UNL1        0.0002
     35 C           7.1365   76.3767   28.3714 C.ar    1  UNL1        0.0028
     36 C           7.8460   77.3706   27.6968 C.ar    1  UNL1        0.0337
     37 C           8.8958   78.1756   28.0918 C.ar    1  UNL1        0.0202
     38 C           9.5858   78.1617   29.4225 C.3     1  UNL1        0.0345
     39 C           5.3105   74.6460   28.3561 C.ar    1  UNL1        0.0000
     40 C           4.5606   74.9337   29.5125 C.ar    1  UNL1        0.0000
     41 C           3.8223   73.9292   30.1460 C.ar    1  UNL1        0.0000
     42 C           3.8228   72.6300   29.6338 C.ar    1  UNL1        0.0000
     43 C           4.5620   72.3321   28.4871 C.ar    1  UNL1        0.0000
     44 C           5.3029   73.3322   27.8499 C.ar    1  UNL1        0.0000
     45 C          14.3560   83.7592   26.6468 C.3     1  UNL1        0.1715
     46 C          14.4355   84.5502   28.8237 C.3     1  UNL1        0.1746
     47 O          14.0694   83.4635   28.0005 O.3     1  UNL1       -0.3462
@<TRIPOS>BOND
     1    46    47    1
     2    47    45    1
     3    45     1    1
     4     1     2   ar
     5     2     3   ar
     6     3    25    1
     7    25    26   am
     8    26    27    2
     9    26    29    1
    10    29    30   ar
    11    30    31   ar
    12    31    32   ar
    13    32    33   ar
    14    33    34   ar
    15    34    39    1
    16    39    40   ar
    17    40    41   ar
    18    41    42   ar
    19    42    43   ar
    20    43    44   ar
    21    34    35   ar
    22    35    36   ar
    23    36    37   ar
    24    37    38    1
    25     3     4   ar
    26     4     5   ar
    27     5     6   ar
    28     6     7    1
    29     7     8    1
    30     8     9    1
    31     9    10    1
    32    10    13    1
    33    13    14    1
    34    14    15    1
    35    15    16   ar
    36    16    17   ar
    37    17    18   ar
    38    18    19   ar
    39    19    21    1
    40    21    22    2
    41    21    23    1
    42    19    20   ar
    43    10    11    1
    44    11    12    1
    45     6     1   ar
    46    12     7    1
    47    37    29   ar
    48    20    15   ar
    49    36    31   ar
    50    44    39   ar
    51    25    28    1
    52    23    24    1
@<TRIPOS>MOLECULE
*****
 47 52 0 0 0
SMALL
GASTEIGER

@<TRIPOS>ATOM
      1 C           9.2475   79.1310   25.8789 C.ar    1  UNL1        0.0401
      2 C           9.9348   80.3527   25.9325 C.ar    1  UNL1        0.0172
      3 C          10.4233   80.9488   24.7598 C.ar    1  UNL1        0.0699
      4 C          10.2427   80.2801   23.5446 C.ar    1  UNL1        0.1149
      5 N           9.5873   79.0918   23.5068 N.ar    1  UNL1       -0.2281
      6 C           9.0904   78.5004   24.6261 C.ar    1  UNL1        0.1300
      7 N           8.4315   77.2340   24.5028 N.pl3   1  UNL1       -0.2934
      8 C           7.0123   77.1777   24.1368 C.3     1  UNL1        0.0923
      9 C           6.2087   76.3840   25.1804 C.3     1  UNL1        0.0252
     10 C           6.9878   75.1868   25.7951 C.3     1  UNL1        0.0472
     11 C           8.2234   74.8071   24.9545 C.3     1  UNL1        0.0252
     12 C           9.1672   76.0102   24.8388 C.3     1  UNL1        0.0923
     13 C           6.0594   73.9722   25.9930 C.3     1  UNL1        0.2054
     14 O           6.0903   73.5095   27.3446 O.3     1  UNL1       -0.4755
     15 C           6.1320   74.3239   28.4884 C.ar    1  UNL1        0.1388
     16 C           7.3022   74.3194   29.2548 C.ar    1  UNL1        0.0369
     17 C           7.4032   75.1105   30.4001 C.ar    1  UNL1        0.0033
     18 C           6.3324   75.9149   30.7942 C.ar    1  UNL1        0.0066
     19 C           5.1436   75.9333   30.0441 C.ar    1  UNL1        0.0785
     20 C           5.0489   75.1313   28.8920 C.ar    1  UNL1        0.0433
     21 C           4.0053   76.7840   30.4585 C.2     1  UNL1        0.3381
     22 O           4.2089   77.9136   30.9803 O.2     1  UNL1       -0.2451
     23 O           2.6965   76.3446   30.2750 O.3     1  UNL1       -0.4771
     24 H           1.9106   76.9194   30.5546 H       1  UNL1        0.2954
     25 N          11.1427   82.1936   24.7880 N.am    1  UNL1       -0.2767
     26 C          12.5745   82.2873   24.7517 C.2     1  UNL1        0.2839
     27 O          13.2792   81.3293   25.1694 O.2     1  UNL1       -0.2665
     28 H          10.6013   83.0708   24.9565 H       1  UNL1        0.1553
     29 C          13.2469   83.5215   24.3092 C.ar    1  UNL1        0.1946
     30 O          12.6972   84.7153   24.4471 O.2     1  UNL1       -0.4492
     31 C          13.5280   85.6009   23.9540 C.ar    1  UNL1        0.1452
     32 C          13.3516   86.9783   23.8831 C.ar    1  UNL1        0.0375
     33 C          14.3777   87.7462   23.3051 C.ar    1  UNL1        0.0031
     34 C          15.5585   87.1295   22.8092 C.ar    1  UNL1        0.0002
     35 C          15.6984   85.7240   22.9030 C.ar    1  UNL1        0.0028
     36 C          14.6604   84.9942   23.4829 C.ar    1  UNL1        0.0337
     37 C          14.5099   83.6417   23.7160 C.ar    1  UNL1        0.0202
     38 C          15.4994   82.5611   23.3996 C.3     1  UNL1        0.0345
     39 C          16.6353   87.9504   22.1995 C.ar    1  UNL1        0.0000
     40 C          16.4690   88.5127   20.9195 C.ar    1  UNL1        0.0000
     41 C          17.4846   89.2854   20.3478 C.ar    1  UNL1        0.0000
     42 C          18.6741   89.5064   21.0453 C.ar    1  UNL1        0.0000
     43 C          18.8511   88.9548   22.3159 C.ar    1  UNL1        0.0000
     44 C          17.8394   88.1805   22.8922 C.ar    1  UNL1        0.0000
     45 C           8.6878   78.5467   27.1564 C.3     1  UNL1        0.1715
     46 C           7.3542   78.9596   29.0062 C.3     1  UNL1        0.1746
     47 O           7.7000   79.3958   27.7091 O.3     1  UNL1       -0.3462
@<TRIPOS>BOND
     1    46    47    1
     2    47    45    1
     3    45     1    1
     4     1     2   ar
     5     2     3   ar
     6     3    25    1
     7    25    26   am
     8    26    27    2
     9    26    29    1
    10    29    30   ar
    11    30    31   ar
    12    31    32   ar
    13    32    33   ar
    14    33    34   ar
    15    34    39    1
    16    39    40   ar
    17    40    41   ar
    18    41    42   ar
    19    42    43   ar
    20    43    44   ar
    21    34    35   ar
    22    35    36   ar
    23    36    37   ar
    24    37    38    1
    25     3     4   ar
    26     4     5   ar
    27     5     6   ar
    28     6     7    1
    29     7     8    1
    30     8     9    1
    31     9    10    1
    32    10    13    1
    33    13    14    1
    34    14    15    1
    35    15    16   ar
    36    16    17   ar
    37    17    18   ar
    38    18    19   ar
    39    19    21    1
    40    21    22    2
    41    21    23    1
    42    19    20   ar
    43    10    11    1
    44    11    12    1
    45     6     1   ar
    46    12     7    1
    47    37    29   ar
    48    20    15   ar
    49    36    31   ar
    50    44    39   ar
    51    25    28    1
    52    23    24    1
@<TRIPOS>MOLECULE
*****
 47 52 0 0 0
SMALL
GASTEIGER

@<TRIPOS>ATOM
      1 C           9.4332   79.0353   23.0366 C.ar    1  UNL1        0.0401
      2 C          10.0899   80.2717   23.1239 C.ar    1  UNL1        0.0172
      3 C          10.4521   80.8010   24.3720 C.ar    1  UNL1        0.0699
      4 C          10.1106   80.0872   25.5254 C.ar    1  UNL1        0.1149
      5 N           9.4634   78.8977   25.4291 N.ar    1  UNL1       -0.2281
      6 C           9.1151   78.3552   24.2316 C.ar    1  UNL1        0.1300
      7 N           8.4130   77.1062   24.2181 N.pl3   1  UNL1       -0.2934
      8 C           6.9471   77.0879   24.2640 C.3     1  UNL1        0.0923
      9 C           6.4467   76.2307   25.4387 C.3     1  UNL1        0.0252
     10 C           7.3332   74.9870   25.7308 C.3     1  UNL1        0.0472
     11 C           8.2722   74.6557   24.5535 C.3     1  UNL1        0.0252
     12 C           9.1789   75.8556   24.2539 C.3     1  UNL1        0.0923
     13 C           6.4641   73.7697   26.1040 C.3     1  UNL1        0.2054
     14 O           5.3992   74.1412   26.9815 O.3     1  UNL1       -0.4755
     15 C           5.5497   74.6579   28.2791 C.ar    1  UNL1        0.1388
     16 C           6.6245   74.1989   29.0477 C.ar    1  UNL1        0.0369
     17 C           6.8266   74.6785   30.3426 C.ar    1  UNL1        0.0033
     18 C           5.9533   75.6226   30.8858 C.ar    1  UNL1        0.0066
     19 C           4.8625   76.0959   30.1358 C.ar    1  UNL1        0.0785
     20 C           4.6644   75.6059   28.8319 C.ar    1  UNL1        0.0433
     21 C           3.9334   77.0962   30.7077 C.2     1  UNL1        0.3381
     22 O           4.3774   78.1494   31.2400 O.2     1  UNL1       -0.2451
     23 O           2.5576   76.8840   30.6625 O.3     1  UNL1       -0.4771
     24 H           1.9134   77.5627   31.0505 H       1  UNL1        0.2954
     25 N          11.1137   82.0722   24.4906 N.am    1  UNL1       -0.2767
     26 C          12.5207   82.2185   24.7336 C.2     1  UNL1        0.2839
     27 O          13.1570   81.3025   25.3208 O.2     1  UNL1       -0.2665
     28 H          10.5235   82.9337   24.5129 H       1  UNL1        0.1553
     29 C          13.2301   83.4612   24.3822 C.ar    1  UNL1        0.1946
     30 O          12.7137   84.6575   24.6030 O.2     1  UNL1       -0.4492
     31 C          13.5718   85.5517   24.1769 C.ar    1  UNL1        0.1452
     32 C          13.4349   86.9352   24.2037 C.ar    1  UNL1        0.0375
     33 C          14.4853   87.7126   23.6852 C.ar    1  UNL1        0.0031
     34 C          15.6508   87.0992   23.1505 C.ar    1  UNL1        0.0002
     35 C          15.7503   85.6871   23.1443 C.ar    1  UNL1        0.0028
     36 C          14.6891   84.9479   23.6674 C.ar    1  UNL1        0.0337
     37 C          14.4991   83.5871   23.8031 C.ar    1  UNL1        0.0202
     38 C          15.4593   82.5039   23.4138 C.3     1  UNL1        0.0345
     39 C          16.7536   87.9302   22.6043 C.ar    1  UNL1        0.0000
     40 C          17.8788   88.2349   23.3939 C.ar    1  UNL1        0.0000
     41 C          18.9159   89.0176   22.8770 C.ar    1  UNL1        0.0000
     42 C          18.8431   89.5028   21.5695 C.ar    1  UNL1        0.0000
     43 C          17.7326   89.2070   20.7760 C.ar    1  UNL1        0.0000
     44 C          16.6921   88.4257   21.2878 C.ar    1  UNL1        0.0000
     45 C           9.1080   78.4712   21.6717 C.3     1  UNL1        0.1715
     46 C           7.5644   78.5224   19.9439 C.3     1  UNL1        0.1746
     47 O           7.7611   78.7326   21.3258 O.3     1  UNL1       -0.3462
@<TRIPOS>BOND
     1    46    47    1
     2    47    45    1
     3    45     1    1
     4     1     2   ar
     5     2     3   ar
     6     3    25    1
     7    25    26   am
     8    26    27    2
     9    26    29    1
    10    29    30   ar
    11    30    31   ar
    12    31    32   ar
    13    32    33   ar
    14    33    34   ar
    15    34    39    1
    16    39    40   ar
    17    40    41   ar
    18    41    42   ar
    19    42    43   ar
    20    43    44   ar
    21    34    35   ar
    22    35    36   ar
    23    36    37   ar
    24    37    38    1
    25     3     4   ar
    26     4     5   ar
    27     5     6   ar
    28     6     7    1
    29     7     8    1
    30     8     9    1
    31     9    10    1
    32    10    13    1
    33    13    14    1
    34    14    15    1
    35    15    16   ar
    36    16    17   ar
    37    17    18   ar
    38    18    19   ar
    39    19    21    1
    40    21    22    2
    41    21    23    1
    42    19    20   ar
    43    10    11    1
    44    11    12    1
    45     6     1   ar
    46    12     7    1
    47    37    29   ar
    48    20    15   ar
    49    36    31   ar
    50    44    39   ar
    51    25    28    1
    52    23    24    1
@<TRIPOS>MOLECULE
*****
 47 52 0 0 0
SMALL
GASTEIGER

@<TRIPOS>ATOM
      1 C          10.0582   78.0002   24.7600 C.ar    1  UNL1        0.0401
      2 C           9.0422   77.3225   24.0701 C.ar    1  UNL1        0.0172
      3 C           8.5021   77.8562   22.8900 C.ar    1  UNL1        0.0699
      4 C           8.9725   79.0941   22.4396 C.ar    1  UNL1        0.1149
      5 N           9.9471   79.7471   23.1229 N.ar    1  UNL1       -0.2281
      6 C          10.4983   79.2445   24.2601 C.ar    1  UNL1        0.1300
      7 N          11.5063   80.0079   24.9340 N.pl3   1  UNL1       -0.2934
      8 C          11.1214   81.1140   25.8171 C.3     1  UNL1        0.0923
      9 C          11.8116   82.4206   25.3910 C.3     1  UNL1        0.0252
     10 C          13.2519   82.2192   24.8403 C.3     1  UNL1        0.0472
     11 C          13.8249   80.8361   25.2093 C.3     1  UNL1        0.0252
     12 C          12.9193   79.7298   24.6547 C.3     1  UNL1        0.0923
     13 C          14.1846   83.3494   25.3187 C.3     1  UNL1        0.2054
     14 O          13.6959   84.6310   24.9179 O.3     1  UNL1       -0.4755
     15 C          13.8237   85.1922   23.6364 C.ar    1  UNL1        0.1388
     16 C          14.9192   84.8059   22.8571 C.ar    1  UNL1        0.0369
     17 C          15.0970   85.3275   21.5750 C.ar    1  UNL1        0.0033
     18 C          14.1809   86.2450   21.0572 C.ar    1  UNL1        0.0066
     19 C          13.0745   86.6534   21.8223 C.ar    1  UNL1        0.0785
     20 C          12.9036   86.1245   23.1148 C.ar    1  UNL1        0.0433
     21 C          12.1010   87.6266   21.2780 C.2     1  UNL1        0.3381
     22 O          12.2554   88.8624   21.4747 O.2     1  UNL1       -0.2451
     23 O          11.0041   87.1862   20.5415 O.3     1  UNL1       -0.4771
     24 H          10.3326   87.8441   20.1642 H       1  UNL1        0.2954
     25 N           7.4509   77.1890   22.1707 N.am    1  UNL1       -0.2767
     26 C           6.4001   76.4445   22.8044 C.2     1  UNL1        0.2839
     27 O           6.5874   75.9335   23.9413 O.2     1  UNL1       -0.2665
     28 H           7.5164   77.1488   21.1290 H       1  UNL1        0.1553
     29 C           5.1223   76.1915   22.1155 C.ar    1  UNL1        0.1946
     30 O           4.2243   77.1409   21.9188 O.2     1  UNL1       -0.4492
     31 C           3.2030   76.6065   21.2951 C.ar    1  UNL1        0.1452
     32 C           2.0300   77.2386   20.8976 C.ar    1  UNL1        0.0375
     33 C           1.0547   76.4677   20.2410 C.ar    1  UNL1        0.0031
     34 C           1.2650   75.0840   19.9927 C.ar    1  UNL1        0.0002
     35 C           2.4746   74.4804   20.4126 C.ar    1  UNL1        0.0028
     36 C           3.4197   75.2760   21.0605 C.ar    1  UNL1        0.0337
     37 C           4.6688   74.9835   21.5709 C.ar    1  UNL1        0.0202
     38 C           5.3659   73.6571   21.5318 C.3     1  UNL1        0.0345
     39 C           0.2273   74.2792   19.2995 C.ar    1  UNL1        0.0000
     40 C           0.3438   72.8784   19.2184 C.ar    1  UNL1        0.0000
     41 C          -0.6349   72.1229   18.5651 C.ar    1  UNL1        0.0000
     42 C          -1.7386   72.7545   17.9878 C.ar    1  UNL1        0.0000
     43 C          -1.8660   74.1432   18.0620 C.ar    1  UNL1        0.0000
     44 C          -0.8900   74.9039   18.7132 C.ar    1  UNL1        0.0000
     45 C          10.6538   77.3674   25.9976 C.3     1  UNL1        0.1715
     46 C          10.2313   77.8432   28.2260 C.3     1  UNL1        0.1746
     47 O           9.6977   77.2979   27.0384 O.3     1  UNL1       -0.3462
@<TRIPOS>BOND
     1    46    47    1
     2    47    45    1
     3    45     1    1
     4     1     2   ar
     5     2     3   ar
     6     3    25    1
     7    25    26   am
     8    26    27    2
     9    26    29    1
    10    29    30   ar
    11    30    31   ar
    12    31    32   ar
    13    32    33   ar
    14    33    34   ar
    15    34    39    1
    16    39    40   ar
    17    40    41   ar
    18    41    42   ar
    19    42    43   ar
    20    43    44   ar
    21    34    35   ar
    22    35    36   ar
    23    36    37   ar
    24    37    38    1
    25     3     4   ar
    26     4     5   ar
    27     5     6   ar
    28     6     7    1
    29     7     8    1
    30     8     9    1
    31     9    10    1
    32    10    13    1
    33    13    14    1
    34    14    15    1
    35    15    16   ar
    36    16    17   ar
    37    17    18   ar
    38    18    19   ar
    39    19    21    1
    40    21    22    2
    41    21    23    1
    42    19    20   ar
    43    10    11    1
    44    11    12    1
    45     6     1   ar
    46    12     7    1
    47    37    29   ar
    48    20    15   ar
    49    36    31   ar
    50    44    39   ar
    51    25    28    1
    52    23    24    1
@<TRIPOS>MOLECULE
*****
 47 52 0 0 0
SMALL
GASTEIGER

@<TRIPOS>ATOM
      1 C           9.4435   78.8499   25.4367 C.ar    1  UNL1        0.0401
      2 C          10.0415   80.1149   25.5361 C.ar    1  UNL1        0.0172
      3 C          10.4790   80.7899   24.3863 C.ar    1  UNL1        0.0699
      4 C          10.3397   80.1579   23.1463 C.ar    1  UNL1        0.1149
      5 N           9.7712   78.9278   23.0638 N.ar    1  UNL1       -0.2281
      6 C           9.3247   78.2589   24.1605 C.ar    1  UNL1        0.1300
      7 N           8.7578   76.9542   23.9896 N.pl3   1  UNL1       -0.2934
      8 C           9.6214   75.7690   24.0201 C.3     1  UNL1        0.0923
      9 C           9.4501   74.9336   22.7403 C.3     1  UNL1        0.0252
     10 C           7.9978   74.9270   22.1845 C.3     1  UNL1        0.0472
     11 C           6.9747   75.4103   23.2319 C.3     1  UNL1        0.0252
     12 C           7.3270   76.8305   23.6908 C.3     1  UNL1        0.0923
     13 C           7.6225   73.5313   21.6481 C.3     1  UNL1        0.2054
     14 O           6.9752   73.6200   20.3773 O.3     1  UNL1       -0.4755
     15 C           5.6758   74.1038   20.1519 C.ar    1  UNL1        0.1388
     16 C           4.6246   73.5182   20.8651 C.ar    1  UNL1        0.0369
     17 C           3.3129   73.9593   20.6853 C.ar    1  UNL1        0.0033
     18 C           3.0363   74.9913   19.7868 C.ar    1  UNL1        0.0066
     19 C           4.0743   75.5928   19.0540 C.ar    1  UNL1        0.0785
     20 C           5.3938   75.1410   19.2394 C.ar    1  UNL1        0.0433
     21 C           3.7858   76.6868   18.0995 C.2     1  UNL1        0.3381
     22 O           2.6753   76.7393   17.5048 O.2     1  UNL1       -0.2451
     23 O           4.7393   77.6707   17.8493 O.3     1  UNL1       -0.4771
     24 H           4.5514   78.4238   17.1985 H       1  UNL1        0.2954
     25 N          11.1072   82.0812   24.4612 N.am    1  UNL1       -0.2767
     26 C          12.4972   82.2748   24.7622 C.2     1  UNL1        0.2839
     27 O          13.1230   81.4097   25.4322 O.2     1  UNL1       -0.2665
     28 H          10.4987   82.9282   24.4045 H       1  UNL1        0.1553
     29 C          13.1968   83.5117   24.3725 C.ar    1  UNL1        0.1946
     30 O          12.6730   84.7103   24.5608 O.2     1  UNL1       -0.4492
     31 C          13.5235   85.5976   24.1059 C.ar    1  UNL1        0.1452
     32 C          13.3772   86.9804   24.0935 C.ar    1  UNL1        0.0375
     33 C          14.4203   87.7496   23.5487 C.ar    1  UNL1        0.0031
     34 C          15.5879   87.1289   23.0273 C.ar    1  UNL1        0.0002
     35 C          15.6971   85.7179   23.0613 C.ar    1  UNL1        0.0028
     36 C          14.6429   84.9870   23.6096 C.ar    1  UNL1        0.0337
     37 C          14.4627   83.6294   23.7851 C.ar    1  UNL1        0.0202
     38 C          15.4288   82.5419   23.4233 C.3     1  UNL1        0.0345
     39 C          16.6830   87.9512   22.4531 C.ar    1  UNL1        0.0000
     40 C          17.8122   88.2803   23.2270 C.ar    1  UNL1        0.0000
     41 C          18.8420   89.0547   22.6837 C.ar    1  UNL1        0.0000
     42 C          18.7578   89.5075   21.3653 C.ar    1  UNL1        0.0000
     43 C          17.6433   89.1873   20.5872 C.ar    1  UNL1        0.0000
     44 C          16.6100   88.4141   21.1254 C.ar    1  UNL1        0.0000
     45 C           8.9348   78.1773   26.6919 C.3     1  UNL1        0.1715
     46 C          10.0368   78.1426   28.7303 C.3     1  UNL1        0.1746
     47 O           9.2748   78.9303   27.8407 O.3     1  UNL1       -0.3462
@<TRIPOS>BOND
     1    46    47    1
     2    47    45    1
     3    45     1    1
     4     1     2   ar
     5     2     3   ar
     6     3    25    1
     7    25    26   am
     8    26    27    2
     9    26    29    1
    10    29    30   ar
    11    30    31   ar
    12    31    32   ar
    13    32    33   ar
    14    33    34   ar
    15    34    39    1
    16    39    40   ar
    17    40    41   ar
    18    41    42   ar
    19    42    43   ar
    20    43    44   ar
    21    34    35   ar
    22    35    36   ar
    23    36    37   ar
    24    37    38    1
    25     3     4   ar
    26     4     5   ar
    27     5     6   ar
    28     6     7    1
    29     7     8    1
    30     8     9    1
    31     9    10    1
    32    10    13    1
    33    13    14    1
    34    14    15    1
    35    15    16   ar
    36    16    17   ar
    37    17    18   ar
    38    18    19   ar
    39    19    21    1
    40    21    22    2
    41    21    23    1
    42    19    20   ar
    43    10    11    1
    44    11    12    1
    45     6     1   ar
    46    12     7    1
    47    37    29   ar
    48    20    15   ar
    49    36    31   ar
    50    44    39   ar
    51    25    28    1
    52    23    24    1
@<TRIPOS>MOLECULE
*****
 47 52 0 0 0
SMALL
GASTEIGER

@<TRIPOS>ATOM
      1 C          13.4123   82.7558   25.9058 C.ar    1  UNL1        0.0401
      2 C          12.5354   81.7029   26.2063 C.ar    1  UNL1        0.0172
      3 C          11.6496   81.2124   25.2348 C.ar    1  UNL1        0.0699
      4 C          11.6349   81.8208   23.9754 C.ar    1  UNL1        0.1149
      5 N          12.4791   82.8478   23.7002 N.ar    1  UNL1       -0.2281
      6 C          13.3580   83.3315   24.6184 C.ar    1  UNL1        0.1300
      7 N          14.1986   84.4335   24.2550 N.pl3   1  UNL1       -0.2934
      8 C          14.1529   85.6781   25.0297 C.3     1  UNL1        0.0923
      9 C          13.8555   86.8801   24.1177 C.3     1  UNL1        0.0252
     10 C          14.4933   86.7685   22.7039 C.3     1  UNL1        0.0472
     11 C          15.6013   85.6975   22.6513 C.3     1  UNL1        0.0252
     12 C          15.0283   84.3320   23.0495 C.3     1  UNL1        0.0923
     13 C          15.0244   88.1368   22.2325 C.3     1  UNL1        0.2054
     14 O          13.9620   88.9784   21.7798 O.3     1  UNL1       -0.4755
     15 C          13.2191   88.7975   20.6013 C.ar    1  UNL1        0.1388
     16 C          11.8605   88.4878   20.7231 C.ar    1  UNL1        0.0369
     17 C          11.0711   88.2998   19.5877 C.ar    1  UNL1        0.0033
     18 C          11.6328   88.4173   18.3150 C.ar    1  UNL1        0.0066
     19 C          12.9969   88.7226   18.1657 C.ar    1  UNL1        0.0785
     20 C          13.7864   88.9084   19.3154 C.ar    1  UNL1        0.0433
     21 C          13.5972   88.8472   16.8184 C.2     1  UNL1        0.3381
     22 O          12.8802   88.7370   15.7871 O.2     1  UNL1       -0.2451
     23 O          14.9614   89.0889   16.6766 O.3     1  UNL1       -0.4771
     24 H          15.3818   89.1765   15.7591 H       1  UNL1        0.2954
     25 N          10.7312   80.1434   25.5204 N.am    1  UNL1       -0.2767
     26 C          11.1339   78.7818   25.7298 C.2     1  UNL1        0.2839
     27 O          12.2044   78.3558   25.2186 O.2     1  UNL1       -0.2665
     28 H           9.7081   80.3453   25.4622 H       1  UNL1        0.1553
     29 C          10.2762   77.8378   26.4678 C.ar    1  UNL1        0.1946
     30 O          10.7002   77.1807   27.5330 O.2     1  UNL1       -0.4492
     31 C           9.7196   76.4199   27.9540 C.ar    1  UNL1        0.1452
     32 C           9.7288   75.5528   29.0410 C.ar    1  UNL1        0.0375
     33 C           8.5584   74.8229   29.3129 C.ar    1  UNL1        0.0031
     34 C           7.4024   74.9696   28.4989 C.ar    1  UNL1        0.0002
     35 C           7.4352   75.8650   27.4030 C.ar    1  UNL1        0.0028
     36 C           8.6132   76.5729   27.1635 C.ar    1  UNL1        0.0337
     37 C           8.9437   77.5022   26.1974 C.ar    1  UNL1        0.0202
     38 C           8.0510   78.0246   25.1124 C.3     1  UNL1        0.0345
     39 C           6.1720   74.1925   28.7947 C.ar    1  UNL1        0.0000
     40 C           5.8420   73.0566   28.0311 C.ar    1  UNL1        0.0000
     41 C           4.6828   72.3266   28.3119 C.ar    1  UNL1        0.0000
     42 C           3.8425   72.7198   29.3558 C.ar    1  UNL1        0.0000
     43 C           4.1592   73.8443   30.1210 C.ar    1  UNL1        0.0000
     44 C           5.3164   74.5786   29.8442 C.ar    1  UNL1        0.0000
     45 C          14.3905   83.2208   26.9611 C.3     1  UNL1        0.1715
     46 C          14.3522   84.5409   28.8655 C.3     1  UNL1        0.1746
     47 O          13.7289   83.4718   28.1865 O.3     1  UNL1       -0.3462
@<TRIPOS>BOND
     1    46    47    1
     2    47    45    1
     3    45     1    1
     4     1     2   ar
     5     2     3   ar
     6     3    25    1
     7    25    26   am
     8    26    27    2
     9    26    29    1
    10    29    30   ar
    11    30    31   ar
    12    31    32   ar
    13    32    33   ar
    14    33    34   ar
    15    34    39    1
    16    39    40   ar
    17    40    41   ar
    18    41    42   ar
    19    42    43   ar
    20    43    44   ar
    21    34    35   ar
    22    35    36   ar
    23    36    37   ar
    24    37    38    1
    25     3     4   ar
    26     4     5   ar
    27     5     6   ar
    28     6     7    1
    29     7     8    1
    30     8     9    1
    31     9    10    1
    32    10    13    1
    33    13    14    1
    34    14    15    1
    35    15    16   ar
    36    16    17   ar
    37    17    18   ar
    38    18    19   ar
    39    19    21    1
    40    21    22    2
    41    21    23    1
    42    19    20   ar
    43    10    11    1
    44    11    12    1
    45     6     1   ar
    46    12     7    1
    47    37    29   ar
    48    20    15   ar
    49    36    31   ar
    50    44    39   ar
    51    25    28    1
    52    23    24    1
@<TRIPOS>MOLECULE
*****
 47 52 0 0 0
SMALL
GASTEIGER

@<TRIPOS>ATOM
      1 C           9.6621   78.9309   25.6683 C.ar    1  UNL1        0.0401
      2 C          10.3079   80.1740   25.7413 C.ar    1  UNL1        0.0172
      3 C          10.4962   80.9493   24.5870 C.ar    1  UNL1        0.0699
      4 C          10.0602   80.4385   23.3600 C.ar    1  UNL1        0.1149
      5 N           9.4481   79.2282   23.2998 N.ar    1  UNL1       -0.2281
      6 C           9.2392   78.4641   24.4053 C.ar    1  UNL1        0.1300
      7 N           8.6063   77.1878   24.2524 N.pl3   1  UNL1       -0.2934
      8 C           7.2191   77.1080   23.7826 C.3     1  UNL1        0.0923
      9 C           6.3493   76.3188   24.7754 C.3     1  UNL1        0.0252
     10 C           7.0945   75.1405   25.4642 C.3     1  UNL1        0.0472
     11 C           8.3938   74.7650   24.7236 C.3     1  UNL1        0.0252
     12 C           9.3293   75.9783   24.6604 C.3     1  UNL1        0.0923
     13 C           6.1683   73.9169   25.6107 C.3     1  UNL1        0.2054
     14 O           5.4420   73.9595   26.8405 O.3     1  UNL1       -0.4755
     15 C           5.9990   74.1621   28.1142 C.ar    1  UNL1        0.1388
     16 C           5.1720   74.6780   29.1175 C.ar    1  UNL1        0.0369
     17 C           5.6687   74.8976   30.4030 C.ar    1  UNL1        0.0033
     18 C           7.0012   74.6056   30.7001 C.ar    1  UNL1        0.0066
     19 C           7.8542   74.0913   29.7080 C.ar    1  UNL1        0.0785
     20 C           7.3463   73.8748   28.4139 C.ar    1  UNL1        0.0433
     21 C           9.2680   73.7810   30.0180 C.2     1  UNL1        0.3381
     22 O          10.2000   74.3738   29.4101 O.2     1  UNL1       -0.2451
     23 O           9.5828   72.8306   30.9861 O.3     1  UNL1       -0.4771
     24 H          10.5471   72.6115   31.2060 H       1  UNL1        0.2954
     25 N          11.1667   82.2206   24.6316 N.am    1  UNL1       -0.2767
     26 C          12.5834   82.3684   24.8081 C.2     1  UNL1        0.2839
     27 O          13.2416   81.4706   25.3993 O.2     1  UNL1       -0.2665
     28 H          10.5809   83.0852   24.6490 H       1  UNL1        0.1553
     29 C          13.2811   83.5945   24.3825 C.ar    1  UNL1        0.1946
     30 O          12.7840   84.8008   24.5927 O.2     1  UNL1       -0.4492
     31 C          13.6243   85.6751   24.0956 C.ar    1  UNL1        0.1452
     32 C          13.4971   87.0598   24.0868 C.ar    1  UNL1        0.0375
     33 C          14.5239   87.8130   23.4911 C.ar    1  UNL1        0.0031
     34 C          15.6564   87.1749   22.9161 C.ar    1  UNL1        0.0002
     35 C          15.7471   85.7625   22.9483 C.ar    1  UNL1        0.0028
     36 C          14.7099   85.0477   23.5480 C.ar    1  UNL1        0.0337
     37 C          14.5191   83.6931   23.7351 C.ar    1  UNL1        0.0202
     38 C          15.4513   82.5913   23.3303 C.3     1  UNL1        0.0345
     39 C          16.7344   87.9805   22.2884 C.ar    1  UNL1        0.0000
     40 C          16.6033   88.4445   20.9656 C.ar    1  UNL1        0.0000
     41 C          17.6199   89.2031   20.3770 C.ar    1  UNL1        0.0000
     42 C          18.7754   89.5076   21.0999 C.ar    1  UNL1        0.0000
     43 C          18.9171   89.0538   22.4130 C.ar    1  UNL1        0.0000
     44 C          17.9043   88.2940   23.0064 C.ar    1  UNL1        0.0000
     45 C           9.4283   78.1489   26.9414 C.3     1  UNL1        0.1715
     46 C           7.8502   78.0328   28.6345 C.3     1  UNL1        0.1746
     47 O           8.0469   78.0683   27.2372 O.3     1  UNL1       -0.3462
@<TRIPOS>BOND
     1    46    47    1
     2    47    45    1
     3    45     1    1
     4     1     2   ar
     5     2     3   ar
     6     3    25    1
     7    25    26   am
     8    26    27    2
     9    26    29    1
    10    29    30   ar
    11    30    31   ar
    12    31    32   ar
    13    32    33   ar
    14    33    34   ar
    15    34    39    1
    16    39    40   ar
    17    40    41   ar
    18    41    42   ar
    19    42    43   ar
    20    43    44   ar
    21    34    35   ar
    22    35    36   ar
    23    36    37   ar
    24    37    38    1
    25     3     4   ar
    26     4     5   ar
    27     5     6   ar
    28     6     7    1
    29     7     8    1
    30     8     9    1
    31     9    10    1
    32    10    13    1
    33    13    14    1
    34    14    15    1
    35    15    16   ar
    36    16    17   ar
    37    17    18   ar
    38    18    19   ar
    39    19    21    1
    40    21    22    2
    41    21    23    1
    42    19    20   ar
    43    10    11    1
    44    11    12    1
    45     6     1   ar
    46    12     7    1
    47    37    29   ar
    48    20    15   ar
    49    36    31   ar
    50    44    39   ar
    51    25    28    1
    52    23    24    1
@<TRIPOS>MOLECULE
*****
 47 52 0 0 0
SMALL
GASTEIGER

@<TRIPOS>ATOM
      1 C           9.5549   79.1492   23.5903 C.ar    1  UNL1        0.0401
      2 C          10.1630   80.4117   23.5275 C.ar    1  UNL1        0.0172
      3 C          10.6420   81.0320   24.6915 C.ar    1  UNL1        0.0699
      4 C          10.4656   80.3810   25.9169 C.ar    1  UNL1        0.1149
      5 N           9.8639   79.1650   25.9669 N.ar    1  UNL1       -0.2281
      6 C           9.4051   78.5353   24.8522 C.ar    1  UNL1        0.1300
      7 N           8.7608   77.2634   24.9942 N.pl3   1  UNL1       -0.2934
      8 C           9.5647   76.0409   25.0977 C.3     1  UNL1        0.0923
      9 C           9.1545   75.0230   24.0203 C.3     1  UNL1        0.0252
     10 C           7.6333   75.0288   23.6977 C.3     1  UNL1        0.0472
     11 C           6.8128   75.7468   24.7880 C.3     1  UNL1        0.0252
     12 C           7.2965   77.1941   24.9388 C.3     1  UNL1        0.0923
     13 C           7.1157   73.5946   23.4708 C.3     1  UNL1        0.2054
     14 O           6.8637   73.3463   22.0863 O.3     1  UNL1       -0.4755
     15 C           5.8439   73.9356   21.3208 C.ar    1  UNL1        0.1388
     16 C           5.8827   73.7642   19.9331 C.ar    1  UNL1        0.0369
     17 C           4.8950   74.3238   19.1212 C.ar    1  UNL1        0.0033
     18 C           3.8566   75.0646   19.6886 C.ar    1  UNL1        0.0066
     19 C           3.7978   75.2559   21.0801 C.ar    1  UNL1        0.0785
     20 C           4.7986   74.6903   21.8914 C.ar    1  UNL1        0.0433
     21 C           2.6993   76.0413   21.6861 C.2     1  UNL1        0.3381
     22 O           1.9845   76.7960   20.9724 O.2     1  UNL1       -0.2451
     23 O           2.4434   75.9534   23.0523 O.3     1  UNL1       -0.4771
     24 H           1.6936   76.4863   23.4766 H       1  UNL1        0.2954
     25 N          11.2571   82.3313   24.6571 N.am    1  UNL1       -0.2767
     26 C          12.6411   82.5657   24.9562 C.2     1  UNL1        0.2839
     27 O          13.2662   81.7713   25.7092 O.2     1  UNL1       -0.2665
     28 H          10.6415   83.1633   24.5166 H       1  UNL1        0.1553
     29 C          13.3342   83.7697   24.4649 C.ar    1  UNL1        0.1946
     30 O          12.8830   84.9900   24.6963 O.2     1  UNL1       -0.4492
     31 C          13.7045   85.8380   24.1275 C.ar    1  UNL1        0.1452
     32 C          13.6101   87.2252   24.1110 C.ar    1  UNL1        0.0375
     33 C          14.6074   87.9466   23.4315 C.ar    1  UNL1        0.0031
     34 C          15.6784   87.2746   22.7821 C.ar    1  UNL1        0.0002
     35 C          15.7376   85.8609   22.8250 C.ar    1  UNL1        0.0028
     36 C          14.7312   85.1782   23.5087 C.ar    1  UNL1        0.0337
     37 C          14.5226   83.8308   23.7264 C.ar    1  UNL1        0.0202
     38 C          15.3957   82.7021   23.2673 C.3     1  UNL1        0.0345
     39 C          16.7256   88.0467   22.0662 C.ar    1  UNL1        0.0000
     40 C          17.9927   88.2438   22.6477 C.ar    1  UNL1        0.0000
     41 C          18.9770   88.9711   21.9713 C.ar    1  UNL1        0.0000
     42 C          18.7096   89.5076   20.7100 C.ar    1  UNL1        0.0000
     43 C          17.4569   89.3185   20.1222 C.ar    1  UNL1        0.0000
     44 C          16.4685   88.5929   20.7943 C.ar    1  UNL1        0.0000
     45 C           9.1009   78.4882   22.3083 C.3     1  UNL1        0.1715
     46 C           8.2473   78.8221   20.1797 C.3     1  UNL1        0.1746
     47 O           8.6203   79.4495   21.3879 O.3     1  UNL1       -0.3462
@<TRIPOS>BOND
     1    46    47    1
     2    47    45    1
     3    45     1    1
     4     1     2   ar
     5     2     3   ar
     6     3    25    1
     7    25    26   am
     8    26    27    2
     9    26    29    1
    10    29    30   ar
    11    30    31   ar
    12    31    32   ar
    13    32    33   ar
    14    33    34   ar
    15    34    39    1
    16    39    40   ar
    17    40    41   ar
    18    41    42   ar
    19    42    43   ar
    20    43    44   ar
    21    34    35   ar
    22    35    36   ar
    23    36    37   ar
    24    37    38    1
    25     3     4   ar
    26     4     5   ar
    27     5     6   ar
    28     6     7    1
    29     7     8    1
    30     8     9    1
    31     9    10    1
    32    10    13    1
    33    13    14    1
    34    14    15    1
    35    15    16   ar
    36    16    17   ar
    37    17    18   ar
    38    18    19   ar
    39    19    21    1
    40    21    22    2
    41    21    23    1
    42    19    20   ar
    43    10    11    1
    44    11    12    1
    45     6     1   ar
    46    12     7    1
    47    37    29   ar
    48    20    15   ar
    49    36    31   ar
    50    44    39   ar
    51    25    28    1
    52    23    24    1
