@<TRIPOS>MOLECULE
*****
 28 30 0 0 0
SMALL
GASTEIGER

@<TRIPOS>ATOM
      1 C          46.8917   15.0954  -26.4875 C.2     1  UNL1       -0.0222
      2 C          47.9473   15.5244  -25.7382 C.2     1  UNL1       -0.0040
      3 C          48.6368   16.8058  -26.0164 C.ar    1  UNL1       -0.0003
      4 C          47.9632   18.0219  -25.8172 C.ar    1  UNL1       -0.0000
      5 C          48.5949   19.2330  -26.1152 C.ar    1  UNL1       -0.0000
      6 C          49.8944   19.2371  -26.6298 C.ar    1  UNL1       -0.0000
      7 C          50.5615   18.0296  -26.8542 C.ar    1  UNL1       -0.0000
      8 C          49.9333   16.8165  -26.5571 C.ar    1  UNL1       -0.0000
      9 C          48.4890   14.7139  -24.6165 C.ar    1  UNL1       -0.0001
     10 C          49.3183   13.6080  -24.8657 C.ar    1  UNL1        0.0031
     11 C          49.8246   12.8526  -23.8053 C.ar    1  UNL1        0.0369
     12 C          49.5234   13.1929  -22.4821 C.ar    1  UNL1        0.1386
     13 C          48.7094   14.3131  -22.2290 C.ar    1  UNL1        0.0369
     14 C          48.2018   15.0692  -23.2895 C.ar    1  UNL1        0.0031
     15 O          50.0500   12.3972  -21.4549 O.3     1  UNL1       -0.4740
     16 C          49.2741   11.7864  -20.4270 C.3     1  UNL1        0.2226
     17 C          49.5772   10.2791  -20.3512 C.3     1  UNL1        0.1201
     18 N          48.8452    9.4435  -21.3316 N.3     1  UNL1       -0.2672
     19 C          49.6211    9.1506  -22.5460 C.3     1  UNL1        0.0898
     20 C          47.5129    9.9733  -21.6632 C.3     1  UNL1        0.0898
     21 C          46.0865   13.9156  -26.0690 C.ar    1  UNL1       -0.0040
     22 C          45.1575   14.0275  -25.0183 C.ar    1  UNL1       -0.0003
     23 C          44.4030   12.9199  -24.6214 C.ar    1  UNL1       -0.0000
     24 C          44.5599   11.6954  -25.2752 C.ar    1  UNL1       -0.0000
     25 C          45.4690   11.5777  -26.3295 C.ar    1  UNL1       -0.0000
     26 C          46.2269   12.6826  -26.7292 C.ar    1  UNL1       -0.0003
     27 C          45.0309   16.3000  -27.6980 C.3     1  UNL1        0.0050
     28 C          46.4732   15.7996  -27.7668 C.3     1  UNL1        0.0264
@<TRIPOS>BOND
     1    27    28    1
     2    28     1    1
     3     1     2    2
     4     2     3    1
     5     3     4   ar
     6     4     5   ar
     7     5     6   ar
     8     6     7   ar
     9     7     8   ar
    10     2     9    1
    11     9    10   ar
    12    10    11   ar
    13    11    12   ar
    14    12    15    1
    15    15    16    1
    16    16    17    1
    17    17    18    1
    18    18    19    1
    19    18    20    1
    20    12    13   ar
    21    13    14   ar
    22     1    21    1
    23    21    22   ar
    24    22    23   ar
    25    23    24   ar
    26    24    25   ar
    27    25    26   ar
    28     8     3   ar
    29    14     9   ar
    30    26    21   ar
@<TRIPOS>MOLECULE
*****
 28 30 0 0 0
SMALL
GASTEIGER

@<TRIPOS>ATOM
      1 C          46.5997   16.1620  -26.1998 C.2     1  UNL1       -0.0222
      2 C          47.0275   15.0385  -25.5560 C.2     1  UNL1       -0.0040
      3 C          46.2708   13.7661  -25.6132 C.ar    1  UNL1       -0.0003
      4 C          46.5495   12.8296  -26.6220 C.ar    1  UNL1       -0.0000
      5 C          45.8122   11.6445  -26.7049 C.ar    1  UNL1       -0.0000
      6 C          44.7821   11.3954  -25.7938 C.ar    1  UNL1       -0.0000
      7 C          44.4827   12.3344  -24.8028 C.ar    1  UNL1       -0.0000
      8 C          45.2179   13.5204  -24.7165 C.ar    1  UNL1       -0.0000
      9 C          48.2637   15.0342  -24.7313 C.ar    1  UNL1       -0.0001
     10 C          48.2281   15.4277  -23.3834 C.ar    1  UNL1        0.0031
     11 C          49.3946   15.4190  -22.6149 C.ar    1  UNL1        0.0369
     12 C          50.6103   15.0078  -23.1719 C.ar    1  UNL1        0.1386
     13 C          50.6446   14.5933  -24.5167 C.ar    1  UNL1        0.0369
     14 C          49.4780   14.6022  -25.2867 C.ar    1  UNL1        0.0031
     15 O          51.7532   15.0255  -22.3600 O.3     1  UNL1       -0.4740
     16 C          52.4726   13.8648  -21.9514 C.3     1  UNL1        0.2226
     17 C          52.5461   13.7934  -20.4154 C.3     1  UNL1        0.1201
     18 N          51.8717   12.6211  -19.8104 N.3     1  UNL1       -0.2672
     19 C          50.4674   12.4765  -20.2226 C.3     1  UNL1        0.0898
     20 C          52.0074   12.5670  -18.3461 C.3     1  UNL1        0.0898
     21 C          47.4718   17.3640  -26.3011 C.ar    1  UNL1       -0.0040
     22 C          48.5033   17.4134  -27.2566 C.ar    1  UNL1       -0.0003
     23 C          49.3257   18.5397  -27.3508 C.ar    1  UNL1       -0.0000
     24 C          49.1200   19.6297  -26.5018 C.ar    1  UNL1       -0.0000
     25 C          48.0890   19.5965  -25.5596 C.ar    1  UNL1       -0.0000
     26 C          47.2646   18.4715  -25.4606 C.ar    1  UNL1       -0.0003
     27 C          45.3148   16.0653  -28.3720 C.3     1  UNL1        0.0050
     28 C          45.2322   16.2427  -26.8564 C.3     1  UNL1        0.0264
@<TRIPOS>BOND
     1    27    28    1
     2    28     1    1
     3     1     2    2
     4     2     3    1
     5     3     4   ar
     6     4     5   ar
     7     5     6   ar
     8     6     7   ar
     9     7     8   ar
    10     2     9    1
    11     9    10   ar
    12    10    11   ar
    13    11    12   ar
    14    12    15    1
    15    15    16    1
    16    16    17    1
    17    17    18    1
    18    18    19    1
    19    18    20    1
    20    12    13   ar
    21    13    14   ar
    22     1    21    1
    23    21    22   ar
    24    22    23   ar
    25    23    24   ar
    26    24    25   ar
    27    25    26   ar
    28     8     3   ar
    29    14     9   ar
    30    26    21   ar
@<TRIPOS>MOLECULE
*****
 28 30 0 0 0
SMALL
GASTEIGER

@<TRIPOS>ATOM
      1 C          47.0443   14.9632  -26.4092 C.2     1  UNL1       -0.0222
      2 C          48.1295   15.2782  -25.6457 C.2     1  UNL1       -0.0040
      3 C          48.9297   16.5014  -25.8876 C.ar    1  UNL1       -0.0003
      4 C          50.2317   16.3965  -26.4035 C.ar    1  UNL1       -0.0000
      5 C          51.0063   17.5443  -26.5970 C.ar    1  UNL1       -0.0000
      6 C          50.4934   18.8002  -26.2608 C.ar    1  UNL1       -0.0000
      7 C          49.2078   18.9096  -25.7234 C.ar    1  UNL1       -0.0000
      8 C          48.4301   17.7642  -25.5287 C.ar    1  UNL1       -0.0000
      9 C          48.5927   14.3941  -24.5447 C.ar    1  UNL1       -0.0001
     10 C          49.3142   13.2213  -24.8218 C.ar    1  UNL1        0.0031
     11 C          49.7472   12.3968  -23.7807 C.ar    1  UNL1        0.0369
     12 C          49.4796   12.7326  -22.4491 C.ar    1  UNL1        0.1386
     13 C          48.7747   13.9181  -22.1678 C.ar    1  UNL1        0.0369
     14 C          48.3404   14.7435  -23.2090 C.ar    1  UNL1        0.0031
     15 O          49.9292   11.8669  -21.4421 O.3     1  UNL1       -0.4740
     16 C          49.3036   10.6332  -21.0980 C.3     1  UNL1        0.2226
     17 C          49.7195   10.1987  -19.6810 C.3     1  UNL1        0.1201
     18 N          48.9171   10.7894  -18.5845 N.3     1  UNL1       -0.2672
     19 C          47.6397   11.3610  -19.0364 C.3     1  UNL1        0.0898
     20 C          49.6735   11.7509  -17.7667 C.3     1  UNL1        0.0898
     21 C          46.1369   13.8476  -26.0246 C.ar    1  UNL1       -0.0040
     22 C          45.2026   14.0189  -24.9867 C.ar    1  UNL1       -0.0003
     23 C          44.3522   12.9715  -24.6217 C.ar    1  UNL1       -0.0000
     24 C          44.4182   11.7492  -25.2948 C.ar    1  UNL1       -0.0000
     25 C          45.3323   11.5739  -26.3366 C.ar    1  UNL1       -0.0000
     26 C          46.1860   12.6184  -26.7045 C.ar    1  UNL1       -0.0003
     27 C          45.2361   16.1885  -27.6771 C.3     1  UNL1        0.0050
     28 C          46.6953   15.7348  -27.6703 C.3     1  UNL1        0.0264
@<TRIPOS>BOND
     1    27    28    1
     2    28     1    1
     3     1     2    2
     4     2     3    1
     5     3     4   ar
     6     4     5   ar
     7     5     6   ar
     8     6     7   ar
     9     7     8   ar
    10     2     9    1
    11     9    10   ar
    12    10    11   ar
    13    11    12   ar
    14    12    15    1
    15    15    16    1
    16    16    17    1
    17    17    18    1
    18    18    19    1
    19    18    20    1
    20    12    13   ar
    21    13    14   ar
    22     1    21    1
    23    21    22   ar
    24    22    23   ar
    25    23    24   ar
    26    24    25   ar
    27    25    26   ar
    28     8     3   ar
    29    14     9   ar
    30    26    21   ar
@<TRIPOS>MOLECULE
*****
 28 30 0 0 0
SMALL
GASTEIGER

@<TRIPOS>ATOM
      1 C          46.4732   15.2945  -26.6635 C.2     1  UNL1       -0.0222
      2 C          47.4485   15.8920  -25.9209 C.2     1  UNL1       -0.0040
      3 C          47.8884   17.2831  -26.1783 C.ar    1  UNL1       -0.0003
      4 C          48.9399   17.5311  -27.0757 C.ar    1  UNL1       -0.0000
      5 C          49.3857   18.8383  -27.2931 C.ar    1  UNL1       -0.0000
      6 C          48.7977   19.9025  -26.6039 C.ar    1  UNL1       -0.0000
      7 C          47.7678   19.6604  -25.6905 C.ar    1  UNL1       -0.0000
      8 C          47.3190   18.3547  -25.4707 C.ar    1  UNL1       -0.0000
      9 C          48.1511   15.1696  -24.8287 C.ar    1  UNL1       -0.0001
     10 C          49.1894   14.2684  -25.1166 C.ar    1  UNL1        0.0031
     11 C          49.8456   13.5948  -24.0836 C.ar    1  UNL1        0.0369
     12 C          49.4871   13.8164  -22.7495 C.ar    1  UNL1        0.1386
     13 C          48.4608   14.7345  -22.4572 C.ar    1  UNL1        0.0369
     14 C          47.8032   15.4085  -23.4902 C.ar    1  UNL1        0.0031
     15 O          50.1714   13.1088  -21.7512 O.3     1  UNL1       -0.4740
     16 C          49.7114   12.9532  -20.4110 C.3     1  UNL1        0.2226
     17 C          50.8034   12.3035  -19.5420 C.3     1  UNL1        0.1201
     18 N          50.3604   11.1294  -18.7545 N.3     1  UNL1       -0.2672
     19 C          49.7162   10.0877  -19.5687 C.3     1  UNL1        0.0898
     20 C          49.5306   11.4903  -17.5940 C.3     1  UNL1        0.0898
     21 C          45.9040   13.9793  -26.2615 C.ar    1  UNL1       -0.0040
     22 C          46.2441   12.8126  -26.9706 C.ar    1  UNL1       -0.0003
     23 C          45.7078   11.5771  -26.5969 C.ar    1  UNL1       -0.0000
     24 C          44.8375   11.4924  -25.5076 C.ar    1  UNL1       -0.0000
     25 C          44.5051   12.6428  -24.7878 C.ar    1  UNL1       -0.0000
     26 C          45.0380   13.8811  -25.1586 C.ar    1  UNL1       -0.0003
     27 C          44.5781   16.6419  -27.6495 C.3     1  UNL1        0.0050
     28 C          45.9078   15.9382  -27.9180 C.3     1  UNL1        0.0264
@<TRIPOS>BOND
     1    27    28    1
     2    28     1    1
     3     1     2    2
     4     2     3    1
     5     3     4   ar
     6     4     5   ar
     7     5     6   ar
     8     6     7   ar
     9     7     8   ar
    10     2     9    1
    11     9    10   ar
    12    10    11   ar
    13    11    12   ar
    14    12    15    1
    15    15    16    1
    16    16    17    1
    17    17    18    1
    18    18    19    1
    19    18    20    1
    20    12    13   ar
    21    13    14   ar
    22     1    21    1
    23    21    22   ar
    24    22    23   ar
    25    23    24   ar
    26    24    25   ar
    27    25    26   ar
    28     8     3   ar
    29    14     9   ar
    30    26    21   ar
@<TRIPOS>MOLECULE
*****
 28 30 0 0 0
SMALL
GASTEIGER

@<TRIPOS>ATOM
      1 C          47.5950   15.6991  -26.3600 C.2     1  UNL1       -0.0222
      2 C          47.4342   14.7341  -25.4099 C.2     1  UNL1       -0.0040
      3 C          46.4418   13.6442  -25.5595 C.ar    1  UNL1       -0.0003
      4 C          45.3017   13.6169  -24.7399 C.ar    1  UNL1       -0.0000
      5 C          44.3816   12.5699  -24.8493 C.ar    1  UNL1       -0.0000
      6 C          44.6024   11.5361  -25.7634 C.ar    1  UNL1       -0.0000
      7 C          45.7477   11.5437  -26.5646 C.ar    1  UNL1       -0.0000
      8 C          46.6699   12.5891  -26.4584 C.ar    1  UNL1       -0.0000
      9 C          48.2244   14.7382  -24.1513 C.ar    1  UNL1       -0.0001
     10 C          49.2670   13.8174  -23.9560 C.ar    1  UNL1        0.0031
     11 C          50.0059   13.8293  -22.7706 C.ar    1  UNL1        0.0369
     12 C          49.7268   14.7642  -21.7678 C.ar    1  UNL1        0.1386
     13 C          48.6961   15.7014  -21.9698 C.ar    1  UNL1        0.0369
     14 C          47.9558   15.6898  -23.1554 C.ar    1  UNL1        0.0031
     15 O          50.4925   14.7282  -20.5939 O.3     1  UNL1       -0.4740
     16 C          51.7173   14.0135  -20.4493 C.3     1  UNL1        0.2226
     17 C          51.5694   12.9066  -19.3897 C.3     1  UNL1        0.1201
     18 N          50.1900   12.3992  -19.2029 N.3     1  UNL1       -0.2672
     19 C          49.7728   12.3428  -17.7939 C.3     1  UNL1        0.0898
     20 C          49.9474   11.1176  -19.8841 C.3     1  UNL1        0.0898
     21 C          48.7300   16.6595  -26.2897 C.ar    1  UNL1       -0.0040
     22 C          48.5170   17.9781  -25.8475 C.ar    1  UNL1       -0.0003
     23 C          49.5808   18.8825  -25.7842 C.ar    1  UNL1       -0.0000
     24 C          50.8666   18.4776  -26.1503 C.ar    1  UNL1       -0.0000
     25 C          51.0913   17.1662  -26.5766 C.ar    1  UNL1       -0.0000
     26 C          50.0300   16.2582  -26.6428 C.ar    1  UNL1       -0.0003
     27 C          45.3321   16.5059  -27.1391 C.3     1  UNL1        0.0050
     28 C          46.6460   15.8353  -27.5383 C.3     1  UNL1        0.0264
@<TRIPOS>BOND
     1    27    28    1
     2    28     1    1
     3     1     2    2
     4     2     3    1
     5     3     4   ar
     6     4     5   ar
     7     5     6   ar
     8     6     7   ar
     9     7     8   ar
    10     2     9    1
    11     9    10   ar
    12    10    11   ar
    13    11    12   ar
    14    12    15    1
    15    15    16    1
    16    16    17    1
    17    17    18    1
    18    18    19    1
    19    18    20    1
    20    12    13   ar
    21    13    14   ar
    22     1    21    1
    23    21    22   ar
    24    22    23   ar
    25    23    24   ar
    26    24    25   ar
    27    25    26   ar
    28     8     3   ar
    29    14     9   ar
    30    26    21   ar
@<TRIPOS>MOLECULE
*****
 28 30 0 0 0
SMALL
GASTEIGER

@<TRIPOS>ATOM
      1 C          46.2064   15.4079  -26.4265 C.2     1  UNL1       -0.0222
      2 C          47.4054   15.8863  -25.9871 C.2     1  UNL1       -0.0040
      3 C          47.7615   17.3209  -26.0879 C.ar    1  UNL1       -0.0003
      4 C          48.5920   17.7655  -27.1295 C.ar    1  UNL1       -0.0000
      5 C          48.9636   19.1111  -27.2074 C.ar    1  UNL1       -0.0000
      6 C          48.5238   20.0164  -26.2377 C.ar    1  UNL1       -0.0000
      7 C          47.7178   19.5760  -25.1842 C.ar    1  UNL1       -0.0000
      8 C          47.3438   18.2313  -25.1030 C.ar    1  UNL1       -0.0000
      9 C          48.4399   14.9890  -25.4100 C.ar    1  UNL1       -0.0001
     10 C          48.3440   14.5454  -24.0807 C.ar    1  UNL1        0.0031
     11 C          49.3200   13.7007  -23.5467 C.ar    1  UNL1        0.0369
     12 C          50.3985   13.2755  -24.3298 C.ar    1  UNL1        0.1386
     13 C          50.4859   13.7020  -25.6685 C.ar    1  UNL1        0.0369
     14 C          49.5101   14.5478  -26.2036 C.ar    1  UNL1        0.0031
     15 O          51.3550   12.4348  -23.7434 O.3     1  UNL1       -0.4740
     16 C          52.4776   11.8857  -24.4291 C.3     1  UNL1        0.2226
     17 C          52.3210   10.3616  -24.5784 C.3     1  UNL1        0.1201
     18 N          50.9422    9.8989  -24.8610 N.3     1  UNL1       -0.2672
     19 C          50.5277    8.7551  -24.0347 C.3     1  UNL1        0.0898
     20 C          50.6989    9.6425  -26.2895 C.3     1  UNL1        0.0898
     21 C          45.7862   14.0109  -26.1311 C.ar    1  UNL1       -0.0040
     22 C          44.9235   13.7426  -25.0524 C.ar    1  UNL1       -0.0003
     23 C          44.5307   12.4310  -24.7712 C.ar    1  UNL1       -0.0000
     24 C          44.9850   11.3780  -25.5687 C.ar    1  UNL1       -0.0000
     25 C          45.8300   11.6355  -26.6511 C.ar    1  UNL1       -0.0000
     26 C          46.2268   12.9457  -26.9355 C.ar    1  UNL1       -0.0003
     27 C          45.4511   16.1337  -28.7247 C.3     1  UNL1        0.0050
     28 C          45.2367   16.2689  -27.2176 C.3     1  UNL1        0.0264
@<TRIPOS>BOND
     1    27    28    1
     2    28     1    1
     3     1     2    2
     4     2     3    1
     5     3     4   ar
     6     4     5   ar
     7     5     6   ar
     8     6     7   ar
     9     7     8   ar
    10     2     9    1
    11     9    10   ar
    12    10    11   ar
    13    11    12   ar
    14    12    15    1
    15    15    16    1
    16    16    17    1
    17    17    18    1
    18    18    19    1
    19    18    20    1
    20    12    13   ar
    21    13    14   ar
    22     1    21    1
    23    21    22   ar
    24    22    23   ar
    25    23    24   ar
    26    24    25   ar
    27    25    26   ar
    28     8     3   ar
    29    14     9   ar
    30    26    21   ar
@<TRIPOS>MOLECULE
*****
 28 30 0 0 0
SMALL
GASTEIGER

@<TRIPOS>ATOM
      1 C          46.3257   12.1458  -25.0482 C.2     1  UNL1       -0.0222
      2 C          47.2033   12.2847  -26.0828 C.2     1  UNL1       -0.0040
      3 C          46.7492   12.3634  -27.4908 C.ar    1  UNL1       -0.0003
      4 C          46.8293   11.2310  -28.3175 C.ar    1  UNL1       -0.0000
      5 C          46.4392   11.3093  -29.6578 C.ar    1  UNL1       -0.0000
      6 C          45.9842   12.5210  -30.1851 C.ar    1  UNL1       -0.0000
      7 C          45.9256   13.6583  -29.3747 C.ar    1  UNL1       -0.0000
      8 C          46.3146   13.5839  -28.0339 C.ar    1  UNL1       -0.0000
      9 C          48.6718   12.3328  -25.8598 C.ar    1  UNL1       -0.0001
     10 C          49.3469   13.5625  -25.7901 C.ar    1  UNL1        0.0031
     11 C          50.7272   13.5986  -25.5786 C.ar    1  UNL1        0.0369
     12 C          51.4539   12.4135  -25.4214 C.ar    1  UNL1        0.1386
     13 C          50.7765   11.1805  -25.4702 C.ar    1  UNL1        0.0369
     14 C          49.3954   11.1434  -25.6824 C.ar    1  UNL1        0.0031
     15 O          52.8383   12.5046  -25.2197 O.3     1  UNL1       -0.4740
     16 C          53.4956   12.2254  -23.9861 C.3     1  UNL1        0.2226
     17 C          53.3370   13.4092  -23.0149 C.3     1  UNL1        0.1201
     18 N          52.5576   13.1137  -21.7900 N.3     1  UNL1       -0.2672
     19 C          51.1784   13.6220  -21.8369 C.3     1  UNL1        0.0898
     20 C          53.2397   13.5318  -20.5549 C.3     1  UNL1        0.0898
     21 C          46.7809   12.2754  -23.6370 C.ar    1  UNL1       -0.0040
     22 C          46.9692   11.1284  -22.8443 C.ar    1  UNL1       -0.0003
     23 C          47.3931   11.2481  -21.5178 C.ar    1  UNL1       -0.0000
     24 C          47.6433   12.5103  -20.9741 C.ar    1  UNL1       -0.0000
     25 C          47.4736   13.6546  -21.7575 C.ar    1  UNL1       -0.0000
     26 C          47.0485   13.5399  -23.0845 C.ar    1  UNL1       -0.0003
     27 C          43.9692   13.0017  -24.7435 C.3     1  UNL1        0.0050
     28 C          44.8491   11.8714  -25.2760 C.3     1  UNL1        0.0264
@<TRIPOS>BOND
     1    27    28    1
     2    28     1    1
     3     1     2    2
     4     2     3    1
     5     3     4   ar
     6     4     5   ar
     7     5     6   ar
     8     6     7   ar
     9     7     8   ar
    10     2     9    1
    11     9    10   ar
    12    10    11   ar
    13    11    12   ar
    14    12    15    1
    15    15    16    1
    16    16    17    1
    17    17    18    1
    18    18    19    1
    19    18    20    1
    20    12    13   ar
    21    13    14   ar
    22     1    21    1
    23    21    22   ar
    24    22    23   ar
    25    23    24   ar
    26    24    25   ar
    27    25    26   ar
    28     8     3   ar
    29    14     9   ar
    30    26    21   ar
@<TRIPOS>MOLECULE
*****
 28 30 0 0 0
SMALL
GASTEIGER

@<TRIPOS>ATOM
      1 C          46.5293   16.1456  -26.2766 C.2     1  UNL1       -0.0222
      2 C          46.9968   15.0138  -25.6763 C.2     1  UNL1       -0.0040
      3 C          46.2940   13.7151  -25.7966 C.ar    1  UNL1       -0.0003
      4 C          46.6369   12.8254  -26.8276 C.ar    1  UNL1       -0.0000
      5 C          45.9506   11.6156  -26.9701 C.ar    1  UNL1       -0.0000
      6 C          44.9077   11.2950  -26.0968 C.ar    1  UNL1       -0.0000
      7 C          44.5443   12.1871  -25.0840 C.ar    1  UNL1       -0.0000
      8 C          45.2284   13.3976  -24.9381 C.ar    1  UNL1       -0.0000
      9 C          48.2238   15.0245  -24.8380 C.ar    1  UNL1       -0.0001
     10 C          49.4909   14.8516  -25.4190 C.ar    1  UNL1        0.0031
     11 C          50.6394   14.8646  -24.6238 C.ar    1  UNL1        0.0369
     12 C          50.5454   15.0615  -23.2419 C.ar    1  UNL1        0.1386
     13 C          49.2784   15.2557  -22.6601 C.ar    1  UNL1        0.0369
     14 C          48.1286   15.2422  -23.4549 C.ar    1  UNL1        0.0031
     15 O          51.7276   15.0577  -22.4881 O.3     1  UNL1       -0.4740
     16 C          52.3639   13.8842  -21.9885 C.3     1  UNL1        0.2226
     17 C          53.3544   13.3284  -23.0276 C.3     1  UNL1        0.1201
     18 N          52.9588   12.0399  -23.6427 N.3     1  UNL1       -0.2672
     19 C          53.3471   11.9225  -25.0563 C.3     1  UNL1        0.0898
     20 C          51.5354   11.7196  -23.4508 C.3     1  UNL1        0.0898
     21 C          47.3520   17.3854  -26.3163 C.ar    1  UNL1       -0.0040
     22 C          47.1312   18.4134  -25.3814 C.ar    1  UNL1       -0.0003
     23 C          47.9002   19.5800  -25.4193 C.ar    1  UNL1       -0.0000
     24 C          48.9022   19.7270  -26.3814 C.ar    1  UNL1       -0.0000
     25 C          49.1392   18.7058  -27.3049 C.ar    1  UNL1       -0.0000
     26 C          48.3716   17.5375  -27.2718 C.ar    1  UNL1       -0.0003
     27 C          45.2692   16.0626  -28.4638 C.3     1  UNL1        0.0050
     28 C          45.1663   16.1985  -26.9452 C.3     1  UNL1        0.0264
@<TRIPOS>BOND
     1    27    28    1
     2    28     1    1
     3     1     2    2
     4     2     3    1
     5     3     4   ar
     6     4     5   ar
     7     5     6   ar
     8     6     7   ar
     9     7     8   ar
    10     2     9    1
    11     9    10   ar
    12    10    11   ar
    13    11    12   ar
    14    12    15    1
    15    15    16    1
    16    16    17    1
    17    17    18    1
    18    18    19    1
    19    18    20    1
    20    12    13   ar
    21    13    14   ar
    22     1    21    1
    23    21    22   ar
    24    22    23   ar
    25    23    24   ar
    26    24    25   ar
    27    25    26   ar
    28     8     3   ar
    29    14     9   ar
    30    26    21   ar
@<TRIPOS>MOLECULE
*****
 28 30 0 0 0
SMALL
GASTEIGER

@<TRIPOS>ATOM
      1 C          47.0007   14.9868  -26.4385 C.2     1  UNL1       -0.0222
      2 C          47.9733   15.4552  -25.6052 C.2     1  UNL1       -0.0040
      3 C          48.7835   16.6496  -25.9394 C.ar    1  UNL1       -0.0003
      4 C          48.1980   17.9257  -25.9054 C.ar    1  UNL1       -0.0000
      5 C          48.9466   19.0528  -26.2577 C.ar    1  UNL1       -0.0000
      6 C          50.2767   18.9116  -26.6626 C.ar    1  UNL1       -0.0000
      7 C          50.8584   17.6421  -26.7230 C.ar    1  UNL1       -0.0000
      8 C          50.1132   16.5127  -26.3712 C.ar    1  UNL1       -0.0000
      9 C          48.2997   14.7738  -24.3255 C.ar    1  UNL1       -0.0001
     10 C          48.0252   15.3911  -23.0940 C.ar    1  UNL1        0.0031
     11 C          48.3337   14.7428  -21.8956 C.ar    1  UNL1        0.0369
     12 C          48.9083   13.4672  -21.9045 C.ar    1  UNL1        0.1386
     13 C          49.1653   12.8379  -23.1372 C.ar    1  UNL1        0.0369
     14 C          48.8575   13.4861  -24.3368 C.ar    1  UNL1        0.0031
     15 O          49.2061   12.8638  -20.6745 O.3     1  UNL1       -0.4740
     16 C          50.1982   13.3313  -19.7640 C.3     1  UNL1        0.2226
     17 C          51.5335   12.6050  -20.0078 C.3     1  UNL1        0.1201
     18 N          52.6399   13.4706  -20.4786 N.3     1  UNL1       -0.2672
     19 C          52.6901   14.7758  -19.8029 C.3     1  UNL1        0.0898
     20 C          52.6722   13.6243  -21.9417 C.3     1  UNL1        0.0898
     21 C          46.0644   13.9178  -25.9958 C.ar    1  UNL1       -0.0040
     22 C          46.1371   12.6319  -26.5621 C.ar    1  UNL1       -0.0003
     23 C          45.2565   11.6276  -26.1504 C.ar    1  UNL1       -0.0000
     24 C          44.3040   11.8932  -25.1637 C.ar    1  UNL1       -0.0000
     25 C          44.2333   13.1626  -24.5845 C.ar    1  UNL1       -0.0000
     26 C          45.1113   14.1708  -24.9941 C.ar    1  UNL1       -0.0003
     27 C          45.3932   16.0654  -28.0607 C.3     1  UNL1        0.0050
     28 C          46.8097   15.5354  -27.8421 C.3     1  UNL1        0.0264
@<TRIPOS>BOND
     1    27    28    1
     2    28     1    1
     3     1     2    2
     4     2     3    1
     5     3     4   ar
     6     4     5   ar
     7     5     6   ar
     8     6     7   ar
     9     7     8   ar
    10     2     9    1
    11     9    10   ar
    12    10    11   ar
    13    11    12   ar
    14    12    15    1
    15    15    16    1
    16    16    17    1
    17    17    18    1
    18    18    19    1
    19    18    20    1
    20    12    13   ar
    21    13    14   ar
    22     1    21    1
    23    21    22   ar
    24    22    23   ar
    25    23    24   ar
    26    24    25   ar
    27    25    26   ar
    28     8     3   ar
    29    14     9   ar
    30    26    21   ar
