@<TRIPOS>MOLECULE
*****
 48 53 0 0 0
SMALL
GASTEIGER

@<TRIPOS>ATOM
      1 C         -64.9699  -40.5637  -22.5365 C.2     1  UNL1        0.2483
      2 O         -66.1259  -40.0969  -22.3543 O.2     1  UNL1       -0.2701
      3 N         -64.1318  -40.8209  -21.4006 N.am    1  UNL1       -0.2945
      4 H         -64.5995  -41.1902  -20.5421 H       1  UNL1        0.1501
      5 C         -63.6938  -41.5657  -26.5106 C.ar    1  UNL1        0.0502
      6 C         -63.0936  -42.1652  -25.3917 C.ar    1  UNL1        0.0148
      7 C         -63.5080  -41.8303  -24.1010 C.ar    1  UNL1        0.0080
      8 C         -64.5295  -40.8907  -23.9044 C.ar    1  UNL1        0.0808
      9 C         -65.1569  -40.3128  -25.0204 C.ar    1  UNL1        0.1457
     10 F         -66.1575  -39.4101  -24.8611 F       1  UNL1       -0.2040
     11 C         -64.7349  -40.6421  -26.3123 C.ar    1  UNL1        0.0443
     12 N         -62.0390  -42.8079  -30.1975 N.pl3   1  UNL1       -0.3017
     13 C         -61.9471  -41.3752  -29.9020 C.3     1  UNL1        0.1123
     14 C         -62.0845  -41.1491  -28.3950 C.3     1  UNL1        0.1122
     15 N         -63.2357  -41.8816  -27.8408 N.pl3   1  UNL1       -0.3040
     16 C         -64.0154  -42.7911  -28.6940 C.3     1  UNL1        0.1122
     17 C         -63.0841  -43.6322  -29.5754 C.3     1  UNL1        0.1123
     18 C         -60.0121  -44.1996  -30.4238 C.ar    1  UNL1        0.1519
     19 C         -59.0357  -44.7918  -31.2497 C.ar    1  UNL1        0.0390
     20 C         -59.0918  -44.6319  -32.6367 C.ar    1  UNL1        0.0146
     21 C         -60.1188  -43.8831  -33.2158 C.ar    1  UNL1        0.0591
     22 CL        -60.1882  -43.6871  -34.9576 Cl      1  UNL1       -0.0822
     23 C         -61.0894  -43.2881  -32.4063 C.ar    1  UNL1        0.0290
     24 C         -61.0383  -43.4363  -31.0123 C.ar    1  UNL1        0.0832
     25 C         -60.1266  -45.6097  -28.3592 C.3     1  UNL1        0.2525
     26 O         -60.0022  -44.3598  -29.0291 O.3     1  UNL1       -0.4702
     27 C         -62.8031  -40.2171  -21.2234 C.3     1  UNL1        0.1535
     28 C         -62.9105  -38.7885  -20.7440 C.2     1  UNL1        0.2443
     29 O         -62.0458  -37.9382  -21.0910 O.2     1  UNL1       -0.2730
     30 N         -64.0313  -38.4025  -19.9294 N.am    1  UNL1       -0.2825
     31 H         -64.7846  -39.1144  -19.7933 H       1  UNL1        0.1549
     32 C         -64.2635  -37.0825  -19.3997 C.ar    1  UNL1        0.0535
     33 C         -65.5018  -36.4654  -19.6303 C.ar    1  UNL1        0.0353
     34 C         -65.7573  -35.1990  -19.0999 C.ar    1  UNL1        0.1002
     35 N         -64.8148  -34.5715  -18.3490 N.ar    1  UNL1       -0.2422
     36 C         -63.6115  -35.1477  -18.0921 C.ar    1  UNL1        0.1002
     37 C         -63.3138  -36.4126  -18.6059 C.ar    1  UNL1        0.0353
     38 C         -61.9126  -41.0846  -20.3067 C.3     1  UNL1        0.0569
     39 C         -61.8728  -42.5157  -20.7669 C.ar    1  UNL1       -0.0017
     40 C         -62.8715  -43.4690  -20.5850 C.ar    1  UNL1        0.0681
     41 N         -62.4961  -44.6549  -21.1147 N.ar    1  UNL1       -0.3523
     42 C         -61.2717  -44.4595  -21.6332 C.ar    1  UNL1        0.0563
     43 C         -60.4752  -45.3967  -22.2899 C.ar    1  UNL1        0.0170
     44 C         -59.2188  -44.9766  -22.7623 C.ar    1  UNL1        0.0015
     45 C         -58.7928  -43.6437  -22.5730 C.ar    1  UNL1        0.0001
     46 C         -59.6181  -42.7188  -21.9082 C.ar    1  UNL1        0.0012
     47 C         -60.8568  -43.1652  -21.4442 C.ar    1  UNL1        0.0131
     48 H         -63.0494  -45.5405  -21.1189 H       1  UNL1        0.1660
@<TRIPOS>BOND
     1    25    26    1
     2    26    18    1
     3    18    19   ar
     4    19    20   ar
     5    20    21   ar
     6    21    22    1
     7    21    23   ar
     8    23    24   ar
     9    24    12    1
    10    12    13    1
    11    13    14    1
    12    14    15    1
    13    15     5    1
    14     5     6   ar
    15     6     7   ar
    16     7     8   ar
    17     8     1    1
    18     1     2    2
    19     1     3   am
    20     3    27    1
    21    27    38    1
    22    38    39    1
    23    39    40   ar
    24    40    41   ar
    25    41    42   ar
    26    42    43   ar
    27    43    44   ar
    28    44    45   ar
    29    45    46   ar
    30    46    47   ar
    31    27    28    1
    32    28    29    2
    33    28    30   am
    34    30    32    1
    35    32    33   ar
    36    33    34   ar
    37    34    35   ar
    38    35    36   ar
    39    36    37   ar
    40     8     9   ar
    41     9    10    1
    42     9    11   ar
    43    15    16    1
    44    16    17    1
    45    24    18   ar
    46    17    12    1
    47    11     5   ar
    48    47    39   ar
    49    37    32   ar
    50    47    42   ar
    51     3     4    1
    52    41    48    1
    53    30    31    1
@<TRIPOS>MOLECULE
*****
 48 53 0 0 0
SMALL
GASTEIGER

@<TRIPOS>ATOM
      1 C         -60.8360  -43.7272  -21.4879 C.2     1  UNL1        0.2483
      2 O         -60.3461  -44.8023  -21.0501 O.2     1  UNL1       -0.2701
      3 N         -61.0827  -42.6477  -20.5753 N.am    1  UNL1       -0.2945
      4 H         -60.3844  -42.5063  -19.8107 H       1  UNL1        0.1501
      5 C         -61.5163  -43.3063  -25.7051 C.ar    1  UNL1        0.0502
      6 C         -60.6575  -42.4274  -25.0256 C.ar    1  UNL1        0.0148
      7 C         -60.4453  -42.5648  -23.6524 C.ar    1  UNL1        0.0080
      8 C         -61.0869  -43.5825  -22.9328 C.ar    1  UNL1        0.0808
      9 C         -61.9206  -44.4855  -23.6130 C.ar    1  UNL1        0.1457
     10 F         -62.5444  -45.4886  -22.9451 F       1  UNL1       -0.2040
     11 C         -62.1395  -44.3414  -24.9866 C.ar    1  UNL1        0.0443
     12 N         -61.8980  -43.1452  -29.9126 N.pl3   1  UNL1       -0.3017
     13 C         -61.5762  -41.8792  -29.2475 C.3     1  UNL1        0.1123
     14 C         -60.9669  -42.1590  -27.8723 C.3     1  UNL1        0.1122
     15 N         -61.7667  -43.1368  -27.1150 N.pl3   1  UNL1       -0.3040
     16 C         -62.9195  -43.7977  -27.7453 C.3     1  UNL1        0.1122
     17 C         -62.5789  -44.2209  -29.1793 C.3     1  UNL1        0.1123
     18 C         -60.1583  -43.8862  -31.5004 C.ar    1  UNL1        0.1519
     19 C         -59.7423  -44.0944  -32.8306 C.ar    1  UNL1        0.0390
     20 C         -60.6054  -43.8141  -33.8931 C.ar    1  UNL1        0.0146
     21 C         -61.8898  -43.3252  -33.6438 C.ar    1  UNL1        0.0591
     22 CL        -62.9719  -42.9774  -34.9797 Cl      1  UNL1       -0.0822
     23 C         -62.3109  -43.1110  -32.3291 C.ar    1  UNL1        0.0290
     24 C         -61.4499  -43.3823  -31.2555 C.ar    1  UNL1        0.0832
     25 C         -59.2548  -45.4504  -29.7680 C.3     1  UNL1        0.2525
     26 O         -59.3280  -44.1806  -30.4073 O.3     1  UNL1       -0.4702
     27 C         -62.4064  -42.0368  -20.3849 C.3     1  UNL1        0.1535
     28 C         -62.3727  -40.5551  -20.6776 C.2     1  UNL1        0.2443
     29 O         -61.7727  -40.1260  -21.7007 O.2     1  UNL1       -0.2730
     30 N         -63.0697  -39.6498  -19.8040 N.am    1  UNL1       -0.2825
     31 H         -63.6631  -40.0764  -19.0564 H       1  UNL1        0.1549
     32 C         -63.1232  -38.2176  -19.9558 C.ar    1  UNL1        0.0535
     33 C         -64.0560  -37.4885  -19.2036 C.ar    1  UNL1        0.0353
     34 C         -64.1032  -36.0971  -19.3140 C.ar    1  UNL1        0.1002
     35 N         -63.2377  -35.4487  -20.1363 N.ar    1  UNL1       -0.2422
     36 C         -62.3107  -36.1226  -20.8661 C.ar    1  UNL1        0.1002
     37 C         -62.2311  -37.5154  -20.7874 C.ar    1  UNL1        0.0353
     38 C         -63.4869  -42.7782  -21.2026 C.3     1  UNL1        0.0569
     39 C         -64.5886  -41.8501  -21.6340 C.ar    1  UNL1       -0.0017
     40 C         -65.6550  -41.4152  -20.8510 C.ar    1  UNL1        0.0681
     41 N         -66.4630  -40.5980  -21.5633 N.ar    1  UNL1       -0.3523
     42 C         -65.9157  -40.5089  -22.7875 C.ar    1  UNL1        0.0563
     43 C         -66.3921  -39.7738  -23.8722 C.ar    1  UNL1        0.0170
     44 C         -65.6562  -39.8164  -25.0700 C.ar    1  UNL1        0.0015
     45 C         -64.4723  -40.5813  -25.1550 C.ar    1  UNL1        0.0001
     46 C         -64.0140  -41.3120  -24.0440 C.ar    1  UNL1        0.0012
     47 C         -64.7679  -41.2565  -22.8703 C.ar    1  UNL1        0.0131
     48 H         -67.3344  -40.1318  -21.2259 H       1  UNL1        0.1660
@<TRIPOS>BOND
     1    25    26    1
     2    26    18    1
     3    18    19   ar
     4    19    20   ar
     5    20    21   ar
     6    21    22    1
     7    21    23   ar
     8    23    24   ar
     9    24    12    1
    10    12    13    1
    11    13    14    1
    12    14    15    1
    13    15     5    1
    14     5     6   ar
    15     6     7   ar
    16     7     8   ar
    17     8     1    1
    18     1     2    2
    19     1     3   am
    20     3    27    1
    21    27    38    1
    22    38    39    1
    23    39    40   ar
    24    40    41   ar
    25    41    42   ar
    26    42    43   ar
    27    43    44   ar
    28    44    45   ar
    29    45    46   ar
    30    46    47   ar
    31    27    28    1
    32    28    29    2
    33    28    30   am
    34    30    32    1
    35    32    33   ar
    36    33    34   ar
    37    34    35   ar
    38    35    36   ar
    39    36    37   ar
    40     8     9   ar
    41     9    10    1
    42     9    11   ar
    43    15    16    1
    44    16    17    1
    45    24    18   ar
    46    17    12    1
    47    11     5   ar
    48    47    39   ar
    49    37    32   ar
    50    47    42   ar
    51     3     4    1
    52    41    48    1
    53    30    31    1
@<TRIPOS>MOLECULE
*****
 48 53 0 0 0
SMALL
GASTEIGER

@<TRIPOS>ATOM
      1 C         -65.3661  -40.3778  -22.6949 C.2     1  UNL1        0.2483
      2 O         -66.4939  -39.8232  -22.6058 O.2     1  UNL1       -0.2701
      3 N         -64.6424  -40.6891  -21.4956 N.am    1  UNL1       -0.2945
      4 H         -65.2033  -41.0153  -20.6763 H       1  UNL1        0.1501
      5 C         -63.8384  -41.4061  -26.5723 C.ar    1  UNL1        0.0502
      6 C         -64.8299  -40.4222  -26.4296 C.ar    1  UNL1        0.0148
      7 C         -65.3281  -40.0965  -25.1664 C.ar    1  UNL1        0.0080
      8 C         -64.8451  -40.7477  -24.0229 C.ar    1  UNL1        0.0808
      9 C         -63.8293  -41.7088  -24.1558 C.ar    1  UNL1        0.1457
     10 F         -63.3329  -42.3459  -23.0654 F       1  UNL1       -0.2040
     11 C         -63.3375  -42.0405  -25.4221 C.ar    1  UNL1        0.0443
     12 N         -62.1142  -42.7812  -30.1794 N.pl3   1  UNL1       -0.3017
     13 C         -62.0300  -41.3382  -29.9359 C.3     1  UNL1        0.1123
     14 C         -62.1954  -41.0564  -28.4412 C.3     1  UNL1        0.1122
     15 N         -63.3555  -41.7704  -27.8812 N.pl3   1  UNL1       -0.3040
     16 C         -64.1179  -42.7128  -28.7140 C.3     1  UNL1        0.1122
     17 C         -63.1692  -43.5840  -29.5462 C.3     1  UNL1        0.1123
     18 C         -60.1142  -44.2222  -30.3205 C.ar    1  UNL1        0.1519
     19 C         -59.1207  -44.8415  -31.1050 C.ar    1  UNL1        0.0390
     20 C         -59.1184  -44.6867  -32.4937 C.ar    1  UNL1        0.0146
     21 C         -60.1034  -43.9163  -33.1157 C.ar    1  UNL1        0.0591
     22 CL        -60.0994  -43.7267  -34.8595 Cl      1  UNL1       -0.0822
     23 C         -61.0904  -43.2943  -32.3472 C.ar    1  UNL1        0.0290
     24 C         -61.0977  -43.4372  -30.9518 C.ar    1  UNL1        0.0832
     25 C         -60.1944  -45.6299  -28.2527 C.3     1  UNL1        0.2525
     26 O         -60.1631  -44.3760  -28.9259 O.3     1  UNL1       -0.4702
     27 C         -63.2897  -40.1866  -21.2144 C.3     1  UNL1        0.1535
     28 C         -63.3270  -38.7567  -20.7282 C.2     1  UNL1        0.2443
     29 O         -62.4275  -37.9455  -21.0799 O.2     1  UNL1       -0.2730
     30 N         -64.4212  -38.3235  -19.9014 N.am    1  UNL1       -0.2825
     31 H         -65.2052  -39.0007  -19.7610 H       1  UNL1        0.1549
     32 C         -64.5877  -36.9966  -19.3641 C.ar    1  UNL1        0.0535
     33 C         -63.5480  -36.4329  -18.6100 C.ar    1  UNL1        0.0353
     34 C         -63.6777  -35.1369  -18.1062 C.ar    1  UNL1        0.1002
     35 N         -64.8019  -34.4169  -18.3583 N.ar    1  UNL1       -0.2422
     36 C         -65.8207  -34.9259  -19.0991 C.ar    1  UNL1        0.1002
     37 C         -65.7330  -36.2197  -19.6198 C.ar    1  UNL1        0.0353
     38 C         -62.5359  -41.1231  -20.2446 C.3     1  UNL1        0.0569
     39 C         -63.4588  -41.7111  -19.2132 C.ar    1  UNL1       -0.0017
     40 C         -63.7950  -41.1428  -17.9871 C.ar    1  UNL1        0.0681
     41 N         -64.6394  -41.9503  -17.3067 N.ar    1  UNL1       -0.3523
     42 C         -64.8433  -43.0214  -18.0923 C.ar    1  UNL1        0.0563
     43 C         -65.6464  -44.1275  -17.8174 C.ar    1  UNL1        0.0170
     44 C         -65.7232  -45.1423  -18.7882 C.ar    1  UNL1        0.0015
     45 C         -65.0066  -45.0287  -19.9996 C.ar    1  UNL1        0.0001
     46 C         -64.2052  -43.9004  -20.2511 C.ar    1  UNL1        0.0012
     47 C         -64.1426  -42.9121  -19.2671 C.ar    1  UNL1        0.0131
     48 H         -65.0486  -41.7729  -16.3625 H       1  UNL1        0.1660
@<TRIPOS>BOND
     1    25    26    1
     2    26    18    1
     3    18    19   ar
     4    19    20   ar
     5    20    21   ar
     6    21    22    1
     7    21    23   ar
     8    23    24   ar
     9    24    12    1
    10    12    13    1
    11    13    14    1
    12    14    15    1
    13    15     5    1
    14     5     6   ar
    15     6     7   ar
    16     7     8   ar
    17     8     1    1
    18     1     2    2
    19     1     3   am
    20     3    27    1
    21    27    38    1
    22    38    39    1
    23    39    40   ar
    24    40    41   ar
    25    41    42   ar
    26    42    43   ar
    27    43    44   ar
    28    44    45   ar
    29    45    46   ar
    30    46    47   ar
    31    27    28    1
    32    28    29    2
    33    28    30   am
    34    30    32    1
    35    32    33   ar
    36    33    34   ar
    37    34    35   ar
    38    35    36   ar
    39    36    37   ar
    40     8     9   ar
    41     9    10    1
    42     9    11   ar
    43    15    16    1
    44    16    17    1
    45    24    18   ar
    46    17    12    1
    47    11     5   ar
    48    47    39   ar
    49    37    32   ar
    50    47    42   ar
    51     3     4    1
    52    41    48    1
    53    30    31    1
@<TRIPOS>MOLECULE
*****
 48 53 0 0 0
SMALL
GASTEIGER

@<TRIPOS>ATOM
      1 C         -60.3024  -46.1202  -26.0660 C.2     1  UNL1        0.2483
      2 O         -59.2360  -46.7471  -25.8268 O.2     1  UNL1       -0.2701
      3 N         -61.0254  -46.4036  -27.2726 N.am    1  UNL1       -0.2945
      4 H         -61.0487  -47.4002  -27.5866 H       1  UNL1        0.1501
      5 C         -61.7878  -43.2772  -23.2136 C.ar    1  UNL1        0.0502
      6 C         -60.6176  -43.0159  -23.9444 C.ar    1  UNL1        0.0148
      7 C         -60.1352  -43.9474  -24.8660 C.ar    1  UNL1        0.0080
      8 C         -60.8127  -45.1567  -25.0745 C.ar    1  UNL1        0.0808
      9 C         -62.0022  -45.4091  -24.3712 C.ar    1  UNL1        0.1457
     10 F         -62.6867  -46.5651  -24.5621 F       1  UNL1       -0.2040
     11 C         -62.4795  -44.4795  -23.4419 C.ar    1  UNL1        0.0443
     12 N         -63.1116  -40.1616  -20.6808 N.pl3   1  UNL1       -0.3017
     13 C         -61.9639  -40.9366  -20.2004 C.3     1  UNL1        0.1123
     14 C         -61.2835  -41.6357  -21.3790 C.3     1  UNL1        0.1122
     15 N         -62.2609  -42.3326  -22.2323 N.pl3   1  UNL1       -0.3040
     16 C         -63.7016  -42.2024  -21.9668 C.3     1  UNL1        0.1122
     17 C         -64.0586  -40.7475  -21.6391 C.3     1  UNL1        0.1123
     18 C         -64.2612  -38.3924  -19.3981 C.ar    1  UNL1        0.1519
     19 C         -64.3856  -37.0308  -19.0566 C.ar    1  UNL1        0.0390
     20 C         -63.5139  -36.0834  -19.5996 C.ar    1  UNL1        0.0146
     21 C         -62.5101  -36.4800  -20.4860 C.ar    1  UNL1        0.0591
     22 CL        -61.4153  -35.2885  -21.1634 Cl      1  UNL1       -0.0822
     23 C         -62.3804  -37.8265  -20.8349 C.ar    1  UNL1        0.0290
     24 C         -63.2549  -38.7847  -20.3012 C.ar    1  UNL1        0.0832
     25 C         -64.7426  -40.2424  -17.7827 C.3     1  UNL1        0.2525
     26 O         -65.1023  -39.3753  -18.8529 O.3     1  UNL1       -0.4702
     27 C         -61.3450  -45.3835  -28.2818 C.3     1  UNL1        0.1535
     28 C         -62.5183  -44.5353  -27.8503 C.2     1  UNL1        0.2443
     29 O         -63.6571  -45.0580  -27.7052 O.2     1  UNL1       -0.2730
     30 N         -62.3106  -43.1413  -27.5636 N.am    1  UNL1       -0.2825
     31 H         -61.3224  -42.8000  -27.5658 H       1  UNL1        0.1549
     32 C         -63.3312  -42.2133  -27.1463 C.ar    1  UNL1        0.0535
     33 C         -64.3136  -41.8231  -28.0683 C.ar    1  UNL1        0.0353
     34 C         -65.3286  -40.9483  -27.6748 C.ar    1  UNL1        0.1002
     35 N         -65.3741  -40.4874  -26.3976 N.ar    1  UNL1       -0.2422
     36 C         -64.4485  -40.8584  -25.4748 C.ar    1  UNL1        0.1002
     37 C         -63.4146  -41.7298  -25.8273 C.ar    1  UNL1        0.0353
     38 C         -60.1014  -44.5387  -28.6360 C.3     1  UNL1        0.0569
     39 C         -59.8271  -44.5500  -30.1145 C.ar    1  UNL1       -0.0017
     40 C         -58.7134  -45.1015  -30.7428 C.ar    1  UNL1        0.0681
     41 N         -58.7868  -44.9208  -32.0807 N.ar    1  UNL1       -0.3523
     42 C         -59.9378  -44.2640  -32.3045 C.ar    1  UNL1        0.0563
     43 C         -60.4496  -43.8560  -33.5356 C.ar    1  UNL1        0.0170
     44 C         -61.6839  -43.1817  -33.5440 C.ar    1  UNL1        0.0015
     45 C         -62.3728  -42.9361  -32.3361 C.ar    1  UNL1        0.0001
     46 C         -61.8335  -43.3608  -31.1084 C.ar    1  UNL1        0.0012
     47 C         -60.6039  -44.0216  -31.1295 C.ar    1  UNL1        0.0131
     48 H         -58.0886  -45.2314  -32.7924 H       1  UNL1        0.1660
@<TRIPOS>BOND
     1    25    26    1
     2    26    18    1
     3    18    19   ar
     4    19    20   ar
     5    20    21   ar
     6    21    22    1
     7    21    23   ar
     8    23    24   ar
     9    24    12    1
    10    12    13    1
    11    13    14    1
    12    14    15    1
    13    15     5    1
    14     5     6   ar
    15     6     7   ar
    16     7     8   ar
    17     8     1    1
    18     1     2    2
    19     1     3   am
    20     3    27    1
    21    27    38    1
    22    38    39    1
    23    39    40   ar
    24    40    41   ar
    25    41    42   ar
    26    42    43   ar
    27    43    44   ar
    28    44    45   ar
    29    45    46   ar
    30    46    47   ar
    31    27    28    1
    32    28    29    2
    33    28    30   am
    34    30    32    1
    35    32    33   ar
    36    33    34   ar
    37    34    35   ar
    38    35    36   ar
    39    36    37   ar
    40     8     9   ar
    41     9    10    1
    42     9    11   ar
    43    15    16    1
    44    16    17    1
    45    24    18   ar
    46    17    12    1
    47    11     5   ar
    48    47    39   ar
    49    37    32   ar
    50    47    42   ar
    51     3     4    1
    52    41    48    1
    53    30    31    1
@<TRIPOS>MOLECULE
*****
 48 53 0 0 0
SMALL
GASTEIGER

@<TRIPOS>ATOM
      1 C         -60.9781  -46.9072  -27.0979 C.2     1  UNL1        0.2483
      2 O         -60.0799  -47.7905  -27.1128 O.2     1  UNL1       -0.2701
      3 N         -61.7396  -46.6630  -28.2893 N.am    1  UNL1       -0.2945
      4 H         -61.9831  -47.4947  -28.8733 H       1  UNL1        0.1501
      5 C         -61.8077  -44.7726  -23.4673 C.ar    1  UNL1        0.0502
      6 C         -60.6156  -44.5489  -24.1748 C.ar    1  UNL1        0.0148
      7 C         -60.3478  -45.2512  -25.3516 C.ar    1  UNL1        0.0080
      8 C         -61.2658  -46.1896  -25.8433 C.ar    1  UNL1        0.0808
      9 C         -62.4752  -46.3931  -25.1584 C.ar    1  UNL1        0.1457
     10 F         -63.3886  -47.2852  -25.6178 F       1  UNL1       -0.2040
     11 C         -62.7383  -45.6958  -23.9751 C.ar    1  UNL1        0.0443
     12 N         -62.8771  -42.4591  -20.0941 N.pl3   1  UNL1       -0.3017
     13 C         -61.4567  -42.4495  -20.4559 C.3     1  UNL1        0.1123
     14 C         -61.2945  -42.8595  -21.9210 C.3     1  UNL1        0.1122
     15 N         -62.0631  -44.0771  -22.2303 N.pl3   1  UNL1       -0.3040
     16 C         -62.9461  -44.6732  -21.2164 C.3     1  UNL1        0.1122
     17 C         -63.7389  -43.5827  -20.4857 C.3     1  UNL1        0.1123
     18 C         -64.2976  -41.4762  -18.3298 C.ar    1  UNL1        0.1519
     19 C         -64.8658  -40.3356  -17.7280 C.ar    1  UNL1        0.0390
     20 C         -64.5918  -39.0608  -18.2303 C.ar    1  UNL1        0.0146
     21 C         -63.7501  -38.9074  -19.3342 C.ar    1  UNL1        0.0591
     22 CL        -63.4055  -37.3055  -19.9602 Cl      1  UNL1       -0.0822
     23 C         -63.1848  -40.0316  -19.9412 C.ar    1  UNL1        0.0290
     24 C         -63.4592  -41.3163  -19.4494 C.ar    1  UNL1        0.0832
     25 C         -65.8145  -43.2936  -17.5174 C.3     1  UNL1        0.2525
     26 O         -64.5299  -42.7701  -17.8372 O.3     1  UNL1       -0.4702
     27 C         -61.8180  -45.3485  -28.9432 C.3     1  UNL1        0.1535
     28 C         -62.8295  -44.4574  -28.2613 C.2     1  UNL1        0.2443
     29 O         -64.0606  -44.7186  -28.3451 O.2     1  UNL1       -0.2730
     30 N         -62.3695  -43.3402  -27.4809 N.am    1  UNL1       -0.2825
     31 H         -61.3376  -43.2587  -27.3340 H       1  UNL1        0.1549
     32 C         -63.2145  -42.4070  -26.7795 C.ar    1  UNL1        0.0535
     33 C         -63.0590  -42.2580  -25.3934 C.ar    1  UNL1        0.0353
     34 C         -63.8474  -41.3371  -24.7002 C.ar    1  UNL1        0.1002
     35 N         -64.7528  -40.5755  -25.3681 N.ar    1  UNL1       -0.2422
     36 C         -64.9170  -40.6823  -26.7126 C.ar    1  UNL1        0.1002
     37 C         -64.1506  -41.5932  -27.4442 C.ar    1  UNL1        0.0353
     38 C         -60.4238  -44.6917  -29.0468 C.3     1  UNL1        0.0569
     39 C         -59.9552  -44.6094  -30.4732 C.ar    1  UNL1       -0.0017
     40 C         -58.7218  -45.0324  -30.9622 C.ar    1  UNL1        0.0681
     41 N         -58.6325  -44.7956  -32.2903 N.ar    1  UNL1       -0.3523
     42 C         -59.7989  -44.2307  -32.6464 C.ar    1  UNL1        0.0563
     43 C         -60.1775  -43.8105  -33.9207 C.ar    1  UNL1        0.0170
     44 C         -61.4564  -43.2457  -34.0744 C.ar    1  UNL1        0.0015
     45 C         -62.3197  -43.1179  -32.9643 C.ar    1  UNL1        0.0001
     46 C         -61.9120  -43.5520  -31.6900 C.ar    1  UNL1        0.0012
     47 C         -60.6351  -44.1026  -31.5658 C.ar    1  UNL1        0.0131
     48 H         -57.8202  -45.0108  -32.9102 H       1  UNL1        0.1660
@<TRIPOS>BOND
     1    25    26    1
     2    26    18    1
     3    18    19   ar
     4    19    20   ar
     5    20    21   ar
     6    21    22    1
     7    21    23   ar
     8    23    24   ar
     9    24    12    1
    10    12    13    1
    11    13    14    1
    12    14    15    1
    13    15     5    1
    14     5     6   ar
    15     6     7   ar
    16     7     8   ar
    17     8     1    1
    18     1     2    2
    19     1     3   am
    20     3    27    1
    21    27    38    1
    22    38    39    1
    23    39    40   ar
    24    40    41   ar
    25    41    42   ar
    26    42    43   ar
    27    43    44   ar
    28    44    45   ar
    29    45    46   ar
    30    46    47   ar
    31    27    28    1
    32    28    29    2
    33    28    30   am
    34    30    32    1
    35    32    33   ar
    36    33    34   ar
    37    34    35   ar
    38    35    36   ar
    39    36    37   ar
    40     8     9   ar
    41     9    10    1
    42     9    11   ar
    43    15    16    1
    44    16    17    1
    45    24    18   ar
    46    17    12    1
    47    11     5   ar
    48    47    39   ar
    49    37    32   ar
    50    47    42   ar
    51     3     4    1
    52    41    48    1
    53    30    31    1
@<TRIPOS>MOLECULE
*****
 48 53 0 0 0
SMALL
GASTEIGER

@<TRIPOS>ATOM
      1 C         -60.6108  -44.9750  -27.4875 C.2     1  UNL1        0.2483
      2 O         -60.1299  -44.4064  -28.5037 O.2     1  UNL1       -0.2701
      3 N         -60.6407  -46.4087  -27.4360 N.am    1  UNL1       -0.2945
      4 H         -59.8238  -46.9136  -27.8482 H       1  UNL1        0.1501
      5 C         -61.9128  -42.5778  -24.1734 C.ar    1  UNL1        0.0502
      6 C         -60.8902  -43.5268  -24.0145 C.ar    1  UNL1        0.0148
      7 C         -60.4754  -44.3087  -25.0944 C.ar    1  UNL1        0.0080
      8 C         -61.0743  -44.1570  -26.3527 C.ar    1  UNL1        0.0808
      9 C         -62.0743  -43.1858  -26.5261 C.ar    1  UNL1        0.1457
     10 F         -62.6627  -43.0072  -27.7357 F       1  UNL1       -0.2040
     11 C         -62.4952  -42.4096  -25.4417 C.ar    1  UNL1        0.0443
     12 N         -63.1557  -39.9019  -21.1452 N.pl3   1  UNL1       -0.3017
     13 C         -62.0667  -40.8158  -20.7880 C.3     1  UNL1        0.1123
     14 C         -61.3848  -41.3277  -22.0584 C.3     1  UNL1        0.1122
     15 N         -62.3684  -41.8011  -23.0472 N.pl3   1  UNL1       -0.3040
     16 C         -63.8083  -41.6385  -22.7959 C.3     1  UNL1        0.1122
     17 C         -64.0995  -40.2490  -22.2162 C.3     1  UNL1        0.1123
     18 C         -64.1541  -38.3771  -19.4793 C.ar    1  UNL1        0.1519
     19 C         -64.2226  -37.0946  -18.8995 C.ar    1  UNL1        0.0390
     20 C         -63.3853  -36.0701  -19.3488 C.ar    1  UNL1        0.0146
     21 C         -62.4716  -36.3108  -20.3774 C.ar    1  UNL1        0.0591
     22 CL        -61.4197  -35.0234  -20.9368 Cl      1  UNL1       -0.0822
     23 C         -62.3983  -37.5773  -20.9623 C.ar    1  UNL1        0.0290
     24 C         -63.2393  -38.6107  -20.5237 C.ar    1  UNL1        0.0832
     25 C         -64.6740  -40.2530  -17.9063 C.3     1  UNL1        0.2525
     26 O         -64.9613  -39.4370  -19.0368 O.3     1  UNL1       -0.4702
     27 C         -61.8755  -47.1852  -27.2525 C.3     1  UNL1        0.1535
     28 C         -61.9928  -47.7007  -25.8372 C.2     1  UNL1        0.2443
     29 O         -63.1058  -48.1030  -25.4009 O.2     1  UNL1       -0.2730
     30 N         -60.8153  -47.7697  -25.0141 N.am    1  UNL1       -0.2825
     31 H         -59.9021  -47.5556  -25.4759 H       1  UNL1        0.1549
     32 C         -60.7755  -48.2350  -23.6508 C.ar    1  UNL1        0.0535
     33 C         -60.8465  -49.6133  -23.4003 C.ar    1  UNL1        0.0353
     34 C         -60.7791  -50.0861  -22.0880 C.ar    1  UNL1        0.1002
     35 N         -60.6297  -49.2149  -21.0563 N.ar    1  UNL1       -0.2422
     36 C         -60.5405  -47.8753  -21.2647 C.ar    1  UNL1        0.1002
     37 C         -60.6062  -47.3598  -22.5617 C.ar    1  UNL1        0.0353
     38 C         -63.1152  -46.3763  -27.6934 C.3     1  UNL1        0.0569
     39 C         -63.8348  -47.0431  -28.8331 C.ar    1  UNL1       -0.0017
     40 C         -64.0925  -48.4055  -28.9619 C.ar    1  UNL1        0.0681
     41 N         -64.7488  -48.6561  -30.1171 N.ar    1  UNL1       -0.3523
     42 C         -64.9119  -47.4650  -30.7178 C.ar    1  UNL1        0.0563
     43 C         -65.5384  -47.2153  -31.9380 C.ar    1  UNL1        0.0170
     44 C         -65.6045  -45.8828  -32.3832 C.ar    1  UNL1        0.0015
     45 C         -65.0521  -44.8411  -31.6062 C.ar    1  UNL1        0.0001
     46 C         -64.4271  -45.1220  -30.3778 C.ar    1  UNL1        0.0012
     47 C         -64.3704  -46.4541  -29.9641 C.ar    1  UNL1        0.0131
     48 H         -65.0641  -49.5881  -30.4671 H       1  UNL1        0.1660
@<TRIPOS>BOND
     1    25    26    1
     2    26    18    1
     3    18    19   ar
     4    19    20   ar
     5    20    21   ar
     6    21    22    1
     7    21    23   ar
     8    23    24   ar
     9    24    12    1
    10    12    13    1
    11    13    14    1
    12    14    15    1
    13    15     5    1
    14     5     6   ar
    15     6     7   ar
    16     7     8   ar
    17     8     1    1
    18     1     2    2
    19     1     3   am
    20     3    27    1
    21    27    38    1
    22    38    39    1
    23    39    40   ar
    24    40    41   ar
    25    41    42   ar
    26    42    43   ar
    27    43    44   ar
    28    44    45   ar
    29    45    46   ar
    30    46    47   ar
    31    27    28    1
    32    28    29    2
    33    28    30   am
    34    30    32    1
    35    32    33   ar
    36    33    34   ar
    37    34    35   ar
    38    35    36   ar
    39    36    37   ar
    40     8     9   ar
    41     9    10    1
    42     9    11   ar
    43    15    16    1
    44    16    17    1
    45    24    18   ar
    46    17    12    1
    47    11     5   ar
    48    47    39   ar
    49    37    32   ar
    50    47    42   ar
    51     3     4    1
    52    41    48    1
    53    30    31    1
@<TRIPOS>MOLECULE
*****
 48 53 0 0 0
SMALL
GASTEIGER

@<TRIPOS>ATOM
      1 C         -64.9601  -40.5549  -22.3382 C.2     1  UNL1        0.2483
      2 O         -66.1521  -40.1484  -22.3728 O.2     1  UNL1       -0.2701
      3 N         -64.2550  -40.5505  -21.0884 N.am    1  UNL1       -0.2945
      4 H         -64.8046  -40.7987  -20.2349 H       1  UNL1        0.1501
      5 C         -63.1689  -42.1336  -25.9053 C.ar    1  UNL1        0.0502
      6 C         -62.8829  -42.6944  -24.6502 C.ar    1  UNL1        0.0148
      7 C         -63.4632  -42.1724  -23.4923 C.ar    1  UNL1        0.0080
      8 C         -64.3395  -41.0809  -23.5670 C.ar    1  UNL1        0.0808
      9 C         -64.6558  -40.5371  -24.8230 C.ar    1  UNL1        0.1457
     10 F         -65.5111  -39.4889  -24.9275 F       1  UNL1       -0.2040
     11 C         -64.0671  -41.0549  -25.9810 C.ar    1  UNL1        0.0443
     12 N         -61.5736  -43.3038  -29.6418 N.pl3   1  UNL1       -0.3017
     13 C         -62.2648  -44.3496  -28.8821 C.3     1  UNL1        0.1123
     14 C         -63.2089  -43.7087  -27.8629 C.3     1  UNL1        0.1122
     15 N         -62.5361  -42.6473  -27.0948 N.pl3   1  UNL1       -0.3040
     16 C         -61.1625  -42.2454  -27.4333 C.3     1  UNL1        0.1122
     17 C         -60.9912  -42.1437  -28.9538 C.3     1  UNL1        0.1123
     18 C         -62.6936  -42.9718  -31.8171 C.ar    1  UNL1        0.1519
     19 C         -62.6527  -43.0449  -33.2238 C.ar    1  UNL1        0.0390
     20 C         -61.4958  -43.4800  -33.8756 C.ar    1  UNL1        0.0146
     21 C         -60.3689  -43.8455  -33.1359 C.ar    1  UNL1        0.0591
     22 CL        -58.9172  -44.3882  -33.9573 Cl      1  UNL1       -0.0822
     23 C         -60.4000  -43.7810  -31.7408 C.ar    1  UNL1        0.0290
     24 C         -61.5587  -43.3526  -31.0763 C.ar    1  UNL1        0.0832
     25 C         -64.0035  -41.1858  -30.6516 C.3     1  UNL1        0.2525
     26 O         -63.8292  -42.5154  -31.1293 O.3     1  UNL1       -0.4702
     27 C         -62.9907  -39.8308  -20.8763 C.3     1  UNL1        0.1535
     28 C         -63.2385  -38.4075  -20.4347 C.2     1  UNL1        0.2443
     29 O         -62.4367  -37.4930  -20.7689 O.2     1  UNL1       -0.2730
     30 N         -64.4192  -38.1034  -19.6717 N.am    1  UNL1       -0.2825
     31 H         -65.1137  -38.8748  -19.5473 H       1  UNL1        0.1549
     32 C         -64.7839  -36.7980  -19.1820 C.ar    1  UNL1        0.0535
     33 C         -63.9494  -36.1638  -18.2499 C.ar    1  UNL1        0.0353
     34 C         -64.2695  -34.8861  -17.7859 C.ar    1  UNL1        0.1002
     35 N         -65.3785  -34.2513  -18.2474 N.ar    1  UNL1       -0.2422
     36 C         -66.1992  -34.8296  -19.1628 C.ar    1  UNL1        0.1002
     37 C         -65.9173  -36.1081  -19.6512 C.ar    1  UNL1        0.0353
     38 C         -62.0657  -40.5997  -19.9073 C.3     1  UNL1        0.0569
     39 C         -61.4029  -41.7675  -20.5841 C.ar    1  UNL1       -0.0017
     40 C         -60.1267  -41.7826  -21.1414 C.ar    1  UNL1        0.0681
     41 N         -59.8583  -42.9947  -21.6769 N.ar    1  UNL1       -0.3523
     42 C         -60.9507  -43.7470  -21.4601 C.ar    1  UNL1        0.0563
     43 C         -61.1455  -45.0767  -21.8315 C.ar    1  UNL1        0.0170
     44 C         -62.3718  -45.6798  -21.4989 C.ar    1  UNL1        0.0015
     45 C         -63.3634  -44.9498  -20.8076 C.ar    1  UNL1        0.0001
     46 C         -63.1389  -43.6098  -20.4438 C.ar    1  UNL1        0.0012
     47 C         -61.9154  -43.0351  -20.7926 C.ar    1  UNL1        0.0131
     48 H         -58.9784  -43.2837  -22.1594 H       1  UNL1        0.1660
@<TRIPOS>BOND
     1    25    26    1
     2    26    18    1
     3    18    19   ar
     4    19    20   ar
     5    20    21   ar
     6    21    22    1
     7    21    23   ar
     8    23    24   ar
     9    24    12    1
    10    12    13    1
    11    13    14    1
    12    14    15    1
    13    15     5    1
    14     5     6   ar
    15     6     7   ar
    16     7     8   ar
    17     8     1    1
    18     1     2    2
    19     1     3   am
    20     3    27    1
    21    27    38    1
    22    38    39    1
    23    39    40   ar
    24    40    41   ar
    25    41    42   ar
    26    42    43   ar
    27    43    44   ar
    28    44    45   ar
    29    45    46   ar
    30    46    47   ar
    31    27    28    1
    32    28    29    2
    33    28    30   am
    34    30    32    1
    35    32    33   ar
    36    33    34   ar
    37    34    35   ar
    38    35    36   ar
    39    36    37   ar
    40     8     9   ar
    41     9    10    1
    42     9    11   ar
    43    15    16    1
    44    16    17    1
    45    24    18   ar
    46    17    12    1
    47    11     5   ar
    48    47    39   ar
    49    37    32   ar
    50    47    42   ar
    51     3     4    1
    52    41    48    1
    53    30    31    1
@<TRIPOS>MOLECULE
*****
 48 53 0 0 0
SMALL
GASTEIGER

@<TRIPOS>ATOM
      1 C         -64.5357  -41.7479  -21.7935 C.2     1  UNL1        0.2483
      2 O         -65.7403  -41.4796  -21.5401 O.2     1  UNL1       -0.2701
      3 N         -63.6379  -42.0277  -20.7096 N.am    1  UNL1       -0.2945
      4 H         -64.0245  -42.5688  -19.9034 H       1  UNL1        0.1501
      5 C         -63.2608  -42.0282  -25.8827 C.ar    1  UNL1        0.0502
      6 C         -62.8470  -42.9785  -24.9353 C.ar    1  UNL1        0.0148
      7 C         -63.2592  -42.8785  -23.6050 C.ar    1  UNL1        0.0080
      8 C         -64.0922  -41.8276  -23.1966 C.ar    1  UNL1        0.0808
      9 C         -64.5369  -40.8932  -24.1465 C.ar    1  UNL1        0.1457
     10 F         -65.3546  -39.8731  -23.7831 F       1  UNL1       -0.2040
     11 C         -64.1161  -40.9892  -25.4767 C.ar    1  UNL1        0.0443
     12 N         -61.7339  -42.7119  -29.7654 N.pl3   1  UNL1       -0.3017
     13 C         -61.2282  -41.5211  -29.0765 C.3     1  UNL1        0.1123
     14 C         -61.4306  -41.6728  -27.5675 C.3     1  UNL1        0.1122
     15 N         -62.8000  -42.1097  -27.2465 N.pl3   1  UNL1       -0.3040
     16 C         -63.7397  -42.4531  -28.3245 C.3     1  UNL1        0.1122
     17 C         -63.0379  -43.2847  -29.4050 C.3     1  UNL1        0.1123
     18 C         -59.8984  -44.2763  -30.2949 C.ar    1  UNL1        0.1519
     19 C         -59.0928  -44.9165  -31.2578 C.ar    1  UNL1        0.0390
     20 C         -59.2992  -44.6833  -32.6200 C.ar    1  UNL1        0.0146
     21 C         -60.3083  -43.8129  -33.0380 C.ar    1  UNL1        0.0591
     22 CL        -60.5669  -43.5249  -34.7488 Cl      1  UNL1       -0.0822
     23 C         -61.1100  -43.1696  -32.0919 C.ar    1  UNL1        0.0290
     24 C         -60.9064  -43.3910  -30.7218 C.ar    1  UNL1        0.0832
     25 C         -60.2122  -45.6581  -28.2319 C.3     1  UNL1        0.2525
     26 O         -59.7368  -44.5057  -28.9194 O.3     1  UNL1       -0.4702
     27 C         -62.4032  -41.2677  -20.4662 C.3     1  UNL1        0.1535
     28 C         -61.1792  -42.1144  -20.7251 C.2     1  UNL1        0.2443
     29 O         -60.0759  -41.8100  -20.1950 O.2     1  UNL1       -0.2730
     30 N         -61.2988  -43.2921  -21.5420 N.am    1  UNL1       -0.2825
     31 H         -62.2634  -43.5682  -21.8356 H       1  UNL1        0.1549
     32 C         -60.2221  -44.1901  -21.8755 C.ar    1  UNL1        0.0535
     33 C         -60.4408  -45.5733  -21.7955 C.ar    1  UNL1        0.0353
     34 C         -59.4196  -46.4602  -22.1435 C.ar    1  UNL1        0.1002
     35 N         -58.2215  -45.9855  -22.5733 N.ar    1  UNL1       -0.2422
     36 C         -57.9817  -44.6523  -22.6788 C.ar    1  UNL1        0.1002
     37 C         -58.9750  -43.7304  -22.3382 C.ar    1  UNL1        0.0353
     38 C         -62.3917  -39.9480  -21.2687 C.3     1  UNL1        0.0569
     39 C         -63.0136  -38.8214  -20.4907 C.ar    1  UNL1       -0.0017
     40 C         -64.0821  -38.9228  -19.6034 C.ar    1  UNL1        0.0681
     41 N         -64.3890  -37.7096  -19.0914 N.ar    1  UNL1       -0.3523
     42 C         -63.5225  -36.8432  -19.6433 C.ar    1  UNL1        0.0563
     43 C         -63.4461  -35.4693  -19.4187 C.ar    1  UNL1        0.0170
     44 C         -62.4522  -34.7453  -20.1014 C.ar    1  UNL1        0.0015
     45 C         -61.5647  -35.4036  -20.9807 C.ar    1  UNL1        0.0001
     46 C         -61.6638  -36.7914  -21.1869 C.ar    1  UNL1        0.0012
     47 C         -62.6639  -37.4833  -20.5013 C.ar    1  UNL1        0.0131
     48 H         -65.1463  -37.4944  -18.4053 H       1  UNL1        0.1660
@<TRIPOS>BOND
     1    25    26    1
     2    26    18    1
     3    18    19   ar
     4    19    20   ar
     5    20    21   ar
     6    21    22    1
     7    21    23   ar
     8    23    24   ar
     9    24    12    1
    10    12    13    1
    11    13    14    1
    12    14    15    1
    13    15     5    1
    14     5     6   ar
    15     6     7   ar
    16     7     8   ar
    17     8     1    1
    18     1     2    2
    19     1     3   am
    20     3    27    1
    21    27    38    1
    22    38    39    1
    23    39    40   ar
    24    40    41   ar
    25    41    42   ar
    26    42    43   ar
    27    43    44   ar
    28    44    45   ar
    29    45    46   ar
    30    46    47   ar
    31    27    28    1
    32    28    29    2
    33    28    30   am
    34    30    32    1
    35    32    33   ar
    36    33    34   ar
    37    34    35   ar
    38    35    36   ar
    39    36    37   ar
    40     8     9   ar
    41     9    10    1
    42     9    11   ar
    43    15    16    1
    44    16    17    1
    45    24    18   ar
    46    17    12    1
    47    11     5   ar
    48    47    39   ar
    49    37    32   ar
    50    47    42   ar
    51     3     4    1
    52    41    48    1
    53    30    31    1
@<TRIPOS>MOLECULE
*****
 48 53 0 0 0
SMALL
GASTEIGER

@<TRIPOS>ATOM
      1 C         -60.5389  -45.3527  -27.0363 C.2     1  UNL1        0.2483
      2 O         -60.0660  -44.8193  -28.0751 O.2     1  UNL1       -0.2701
      3 N         -60.5668  -46.7837  -26.9348 N.am    1  UNL1       -0.2945
      4 H         -59.7523  -47.3019  -27.3352 H       1  UNL1        0.1501
      5 C         -61.9164  -42.8672  -23.8190 C.ar    1  UNL1        0.0502
      6 C         -62.3620  -42.6523  -25.1332 C.ar    1  UNL1        0.0148
      7 C         -61.9052  -43.4596  -26.1769 C.ar    1  UNL1        0.0080
      8 C         -60.9951  -44.4961  -25.9272 C.ar    1  UNL1        0.0808
      9 C         -60.5719  -44.7375  -24.6098 C.ar    1  UNL1        0.1457
     10 F         -59.7018  -45.7422  -24.3359 F       1  UNL1       -0.2040
     11 C         -61.0229  -43.9228  -23.5666 C.ar    1  UNL1        0.0443
     12 N         -63.1254  -39.9665  -20.9907 N.pl3   1  UNL1       -0.3017
     13 C         -62.0186  -40.8377  -20.5849 C.3     1  UNL1        0.1123
     14 C         -61.3580  -41.4443  -21.8245 C.3     1  UNL1        0.1122
     15 N         -62.3568  -42.0061  -22.7497 N.pl3   1  UNL1       -0.3040
     16 C         -63.7929  -41.8378  -22.4806 C.3     1  UNL1        0.1122
     17 C         -64.0877  -40.4087  -22.0090 C.3     1  UNL1        0.1123
     18 C         -64.1629  -38.3025  -19.4903 C.ar    1  UNL1        0.1519
     19 C         -64.2316  -36.9780  -19.0139 C.ar    1  UNL1        0.0390
     20 C         -63.3580  -36.0042  -19.5048 C.ar    1  UNL1        0.0146
     21 C         -62.4077  -36.3375  -20.4725 C.ar    1  UNL1        0.0591
     22 CL        -61.3104  -35.1133  -21.0842 Cl      1  UNL1       -0.0822
     23 C         -62.3337  -37.6464  -20.9549 C.ar    1  UNL1        0.0290
     24 C         -63.2107  -38.6300  -20.4742 C.ar    1  UNL1        0.0832
     25 C         -64.6723  -40.2018  -17.9419 C.3     1  UNL1        0.2525
     26 O         -65.0069  -39.3127  -19.0022 O.3     1  UNL1       -0.4702
     27 C         -61.7994  -47.5545  -26.7155 C.3     1  UNL1        0.1535
     28 C         -61.7474  -48.3098  -25.4082 C.2     1  UNL1        0.2443
     29 O         -62.0366  -47.7257  -24.3284 O.2     1  UNL1       -0.2730
     30 N         -61.4110  -49.7082  -25.4170 N.am    1  UNL1       -0.2825
     31 H         -61.3201  -50.1671  -26.3519 H       1  UNL1        0.1549
     32 C         -61.3207  -50.5528  -24.2527 C.ar    1  UNL1        0.0535
     33 C         -62.5022  -51.0186  -23.6572 C.ar    1  UNL1        0.0353
     34 C         -62.4354  -51.8625  -22.5465 C.ar    1  UNL1        0.1002
     35 N         -61.2290  -52.2446  -22.0523 N.ar    1  UNL1       -0.2422
     36 C         -60.0654  -51.8258  -22.6151 C.ar    1  UNL1        0.1002
     37 C         -60.0870  -50.9784  -23.7259 C.ar    1  UNL1        0.0353
     38 C         -63.0494  -46.6545  -26.8308 C.3     1  UNL1        0.0569
     39 C         -63.6833  -46.7590  -28.1904 C.ar    1  UNL1       -0.0017
     40 C         -63.9029  -47.9305  -28.9105 C.ar    1  UNL1        0.0681
     41 N         -64.4819  -47.6534  -30.1005 N.ar    1  UNL1       -0.3523
     42 C         -64.6340  -46.3185  -30.1378 C.ar    1  UNL1        0.0563
     43 C         -65.1902  -45.5623  -31.1687 C.ar    1  UNL1        0.0170
     44 C         -65.2580  -44.1678  -30.9988 C.ar    1  UNL1        0.0015
     45 C         -64.7769  -43.5674  -29.8148 C.ar    1  UNL1        0.0001
     46 C         -64.2221  -44.3553  -28.7902 C.ar    1  UNL1        0.0012
     47 C         -64.1616  -45.7359  -28.9887 C.ar    1  UNL1        0.0131
     48 H         -64.7549  -48.3407  -30.8377 H       1  UNL1        0.1660
@<TRIPOS>BOND
     1    25    26    1
     2    26    18    1
     3    18    19   ar
     4    19    20   ar
     5    20    21   ar
     6    21    22    1
     7    21    23   ar
     8    23    24   ar
     9    24    12    1
    10    12    13    1
    11    13    14    1
    12    14    15    1
    13    15     5    1
    14     5     6   ar
    15     6     7   ar
    16     7     8   ar
    17     8     1    1
    18     1     2    2
    19     1     3   am
    20     3    27    1
    21    27    38    1
    22    38    39    1
    23    39    40   ar
    24    40    41   ar
    25    41    42   ar
    26    42    43   ar
    27    43    44   ar
    28    44    45   ar
    29    45    46   ar
    30    46    47   ar
    31    27    28    1
    32    28    29    2
    33    28    30   am
    34    30    32    1
    35    32    33   ar
    36    33    34   ar
    37    34    35   ar
    38    35    36   ar
    39    36    37   ar
    40     8     9   ar
    41     9    10    1
    42     9    11   ar
    43    15    16    1
    44    16    17    1
    45    24    18   ar
    46    17    12    1
    47    11     5   ar
    48    47    39   ar
    49    37    32   ar
    50    47    42   ar
    51     3     4    1
    52    41    48    1
    53    30    31    1
