@<TRIPOS>MOLECULE
*****
 51 56 0 0 0
SMALL
GASTEIGER

@<TRIPOS>ATOM
      1 C         -65.9690  -55.3015  -21.8777 C.3     1  UNL1        0.1535
      2 O         -63.2625  -54.5979  -22.4094 O.2     1  UNL1       -0.2701
      3 C         -64.1448  -53.7548  -22.7296 C.2     1  UNL1        0.2483
      4 N         -65.5263  -54.0236  -22.4452 N.am    1  UNL1       -0.2945
      5 H         -66.2138  -53.2398  -22.5196 H       1  UNL1        0.1501
      6 C         -63.7357  -52.4794  -23.3568 C.ar    1  UNL1        0.0808
      7 C         -64.5407  -51.9083  -24.3548 C.ar    1  UNL1        0.0080
      8 C         -64.1676  -50.7113  -24.9704 C.ar    1  UNL1        0.0148
      9 C         -62.9839  -50.0521  -24.5948 C.ar    1  UNL1        0.0502
     10 C         -62.1896  -50.6142  -23.5799 C.ar    1  UNL1        0.0443
     11 C         -62.5593  -51.8139  -22.9639 C.ar    1  UNL1        0.1457
     12 F         -61.7883  -52.2943  -21.9555 F       1  UNL1       -0.2040
     13 N         -62.5978  -48.8120  -25.2291 N.pl3   1  UNL1       -0.3040
     14 C         -61.5549  -47.9674  -24.6287 C.3     1  UNL1        0.1122
     15 C         -61.7985  -46.4899  -24.9509 C.3     1  UNL1        0.1122
     16 N         -61.9999  -46.2764  -26.3927 N.pl3   1  UNL1       -0.3040
     17 C         -62.3231  -47.4151  -27.2646 C.3     1  UNL1        0.1122
     18 C         -63.1887  -48.4393  -26.5240 C.3     1  UNL1        0.1122
     19 C         -61.7937  -44.9623  -26.9582 C.ar    1  UNL1        0.0488
     20 C         -60.6938  -44.7100  -27.7979 C.ar    1  UNL1        0.0154
     21 C         -60.4958  -43.4404  -28.3462 C.ar    1  UNL1        0.0135
     22 C         -61.3914  -42.4035  -28.0688 C.ar    1  UNL1        0.0683
     23 CL        -61.1076  -40.8196  -28.7782 Cl      1  UNL1       -0.0814
     24 C         -62.4957  -42.6417  -27.2351 C.ar    1  UNL1        0.0694
     25 CL        -63.6501  -41.3674  -26.8665 Cl      1  UNL1       -0.0813
     26 C         -62.6928  -43.9141  -26.6857 C.ar    1  UNL1        0.0268
     27 C         -67.1122  -55.0679  -20.9276 C.2     1  UNL1        0.2443
     28 O         -67.6534  -53.9296  -20.8818 O.2     1  UNL1       -0.2730
     29 N         -67.5887  -56.1330  -20.0901 N.am    1  UNL1       -0.2823
     30 H         -67.1527  -57.0779  -20.1813 H       1  UNL1        0.1549
     31 C         -68.7007  -55.9820  -19.1949 C.ar    1  UNL1        0.0597
     32 C         -70.0065  -56.1074  -19.6917 C.ar    1  UNL1        0.0356
     33 C         -71.0931  -55.8792  -18.8501 C.ar    1  UNL1        0.1002
     34 N         -70.8887  -55.5275  -17.5559 N.ar    1  UNL1       -0.2420
     35 C         -69.6395  -55.3931  -17.0393 C.ar    1  UNL1        0.1065
     36 C         -68.5054  -55.6232  -17.8383 C.ar    1  UNL1        0.1080
     37 C         -67.1592  -55.5219  -17.2215 C.2     1  UNL1        0.3408
     38 O         -67.0099  -55.0371  -16.0677 O.2     1  UNL1       -0.2450
     39 O         -66.0354  -55.9336  -17.9336 O.3     1  UNL1       -0.4770
     40 H         -65.1086  -55.8594  -17.5312 H       1  UNL1        0.2954
     41 C         -66.3983  -56.2769  -22.9870 C.3     1  UNL1        0.0569
     42 C         -67.3236  -55.6120  -23.9649 C.ar    1  UNL1       -0.0017
     43 C         -66.9572  -54.9206  -25.1161 C.ar    1  UNL1        0.0681
     44 N         -68.0557  -54.5278  -25.8005 N.ar    1  UNL1       -0.3523
     45 C         -69.1110  -54.9739  -25.0972 C.ar    1  UNL1        0.0563
     46 C         -70.4607  -54.8308  -25.4160 C.ar    1  UNL1        0.0170
     47 C         -71.4064  -55.3987  -24.5426 C.ar    1  UNL1        0.0015
     48 C         -70.9866  -56.0917  -23.3854 C.ar    1  UNL1        0.0001
     49 C         -69.6174  -56.2224  -23.0900 C.ar    1  UNL1        0.0012
     50 C         -68.7041  -55.6445  -23.9722 C.ar    1  UNL1        0.0131
     51 H         -68.0750  -53.9995  -26.7011 H       1  UNL1        0.1660
@<TRIPOS>BOND
     1     2     3    2
     2     3     4   am
     3     4     1    1
     4     1    41    1
     5    41    42    1
     6    42    43   ar
     7    43    44   ar
     8    44    45   ar
     9    45    46   ar
    10    46    47   ar
    11    47    48   ar
    12    48    49   ar
    13    49    50   ar
    14     1    27    1
    15    27    28    2
    16    27    29   am
    17    29    31    1
    18    31    32   ar
    19    32    33   ar
    20    33    34   ar
    21    34    35   ar
    22    35    36   ar
    23    36    37    1
    24    37    38    2
    25    37    39    1
    26     3     6    1
    27     6     7   ar
    28     7     8   ar
    29     8     9   ar
    30     9    13    1
    31    13    14    1
    32    14    15    1
    33    15    16    1
    34    16    19    1
    35    19    20   ar
    36    20    21   ar
    37    21    22   ar
    38    22    23    1
    39    22    24   ar
    40    24    25    1
    41    24    26   ar
    42    16    17    1
    43    17    18    1
    44     9    10   ar
    45    10    11   ar
    46    11    12    1
    47    50    42   ar
    48    36    31   ar
    49    11     6   ar
    50    50    45   ar
    51    18    13    1
    52    26    19   ar
    53     4     5    1
    54    44    51    1
    55    29    30    1
    56    39    40    1
@<TRIPOS>MOLECULE
*****
 51 56 0 0 0
SMALL
GASTEIGER

@<TRIPOS>ATOM
      1 C         -62.9738  -40.4550  -18.8907 C.3     1  UNL1        0.1535
      2 O         -60.9252  -42.0640  -20.0385 O.2     1  UNL1       -0.2701
      3 C         -61.7970  -41.6030  -20.8254 C.2     1  UNL1        0.2483
      4 N         -62.8310  -40.7435  -20.3215 N.am    1  UNL1       -0.2945
      5 H         -63.4108  -40.2053  -21.0047 H       1  UNL1        0.1501
      6 C         -61.7143  -41.9224  -22.2671 C.ar    1  UNL1        0.0808
      7 C         -60.4644  -42.1909  -22.8467 C.ar    1  UNL1        0.0080
      8 C         -60.3606  -42.4820  -24.2089 C.ar    1  UNL1        0.0148
      9 C         -61.5070  -42.5208  -25.0218 C.ar    1  UNL1        0.0502
     10 C         -62.7606  -42.2728  -24.4354 C.ar    1  UNL1        0.0443
     11 C         -62.8672  -41.9783  -23.0725 C.ar    1  UNL1        0.1457
     12 F         -64.1017  -41.7941  -22.5394 F       1  UNL1       -0.2040
     13 N         -61.4014  -42.8244  -26.4311 N.pl3   1  UNL1       -0.3040
     14 C         -61.2036  -44.2116  -26.8761 C.3     1  UNL1        0.1122
     15 C         -60.4102  -44.2554  -28.1857 C.3     1  UNL1        0.1122
     16 N         -60.9949  -43.3670  -29.2025 N.pl3   1  UNL1       -0.3040
     17 C         -61.9427  -42.3171  -28.8016 C.3     1  UNL1        0.1122
     18 C         -61.5801  -41.7535  -27.4241 C.3     1  UNL1        0.1122
     19 C         -60.7009  -43.5869  -30.6005 C.ar    1  UNL1        0.0488
     20 C         -59.4777  -44.1605  -30.9921 C.ar    1  UNL1        0.0154
     21 C         -59.1946  -44.3750  -32.3433 C.ar    1  UNL1        0.0135
     22 C         -60.1262  -44.0242  -33.3247 C.ar    1  UNL1        0.0683
     23 CL        -59.7325  -44.3102  -35.0146 Cl      1  UNL1       -0.0814
     24 C         -61.3527  -43.4540  -32.9483 C.ar    1  UNL1        0.0694
     25 CL        -62.5553  -43.0048  -34.1503 Cl      1  UNL1       -0.0813
     26 C         -61.6352  -43.2388  -31.5942 C.ar    1  UNL1        0.0268
     27 C         -63.6138  -39.1060  -18.7046 C.2     1  UNL1        0.2443
     28 O         -64.3361  -38.9004  -17.6914 O.2     1  UNL1       -0.2730
     29 N         -63.3953  -38.0606  -19.6652 N.am    1  UNL1       -0.2823
     30 H         -62.7558  -38.2435  -20.4707 H       1  UNL1        0.1549
     31 C         -63.9450  -36.7425  -19.5204 C.ar    1  UNL1        0.0597
     32 C         -65.2411  -36.5898  -19.0062 C.ar    1  UNL1        0.0356
     33 C         -65.8159  -35.3222  -18.9408 C.ar    1  UNL1        0.1002
     34 N         -65.1273  -34.2398  -19.3820 N.ar    1  UNL1       -0.2420
     35 C         -63.8716  -34.3480  -19.8892 C.ar    1  UNL1        0.1065
     36 C         -63.2365  -35.6002  -19.9680 C.ar    1  UNL1        0.1080
     37 C         -61.8432  -35.6686  -20.4751 C.2     1  UNL1        0.3408
     38 O         -61.0715  -34.6760  -20.3855 O.2     1  UNL1       -0.2450
     39 O         -61.3839  -36.8298  -21.0914 O.3     1  UNL1       -0.4770
     40 H         -60.4395  -36.8879  -21.4537 H       1  UNL1        0.2954
     41 C         -63.8155  -41.5370  -18.1927 C.3     1  UNL1        0.0569
     42 C         -64.9025  -42.0443  -19.0957 C.ar    1  UNL1       -0.0017
     43 C         -66.0409  -41.3502  -19.4953 C.ar    1  UNL1        0.0681
     44 N         -66.7569  -42.0853  -20.3766 N.ar    1  UNL1       -0.3523
     45 C         -66.0754  -43.2320  -20.5441 C.ar    1  UNL1        0.0563
     46 C         -66.4090  -44.2995  -21.3764 C.ar    1  UNL1        0.0170
     47 C         -65.5352  -45.4016  -21.4144 C.ar    1  UNL1        0.0015
     48 C         -64.3595  -45.4104  -20.6312 C.ar    1  UNL1        0.0001
     49 C         -64.0471  -44.3178  -19.8019 C.ar    1  UNL1        0.0012
     50 C         -64.9353  -43.2421  -19.7819 C.ar    1  UNL1        0.0131
     51 H         -67.6492  -41.8074  -20.8425 H       1  UNL1        0.1660
@<TRIPOS>BOND
     1     2     3    2
     2     3     4   am
     3     4     1    1
     4     1    41    1
     5    41    42    1
     6    42    43   ar
     7    43    44   ar
     8    44    45   ar
     9    45    46   ar
    10    46    47   ar
    11    47    48   ar
    12    48    49   ar
    13    49    50   ar
    14     1    27    1
    15    27    28    2
    16    27    29   am
    17    29    31    1
    18    31    32   ar
    19    32    33   ar
    20    33    34   ar
    21    34    35   ar
    22    35    36   ar
    23    36    37    1
    24    37    38    2
    25    37    39    1
    26     3     6    1
    27     6     7   ar
    28     7     8   ar
    29     8     9   ar
    30     9    13    1
    31    13    14    1
    32    14    15    1
    33    15    16    1
    34    16    19    1
    35    19    20   ar
    36    20    21   ar
    37    21    22   ar
    38    22    23    1
    39    22    24   ar
    40    24    25    1
    41    24    26   ar
    42    16    17    1
    43    17    18    1
    44     9    10   ar
    45    10    11   ar
    46    11    12    1
    47    50    42   ar
    48    36    31   ar
    49    11     6   ar
    50    50    45   ar
    51    18    13    1
    52    26    19   ar
    53     4     5    1
    54    44    51    1
    55    29    30    1
    56    39    40    1
@<TRIPOS>MOLECULE
*****
 51 56 0 0 0
SMALL
GASTEIGER

@<TRIPOS>ATOM
      1 C         -62.5805  -47.8260  -27.1452 C.3     1  UNL1        0.1535
      2 O         -60.8654  -46.8854  -25.0772 O.2     1  UNL1       -0.2701
      3 C         -61.9271  -46.2341  -25.2785 C.2     1  UNL1        0.2483
      4 N         -62.8614  -46.6809  -26.2729 N.am    1  UNL1       -0.2945
      5 H         -63.8194  -46.2629  -26.2825 H       1  UNL1        0.1501
      6 C         -62.2129  -45.0401  -24.4539 C.ar    1  UNL1        0.0808
      7 C         -62.3064  -45.1674  -23.0591 C.ar    1  UNL1        0.0080
      8 C         -62.5886  -44.0561  -22.2614 C.ar    1  UNL1        0.0148
      9 C         -62.7744  -42.7884  -22.8401 C.ar    1  UNL1        0.0502
     10 C         -62.6591  -42.6584  -24.2354 C.ar    1  UNL1        0.0443
     11 C         -62.3795  -43.7699  -25.0367 C.ar    1  UNL1        0.1457
     12 F         -62.2287  -43.5891  -26.3734 F       1  UNL1       -0.2040
     13 N         -63.0639  -41.6370  -22.0156 N.pl3   1  UNL1       -0.3040
     14 C         -64.3158  -41.5732  -21.2475 C.3     1  UNL1        0.1122
     15 C         -64.7781  -40.1225  -21.0796 C.3     1  UNL1        0.1122
     16 N         -63.6997  -39.2677  -20.5586 N.pl3   1  UNL1       -0.3040
     17 C         -62.3049  -39.7281  -20.6192 C.3     1  UNL1        0.1122
     18 C         -62.0628  -40.5676  -21.8776 C.3     1  UNL1        0.1122
     19 C         -64.0259  -38.0172  -19.9114 C.ar    1  UNL1        0.0488
     20 C         -65.3626  -37.6911  -19.6188 C.ar    1  UNL1        0.0154
     21 C         -65.6775  -36.4833  -18.9913 C.ar    1  UNL1        0.0135
     22 C         -64.6662  -35.5831  -18.6432 C.ar    1  UNL1        0.0683
     23 CL        -65.1034  -34.0734  -17.8545 Cl      1  UNL1       -0.0814
     24 C         -63.3273  -35.8969  -18.9260 C.ar    1  UNL1        0.0694
     25 CL        -62.0241  -34.7961  -18.4986 Cl      1  UNL1       -0.0813
     26 C         -63.0127  -37.1071  -19.5554 C.ar    1  UNL1        0.0268
     27 C         -62.9363  -49.1050  -26.4370 C.2     1  UNL1        0.2443
     28 O         -63.6878  -49.9394  -27.0110 O.2     1  UNL1       -0.2730
     29 N         -62.4166  -49.3771  -25.1259 N.am    1  UNL1       -0.2823
     30 H         -61.7597  -48.6899  -24.6928 H       1  UNL1        0.1549
     31 C         -62.6873  -50.5964  -24.4183 C.ar    1  UNL1        0.0597
     32 C         -63.9212  -51.2383  -24.5999 C.ar    1  UNL1        0.0356
     33 C         -64.2273  -52.3751  -23.8547 C.ar    1  UNL1        0.1002
     34 N         -63.3381  -52.8544  -22.9492 N.ar    1  UNL1       -0.2420
     35 C         -62.1347  -52.2586  -22.7430 C.ar    1  UNL1        0.1065
     36 C         -61.7665  -51.1159  -23.4753 C.ar    1  UNL1        0.1080
     37 C         -60.4202  -50.5285  -23.2616 C.2     1  UNL1        0.3408
     38 O         -59.4419  -51.2524  -22.9337 O.2     1  UNL1       -0.2450
     39 O         -60.2330  -49.1544  -23.3888 O.3     1  UNL1       -0.4770
     40 H         -59.3231  -48.7367  -23.2341 H       1  UNL1        0.2954
     41 C         -63.3659  -47.7190  -28.4636 C.3     1  UNL1        0.0569
     42 C         -63.5305  -46.2863  -28.8814 C.ar    1  UNL1       -0.0017
     43 C         -64.7277  -45.5833  -28.9821 C.ar    1  UNL1        0.0681
     44 N         -64.4908  -44.2914  -29.3051 N.ar    1  UNL1       -0.3523
     45 C         -63.1551  -44.1708  -29.3990 C.ar    1  UNL1        0.0563
     46 C         -62.4292  -43.0170  -29.6917 C.ar    1  UNL1        0.0170
     47 C         -61.0257  -43.1124  -29.7183 C.ar    1  UNL1        0.0015
     48 C         -60.3866  -44.3436  -29.4515 C.ar    1  UNL1        0.0001
     49 C         -61.1448  -45.4913  -29.1568 C.ar    1  UNL1        0.0012
     50 C         -62.5342  -45.3665  -29.1427 C.ar    1  UNL1        0.0131
     51 H         -65.2034  -43.5396  -29.4375 H       1  UNL1        0.1660
@<TRIPOS>BOND
     1     2     3    2
     2     3     4   am
     3     4     1    1
     4     1    41    1
     5    41    42    1
     6    42    43   ar
     7    43    44   ar
     8    44    45   ar
     9    45    46   ar
    10    46    47   ar
    11    47    48   ar
    12    48    49   ar
    13    49    50   ar
    14     1    27    1
    15    27    28    2
    16    27    29   am
    17    29    31    1
    18    31    32   ar
    19    32    33   ar
    20    33    34   ar
    21    34    35   ar
    22    35    36   ar
    23    36    37    1
    24    37    38    2
    25    37    39    1
    26     3     6    1
    27     6     7   ar
    28     7     8   ar
    29     8     9   ar
    30     9    13    1
    31    13    14    1
    32    14    15    1
    33    15    16    1
    34    16    19    1
    35    19    20   ar
    36    20    21   ar
    37    21    22   ar
    38    22    23    1
    39    22    24   ar
    40    24    25    1
    41    24    26   ar
    42    16    17    1
    43    17    18    1
    44     9    10   ar
    45    10    11   ar
    46    11    12    1
    47    50    42   ar
    48    36    31   ar
    49    11     6   ar
    50    50    45   ar
    51    18    13    1
    52    26    19   ar
    53     4     5    1
    54    44    51    1
    55    29    30    1
    56    39    40    1
@<TRIPOS>MOLECULE
*****
 51 56 0 0 0
SMALL
GASTEIGER

@<TRIPOS>ATOM
      1 C         -66.5901  -56.3339  -21.3752 C.3     1  UNL1        0.1535
      2 O         -63.8411  -55.7644  -21.8463 O.2     1  UNL1       -0.2701
      3 C         -64.6739  -54.8807  -22.1890 C.2     1  UNL1        0.2483
      4 N         -66.0729  -55.0812  -21.9357 N.am    1  UNL1       -0.2945
      5 H         -66.7197  -54.2652  -22.0279 H       1  UNL1        0.1501
      6 C         -64.1890  -53.6290  -22.8098 C.ar    1  UNL1        0.0808
      7 C         -63.0427  -53.0006  -22.2985 C.ar    1  UNL1        0.0080
      8 C         -62.5741  -51.8108  -22.8604 C.ar    1  UNL1        0.0148
      9 C         -63.2365  -51.2263  -23.9541 C.ar    1  UNL1        0.0502
     10 C         -64.3721  -51.8683  -24.4788 C.ar    1  UNL1        0.0443
     11 C         -64.8450  -53.0581  -23.9165 C.ar    1  UNL1        0.1457
     12 F         -65.9151  -53.6687  -24.4859 F       1  UNL1       -0.2040
     13 N         -62.7512  -49.9964  -24.5383 N.pl3   1  UNL1       -0.3040
     14 C         -61.3818  -49.5371  -24.2639 C.3     1  UNL1        0.1122
     15 C         -61.3023  -48.0079  -24.3037 C.3     1  UNL1        0.1122
     16 N         -61.8898  -47.4675  -25.5398 N.pl3   1  UNL1       -0.3040
     17 C         -62.7743  -48.3079  -26.3599 C.3     1  UNL1        0.1122
     18 C         -63.6012  -49.2497  -25.4789 C.3     1  UNL1        0.1122
     19 C         -61.5254  -46.1420  -25.9865 C.ar    1  UNL1        0.0488
     20 C         -61.5309  -45.8227  -27.3564 C.ar    1  UNL1        0.0154
     21 C         -61.1807  -44.5409  -27.7878 C.ar    1  UNL1        0.0135
     22 C         -60.8223  -43.5570  -26.8618 C.ar    1  UNL1        0.0683
     23 CL        -60.3880  -41.9558  -27.4446 Cl      1  UNL1       -0.0814
     24 C         -60.8156  -43.8605  -25.4910 C.ar    1  UNL1        0.0694
     25 CL        -60.3781  -42.6503  -24.2924 Cl      1  UNL1       -0.0813
     26 C         -61.1661  -45.1454  -25.0596 C.ar    1  UNL1        0.0268
     27 C         -67.2425  -56.0661  -20.0461 C.2     1  UNL1        0.2443
     28 O         -66.5207  -55.7938  -19.0484 O.2     1  UNL1       -0.2730
     29 N         -68.6725  -56.1094  -19.9180 N.am    1  UNL1       -0.2823
     30 H         -69.2484  -56.2921  -20.7702 H       1  UNL1        0.1549
     31 C         -69.3533  -55.8229  -18.6871 C.ar    1  UNL1        0.0597
     32 C         -69.2175  -56.7039  -17.6040 C.ar    1  UNL1        0.0356
     33 C         -69.9404  -56.4806  -16.4341 C.ar    1  UNL1        0.1002
     34 N         -70.7805  -55.4190  -16.3461 N.ar    1  UNL1       -0.2420
     35 C         -70.9410  -54.5458  -17.3744 C.ar    1  UNL1        0.1065
     36 C         -70.2278  -54.7140  -18.5747 C.ar    1  UNL1        0.1080
     37 C         -70.3879  -53.7065  -19.6529 C.2     1  UNL1        0.3408
     38 O         -71.5251  -53.4382  -20.1254 O.2     1  UNL1       -0.2450
     39 O         -69.2678  -53.0687  -20.1803 O.3     1  UNL1       -0.4770
     40 H         -69.3593  -52.3878  -20.9248 H       1  UNL1        0.2954
     41 C         -67.5989  -56.9902  -22.3333 C.3     1  UNL1        0.0569
     42 C         -68.1704  -55.9843  -23.2905 C.ar    1  UNL1       -0.0017
     43 C         -68.6195  -54.7041  -22.9791 C.ar    1  UNL1        0.0681
     44 N         -68.9899  -54.0477  -24.1022 N.ar    1  UNL1       -0.3523
     45 C         -68.7690  -54.8981  -25.1197 C.ar    1  UNL1        0.0563
     46 C         -68.9797  -54.6640  -26.4778 C.ar    1  UNL1        0.0170
     47 C         -68.6582  -55.6945  -27.3802 C.ar    1  UNL1        0.0015
     48 C         -68.1360  -56.9203  -26.9107 C.ar    1  UNL1        0.0001
     49 C         -67.9317  -57.1277  -25.5344 C.ar    1  UNL1        0.0012
     50 C         -68.2646  -56.0894  -24.6641 C.ar    1  UNL1        0.0131
     51 H         -69.3570  -53.0720  -24.1633 H       1  UNL1        0.1660
@<TRIPOS>BOND
     1     2     3    2
     2     3     4   am
     3     4     1    1
     4     1    41    1
     5    41    42    1
     6    42    43   ar
     7    43    44   ar
     8    44    45   ar
     9    45    46   ar
    10    46    47   ar
    11    47    48   ar
    12    48    49   ar
    13    49    50   ar
    14     1    27    1
    15    27    28    2
    16    27    29   am
    17    29    31    1
    18    31    32   ar
    19    32    33   ar
    20    33    34   ar
    21    34    35   ar
    22    35    36   ar
    23    36    37    1
    24    37    38    2
    25    37    39    1
    26     3     6    1
    27     6     7   ar
    28     7     8   ar
    29     8     9   ar
    30     9    13    1
    31    13    14    1
    32    14    15    1
    33    15    16    1
    34    16    19    1
    35    19    20   ar
    36    20    21   ar
    37    21    22   ar
    38    22    23    1
    39    22    24   ar
    40    24    25    1
    41    24    26   ar
    42    16    17    1
    43    17    18    1
    44     9    10   ar
    45    10    11   ar
    46    11    12    1
    47    50    42   ar
    48    36    31   ar
    49    11     6   ar
    50    50    45   ar
    51    18    13    1
    52    26    19   ar
    53     4     5    1
    54    44    51    1
    55    29    30    1
    56    39    40    1
@<TRIPOS>MOLECULE
*****
 51 56 0 0 0
SMALL
GASTEIGER

@<TRIPOS>ATOM
      1 C         -62.3884  -47.8047  -26.9245 C.3     1  UNL1        0.1535
      2 O         -60.8464  -46.9440  -24.6919 O.2     1  UNL1       -0.2701
      3 C         -61.8487  -46.2415  -24.9982 C.2     1  UNL1        0.2483
      4 N         -62.6989  -46.6445  -26.0828 N.am    1  UNL1       -0.2945
      5 H         -63.6291  -46.1796  -26.1882 H       1  UNL1        0.1501
      6 C         -62.1568  -45.0324  -24.2042 C.ar    1  UNL1        0.0808
      7 C         -62.2395  -45.1239  -22.8060 C.ar    1  UNL1        0.0080
      8 C         -62.5422  -43.9981  -22.0367 C.ar    1  UNL1        0.0148
      9 C         -62.7600  -42.7510  -22.6482 C.ar    1  UNL1        0.0502
     10 C         -62.6556  -42.6563  -24.0472 C.ar    1  UNL1        0.0443
     11 C         -62.3555  -43.7824  -24.8200 C.ar    1  UNL1        0.1457
     12 F         -62.2164  -43.6346  -26.1620 F       1  UNL1       -0.2040
     13 N         -63.0707  -41.5845  -21.8532 N.pl3   1  UNL1       -0.3040
     14 C         -64.3505  -41.4985  -21.1347 C.3     1  UNL1        0.1122
     15 C         -64.8063  -40.0417  -21.0069 C.3     1  UNL1        0.1122
     16 N         -63.7413  -39.1876  -20.4582 N.pl3   1  UNL1       -0.3040
     17 C         -62.3492  -39.6601  -20.4583 C.3     1  UNL1        0.1122
     18 C         -62.0665  -40.5211  -21.6934 C.3     1  UNL1        0.1122
     19 C         -64.0811  -37.9245  -19.8433 C.ar    1  UNL1        0.0488
     20 C         -65.4250  -37.5838  -19.6055 C.ar    1  UNL1        0.0154
     21 C         -65.7532  -36.3639  -19.0092 C.ar    1  UNL1        0.0135
     22 C         -64.7483  -35.4657  -18.6381 C.ar    1  UNL1        0.0683
     23 CL        -65.2022  -33.9404  -17.8900 Cl      1  UNL1       -0.0814
     24 C         -63.4024  -35.7939  -18.8662 C.ar    1  UNL1        0.0694
     25 CL        -62.1071  -34.6961  -18.4083 Cl      1  UNL1       -0.0813
     26 C         -63.0745  -37.0163  -19.4645 C.ar    1  UNL1        0.0268
     27 C         -62.8747  -49.0626  -26.2574 C.2     1  UNL1        0.2443
     28 O         -63.8087  -49.7218  -26.7900 O.2     1  UNL1       -0.2730
     29 N         -62.2740  -49.5132  -25.0329 N.am    1  UNL1       -0.2823
     30 H         -61.4717  -48.9732  -24.6379 H       1  UNL1        0.1549
     31 C         -62.6671  -50.7257  -24.3726 C.ar    1  UNL1        0.0597
     32 C         -63.9411  -51.2601  -24.6155 C.ar    1  UNL1        0.0356
     33 C         -64.3642  -52.3885  -23.9162 C.ar    1  UNL1        0.1002
     34 N         -63.5497  -52.9633  -22.9962 N.ar    1  UNL1       -0.2420
     35 C         -62.3107  -52.4731  -22.7311 C.ar    1  UNL1        0.1065
     36 C         -61.8258  -51.3442  -23.4151 C.ar    1  UNL1        0.1080
     37 C         -60.4454  -50.8741  -23.1380 C.2     1  UNL1        0.3408
     38 O         -59.5850  -51.6485  -22.6393 O.2     1  UNL1       -0.2450
     39 O         -60.0964  -49.5510  -23.3968 O.3     1  UNL1       -0.4770
     40 H         -59.1620  -49.2117  -23.2016 H       1  UNL1        0.2954
     41 C         -63.0324  -47.6640  -28.3144 C.3     1  UNL1        0.0569
     42 C         -62.8025  -46.2930  -28.8819 C.ar    1  UNL1       -0.0017
     43 C         -61.5773  -45.7369  -29.2384 C.ar    1  UNL1        0.0681
     44 N         -61.7564  -44.5165  -29.7932 N.ar    1  UNL1       -0.3523
     45 C         -63.0835  -44.3021  -29.7992 C.ar    1  UNL1        0.0563
     46 C         -63.7572  -43.1858  -30.2930 C.ar    1  UNL1        0.0170
     47 C         -65.1621  -43.1789  -30.2171 C.ar    1  UNL1        0.0015
     48 C         -65.8543  -44.2766  -29.6589 C.ar    1  UNL1        0.0001
     49 C         -65.1482  -45.3909  -29.1703 C.ar    1  UNL1        0.0012
     50 C         -63.7560  -45.3664  -29.2550 C.ar    1  UNL1        0.0131
     51 H         -61.0125  -43.8801  -30.1569 H       1  UNL1        0.1660
@<TRIPOS>BOND
     1     2     3    2
     2     3     4   am
     3     4     1    1
     4     1    41    1
     5    41    42    1
     6    42    43   ar
     7    43    44   ar
     8    44    45   ar
     9    45    46   ar
    10    46    47   ar
    11    47    48   ar
    12    48    49   ar
    13    49    50   ar
    14     1    27    1
    15    27    28    2
    16    27    29   am
    17    29    31    1
    18    31    32   ar
    19    32    33   ar
    20    33    34   ar
    21    34    35   ar
    22    35    36   ar
    23    36    37    1
    24    37    38    2
    25    37    39    1
    26     3     6    1
    27     6     7   ar
    28     7     8   ar
    29     8     9   ar
    30     9    13    1
    31    13    14    1
    32    14    15    1
    33    15    16    1
    34    16    19    1
    35    19    20   ar
    36    20    21   ar
    37    21    22   ar
    38    22    23    1
    39    22    24   ar
    40    24    25    1
    41    24    26   ar
    42    16    17    1
    43    17    18    1
    44     9    10   ar
    45    10    11   ar
    46    11    12    1
    47    50    42   ar
    48    36    31   ar
    49    11     6   ar
    50    50    45   ar
    51    18    13    1
    52    26    19   ar
    53     4     5    1
    54    44    51    1
    55    29    30    1
    56    39    40    1
@<TRIPOS>MOLECULE
*****
 51 56 0 0 0
SMALL
GASTEIGER

@<TRIPOS>ATOM
      1 C         -62.1884  -47.3004  -26.6452 C.3     1  UNL1        0.1535
      2 O         -60.4476  -45.9791  -24.8212 O.2     1  UNL1       -0.2701
      3 C         -61.6312  -45.5484  -24.8943 C.2     1  UNL1        0.2483
      4 N         -62.5761  -46.1991  -25.7576 N.am    1  UNL1       -0.2945
      5 H         -63.5906  -45.9708  -25.6508 H       1  UNL1        0.1501
      6 C         -62.0389  -44.4018  -24.0538 C.ar    1  UNL1        0.0808
      7 C         -62.2907  -43.1579  -24.6535 C.ar    1  UNL1        0.0080
      8 C         -62.6642  -42.0577  -23.8782 C.ar    1  UNL1        0.0148
      9 C         -62.8038  -42.1787  -22.4845 C.ar    1  UNL1        0.0502
     10 C         -62.5721  -43.4306  -21.8878 C.ar    1  UNL1        0.0443
     11 C         -62.1955  -44.5331  -22.6612 C.ar    1  UNL1        0.1457
     12 F         -62.0300  -45.7333  -22.0495 F       1  UNL1       -0.2040
     13 N         -63.1926  -41.0417  -21.6811 N.pl3   1  UNL1       -0.3040
     14 C         -64.5181  -41.0033  -21.0461 C.3     1  UNL1        0.1122
     15 C         -65.0149  -39.5607  -20.9102 C.3     1  UNL1        0.1122
     16 N         -64.0079  -38.6995  -20.2705 N.pl3   1  UNL1       -0.3040
     17 C         -62.6082  -39.1418  -20.1916 C.3     1  UNL1        0.1122
     18 C         -62.2259  -39.9619  -21.4278 C.3     1  UNL1        0.1122
     19 C         -64.4163  -37.4615  -19.6461 C.ar    1  UNL1        0.0488
     20 C         -63.5318  -36.7572  -18.8094 C.ar    1  UNL1        0.0154
     21 C         -63.9259  -35.5595  -18.2077 C.ar    1  UNL1        0.0135
     22 C         -65.2056  -35.0437  -18.4321 C.ar    1  UNL1        0.0683
     23 CL        -65.6638  -33.5334  -17.6566 Cl      1  UNL1       -0.0814
     24 C         -66.0979  -35.7342  -19.2677 C.ar    1  UNL1        0.0694
     25 CL        -67.7142  -35.1167  -19.5822 Cl      1  UNL1       -0.0813
     26 C         -65.7023  -36.9346  -19.8697 C.ar    1  UNL1        0.0268
     27 C         -61.4482  -46.7571  -27.8372 C.2     1  UNL1        0.2443
     28 O         -60.3880  -47.3253  -28.2164 O.2     1  UNL1       -0.2730
     29 N         -61.9500  -45.6106  -28.5421 N.am    1  UNL1       -0.2823
     30 H         -62.8543  -45.1875  -28.2348 H       1  UNL1        0.1549
     31 C         -61.3105  -45.0724  -29.7092 C.ar    1  UNL1        0.0597
     32 C         -59.9137  -45.1370  -29.8204 C.ar    1  UNL1        0.0356
     33 C         -59.2769  -44.5428  -30.9080 C.ar    1  UNL1        0.1002
     34 N         -60.0052  -43.8956  -31.8520 N.ar    1  UNL1       -0.2420
     35 C         -61.3589  -43.8092  -31.7773 C.ar    1  UNL1        0.1065
     36 C         -62.0564  -44.4006  -30.7090 C.ar    1  UNL1        0.1080
     37 C         -63.5391  -44.3333  -30.6938 C.2     1  UNL1        0.3408
     38 O         -64.1535  -43.4356  -31.3305 O.2     1  UNL1       -0.2450
     39 O         -64.2690  -45.2491  -29.9403 O.3     1  UNL1       -0.4770
     40 H         -65.2809  -45.2087  -29.9099 H       1  UNL1        0.2954
     41 C         -61.3111  -48.3227  -25.9026 C.3     1  UNL1        0.0569
     42 C         -62.1452  -49.2344  -25.0497 C.ar    1  UNL1       -0.0017
     43 C         -63.5326  -49.3468  -25.0655 C.ar    1  UNL1        0.0681
     44 N         -63.9363  -50.3267  -24.2251 N.ar    1  UNL1       -0.3523
     45 C         -62.8161  -50.8399  -23.6873 C.ar    1  UNL1        0.0563
     46 C         -62.7208  -51.8899  -22.7750 C.ar    1  UNL1        0.0170
     47 C         -61.4362  -52.2825  -22.3564 C.ar    1  UNL1        0.0015
     48 C         -60.2889  -51.6268  -22.8557 C.ar    1  UNL1        0.0001
     49 C         -60.4153  -50.5716  -23.7774 C.ar    1  UNL1        0.0012
     50 C         -61.7021  -50.2019  -24.1697 C.ar    1  UNL1        0.0131
     51 H         -64.9192  -50.6306  -24.0459 H       1  UNL1        0.1660
@<TRIPOS>BOND
     1     2     3    2
     2     3     4   am
     3     4     1    1
     4     1    41    1
     5    41    42    1
     6    42    43   ar
     7    43    44   ar
     8    44    45   ar
     9    45    46   ar
    10    46    47   ar
    11    47    48   ar
    12    48    49   ar
    13    49    50   ar
    14     1    27    1
    15    27    28    2
    16    27    29   am
    17    29    31    1
    18    31    32   ar
    19    32    33   ar
    20    33    34   ar
    21    34    35   ar
    22    35    36   ar
    23    36    37    1
    24    37    38    2
    25    37    39    1
    26     3     6    1
    27     6     7   ar
    28     7     8   ar
    29     8     9   ar
    30     9    13    1
    31    13    14    1
    32    14    15    1
    33    15    16    1
    34    16    19    1
    35    19    20   ar
    36    20    21   ar
    37    21    22   ar
    38    22    23    1
    39    22    24   ar
    40    24    25    1
    41    24    26   ar
    42    16    17    1
    43    17    18    1
    44     9    10   ar
    45    10    11   ar
    46    11    12    1
    47    50    42   ar
    48    36    31   ar
    49    11     6   ar
    50    50    45   ar
    51    18    13    1
    52    26    19   ar
    53     4     5    1
    54    44    51    1
    55    29    30    1
    56    39    40    1
@<TRIPOS>MOLECULE
*****
 51 56 0 0 0
SMALL
GASTEIGER

@<TRIPOS>ATOM
      1 C         -61.4529  -47.7739  -26.0246 C.3     1  UNL1        0.1535
      2 O         -60.8599  -47.1837  -23.3037 O.2     1  UNL1       -0.2701
      3 C         -61.5259  -46.3232  -23.9424 C.2     1  UNL1        0.2483
      4 N         -61.9023  -46.5780  -25.3043 N.am    1  UNL1       -0.2945
      5 H         -62.6229  -45.9638  -25.7472 H       1  UNL1        0.1501
      6 C         -61.9460  -45.0795  -23.2612 C.ar    1  UNL1        0.0808
      7 C         -62.5141  -45.1493  -21.9795 C.ar    1  UNL1        0.0080
      8 C         -62.9304  -43.9890  -21.3225 C.ar    1  UNL1        0.0148
      9 C         -62.7790  -42.7297  -21.9290 C.ar    1  UNL1        0.0502
     10 C         -62.1901  -42.6595  -23.2038 C.ar    1  UNL1        0.0443
     11 C         -61.7751  -43.8197  -23.8651 C.ar    1  UNL1        0.1457
     12 F         -61.1672  -43.7003  -25.0727 F       1  UNL1       -0.2040
     13 N         -63.2069  -41.5280  -21.2492 N.pl3   1  UNL1       -0.3040
     14 C         -64.6279  -41.1512  -21.2372 C.3     1  UNL1        0.1122
     15 C         -64.7869  -39.6291  -21.1702 C.3     1  UNL1        0.1122
     16 N         -63.9939  -39.0498  -20.0745 N.pl3   1  UNL1       -0.3040
     17 C         -62.9141  -39.8334  -19.4570 C.3     1  UNL1        0.1122
     18 C         -62.2292  -40.7287  -20.4943 C.3     1  UNL1        0.1122
     19 C         -64.3371  -37.7462  -19.5530 C.ar    1  UNL1        0.0488
     20 C         -63.4062  -37.0110  -18.7971 C.ar    1  UNL1        0.0154
     21 C         -63.7374  -35.7501  -18.2950 C.ar    1  UNL1        0.0135
     22 C         -64.9993  -35.2010  -18.5401 C.ar    1  UNL1        0.0683
     23 CL        -65.3778  -33.6112  -17.8909 Cl      1  UNL1       -0.0814
     24 C         -65.9374  -35.9221  -19.2960 C.ar    1  UNL1        0.0694
     25 CL        -67.5334  -35.2651  -19.6336 Cl      1  UNL1       -0.0813
     26 C         -65.6049  -37.1858  -19.7982 C.ar    1  UNL1        0.0268
     27 C         -62.2647  -48.9644  -25.5916 C.2     1  UNL1        0.2443
     28 O         -63.3488  -49.2199  -26.1833 O.2     1  UNL1       -0.2730
     29 N         -61.8042  -49.8067  -24.5232 N.am    1  UNL1       -0.2823
     30 H         -60.8807  -49.5988  -24.0812 H       1  UNL1        0.1549
     31 C         -62.5139  -50.9783  -24.0938 C.ar    1  UNL1        0.0597
     32 C         -63.8261  -51.1911  -24.5416 C.ar    1  UNL1        0.0356
     33 C         -64.5533  -52.2796  -24.0645 C.ar    1  UNL1        0.1002
     34 N         -63.9969  -53.1261  -23.1622 N.ar    1  UNL1       -0.2420
     35 C         -62.7305  -52.9513  -22.7027 C.ar    1  UNL1        0.1065
     36 C         -61.9451  -51.8776  -23.1584 C.ar    1  UNL1        0.1080
     37 C         -60.5469  -51.7542  -22.6756 C.2     1  UNL1        0.3408
     38 O         -59.9254  -50.6611  -22.7625 O.2     1  UNL1       -0.2450
     39 O         -59.8924  -52.8652  -22.1497 O.3     1  UNL1       -0.4770
     40 H         -58.9341  -52.8002  -21.8273 H       1  UNL1        0.2954
     41 C         -61.5759  -47.5786  -27.5455 C.3     1  UNL1        0.0569
     42 C         -60.8483  -46.3442  -27.9940 C.ar    1  UNL1       -0.0017
     43 C         -59.5523  -46.2815  -28.4979 C.ar    1  UNL1        0.0681
     44 N         -59.2544  -45.0183  -28.8785 N.ar    1  UNL1       -0.3523
     45 C         -60.3538  -44.2859  -28.6288 C.ar    1  UNL1        0.0563
     46 C         -60.5370  -42.9258  -28.8742 C.ar    1  UNL1        0.0170
     47 C         -61.7854  -42.3620  -28.5529 C.ar    1  UNL1        0.0015
     48 C         -62.8119  -43.1618  -28.0032 C.ar    1  UNL1        0.0001
     49 C         -62.5993  -44.5325  -27.7684 C.ar    1  UNL1        0.0012
     50 C         -61.3498  -45.0614  -28.0926 C.ar    1  UNL1        0.0131
     51 H         -58.3566  -44.6869  -29.2965 H       1  UNL1        0.1660
@<TRIPOS>BOND
     1     2     3    2
     2     3     4   am
     3     4     1    1
     4     1    41    1
     5    41    42    1
     6    42    43   ar
     7    43    44   ar
     8    44    45   ar
     9    45    46   ar
    10    46    47   ar
    11    47    48   ar
    12    48    49   ar
    13    49    50   ar
    14     1    27    1
    15    27    28    2
    16    27    29   am
    17    29    31    1
    18    31    32   ar
    19    32    33   ar
    20    33    34   ar
    21    34    35   ar
    22    35    36   ar
    23    36    37    1
    24    37    38    2
    25    37    39    1
    26     3     6    1
    27     6     7   ar
    28     7     8   ar
    29     8     9   ar
    30     9    13    1
    31    13    14    1
    32    14    15    1
    33    15    16    1
    34    16    19    1
    35    19    20   ar
    36    20    21   ar
    37    21    22   ar
    38    22    23    1
    39    22    24   ar
    40    24    25    1
    41    24    26   ar
    42    16    17    1
    43    17    18    1
    44     9    10   ar
    45    10    11   ar
    46    11    12    1
    47    50    42   ar
    48    36    31   ar
    49    11     6   ar
    50    50    45   ar
    51    18    13    1
    52    26    19   ar
    53     4     5    1
    54    44    51    1
    55    29    30    1
    56    39    40    1
@<TRIPOS>MOLECULE
*****
 51 56 0 0 0
SMALL
GASTEIGER

@<TRIPOS>ATOM
      1 C         -60.6420  -46.3705  -27.0044 C.3     1  UNL1        0.1535
      2 O         -63.2156  -45.9066  -25.8800 O.2     1  UNL1       -0.2701
      3 C         -62.2970  -45.1062  -25.5524 C.2     1  UNL1        0.2483
      4 N         -60.9864  -45.2520  -26.1204 N.am    1  UNL1       -0.2945
      5 H         -60.3029  -44.4692  -26.0081 H       1  UNL1        0.1501
      6 C         -62.5977  -44.0005  -24.6173 C.ar    1  UNL1        0.0808
      7 C         -63.0381  -42.7668  -25.1216 C.ar    1  UNL1        0.0080
      8 C         -63.3154  -41.7043  -24.2584 C.ar    1  UNL1        0.0148
      9 C         -63.1677  -41.8544  -22.8683 C.ar    1  UNL1        0.0502
     10 C         -62.7471  -43.0974  -22.3632 C.ar    1  UNL1        0.0443
     11 C         -62.4661  -44.1619  -23.2253 C.ar    1  UNL1        0.1457
     12 F         -62.1105  -45.3578  -22.6910 F       1  UNL1       -0.2040
     13 N         -63.4568  -40.7566  -21.9736 N.pl3   1  UNL1       -0.3040
     14 C         -64.6454  -40.7999  -21.1095 C.3     1  UNL1        0.1122
     15 C         -65.1758  -39.3880  -20.8421 C.3     1  UNL1        0.1122
     16 N         -64.1106  -38.4905  -20.3680 N.pl3   1  UNL1       -0.3040
     17 C         -62.7007  -38.8622  -20.5560 C.3     1  UNL1        0.1122
     18 C         -62.5112  -39.6345  -21.8654 C.3     1  UNL1        0.1122
     19 C         -64.4560  -37.2890  -19.6426 C.ar    1  UNL1        0.0488
     20 C         -63.5331  -36.6948  -18.7629 C.ar    1  UNL1        0.0154
     21 C         -63.8663  -35.5323  -18.0635 C.ar    1  UNL1        0.0135
     22 C         -65.1224  -34.9422  -18.2314 C.ar    1  UNL1        0.0683
     23 CL        -65.5037  -33.4793  -17.3331 Cl      1  UNL1       -0.0814
     24 C         -66.0524  -35.5223  -19.1088 C.ar    1  UNL1        0.0694
     25 CL        -67.6407  -34.8084  -19.3544 Cl      1  UNL1       -0.0813
     26 C         -65.7178  -36.6876  -19.8087 C.ar    1  UNL1        0.0268
     27 C         -60.9599  -47.6741  -26.3237 C.2     1  UNL1        0.2443
     28 O         -60.9919  -48.7344  -27.0058 O.2     1  UNL1       -0.2730
     29 N         -61.2132  -47.7117  -24.9103 N.am    1  UNL1       -0.2823
     30 H         -61.1350  -46.8261  -24.3617 H       1  UNL1        0.1549
     31 C         -61.4810  -48.9295  -24.1991 C.ar    1  UNL1        0.0597
     32 C         -60.4613  -49.5214  -23.4391 C.ar    1  UNL1        0.0356
     33 C         -60.6848  -50.7466  -22.8143 C.ar    1  UNL1        0.1002
     34 N         -61.8823  -51.3698  -22.9483 N.ar    1  UNL1       -0.2420
     35 C         -62.8928  -50.8297  -23.6783 C.ar    1  UNL1        0.1065
     36 C         -62.7287  -49.5896  -24.3207 C.ar    1  UNL1        0.1080
     37 C         -63.8754  -49.0065  -25.0611 C.2     1  UNL1        0.3408
     38 O         -65.0211  -48.9471  -24.5389 O.2     1  UNL1       -0.2450
     39 O         -63.7008  -48.5479  -26.3644 O.3     1  UNL1       -0.4770
     40 H         -64.4763  -48.1586  -26.8873 H       1  UNL1        0.2954
     41 C         -61.4045  -46.2735  -28.3369 C.3     1  UNL1        0.0569
     42 C         -60.5498  -45.6576  -29.4067 C.ar    1  UNL1       -0.0017
     43 C         -59.1899  -45.8742  -29.6099 C.ar    1  UNL1        0.0681
     44 N         -58.7680  -45.2205  -30.7164 N.ar    1  UNL1       -0.3523
     45 C         -59.8511  -44.6022  -31.2184 C.ar    1  UNL1        0.0563
     46 C         -59.9194  -43.8189  -32.3697 C.ar    1  UNL1        0.0170
     47 C         -61.1698  -43.2810  -32.7257 C.ar    1  UNL1        0.0015
     48 C         -62.3113  -43.5379  -31.9341 C.ar    1  UNL1        0.0001
     49 C         -62.2129  -44.3340  -30.7784 C.ar    1  UNL1        0.0012
     50 C         -60.9590  -44.8491  -30.4487 C.ar    1  UNL1        0.0131
     51 H         -57.7996  -45.2138  -31.1070 H       1  UNL1        0.1660
@<TRIPOS>BOND
     1     2     3    2
     2     3     4   am
     3     4     1    1
     4     1    41    1
     5    41    42    1
     6    42    43   ar
     7    43    44   ar
     8    44    45   ar
     9    45    46   ar
    10    46    47   ar
    11    47    48   ar
    12    48    49   ar
    13    49    50   ar
    14     1    27    1
    15    27    28    2
    16    27    29   am
    17    29    31    1
    18    31    32   ar
    19    32    33   ar
    20    33    34   ar
    21    34    35   ar
    22    35    36   ar
    23    36    37    1
    24    37    38    2
    25    37    39    1
    26     3     6    1
    27     6     7   ar
    28     7     8   ar
    29     8     9   ar
    30     9    13    1
    31    13    14    1
    32    14    15    1
    33    15    16    1
    34    16    19    1
    35    19    20   ar
    36    20    21   ar
    37    21    22   ar
    38    22    23    1
    39    22    24   ar
    40    24    25    1
    41    24    26   ar
    42    16    17    1
    43    17    18    1
    44     9    10   ar
    45    10    11   ar
    46    11    12    1
    47    50    42   ar
    48    36    31   ar
    49    11     6   ar
    50    50    45   ar
    51    18    13    1
    52    26    19   ar
    53     4     5    1
    54    44    51    1
    55    29    30    1
    56    39    40    1
@<TRIPOS>MOLECULE
*****
 51 56 0 0 0
SMALL
GASTEIGER

@<TRIPOS>ATOM
      1 C         -60.5476  -43.1703  -27.1327 C.3     1  UNL1        0.1535
      2 O         -59.3961  -45.7607  -27.3917 O.2     1  UNL1       -0.2701
      3 C         -60.5018  -45.6853  -26.7887 C.2     1  UNL1        0.2483
      4 N         -61.1629  -44.4168  -26.6650 N.am    1  UNL1       -0.2945
      5 H         -62.1616  -44.4014  -26.3568 H       1  UNL1        0.1501
      6 C         -61.1219  -46.9171  -26.2543 C.ar    1  UNL1        0.0808
      7 C         -62.0915  -47.5905  -27.0137 C.ar    1  UNL1        0.0080
      8 C         -62.7001  -48.7483  -26.5235 C.ar    1  UNL1        0.0148
      9 C         -62.3456  -49.2652  -25.2650 C.ar    1  UNL1        0.0502
     10 C         -61.3587  -48.6016  -24.5149 C.ar    1  UNL1        0.0443
     11 C         -60.7498  -47.4408  -25.0020 C.ar    1  UNL1        0.1457
     12 F         -59.7676  -46.8612  -24.2660 F       1  UNL1       -0.2040
     13 N         -62.9727  -50.4646  -24.7576 N.pl3   1  UNL1       -0.3040
     14 C         -63.8273  -51.2797  -25.6333 C.3     1  UNL1        0.1122
     15 C         -64.9194  -51.9859  -24.8241 C.3     1  UNL1        0.1122
     16 N         -64.3571  -52.7120  -23.6745 N.pl3   1  UNL1       -0.3040
     17 C         -62.9979  -52.4044  -23.2064 C.3     1  UNL1        0.1122
     18 C         -62.6835  -50.9160  -23.3874 C.3     1  UNL1        0.1122
     19 C         -65.1113  -53.7842  -23.0656 C.ar    1  UNL1        0.0488
     20 C         -64.4612  -54.7742  -22.3068 C.ar    1  UNL1        0.0154
     21 C         -65.1905  -55.8093  -21.7165 C.ar    1  UNL1        0.0135
     22 C         -66.5784  -55.8729  -21.8707 C.ar    1  UNL1        0.0683
     23 CL        -67.4607  -57.1914  -21.1121 Cl      1  UNL1       -0.0814
     24 C         -67.2411  -54.8896  -22.6226 C.ar    1  UNL1        0.0694
     25 CL        -68.9864  -54.9283  -22.8354 Cl      1  UNL1       -0.0813
     26 C         -66.5094  -53.8532  -23.2142 C.ar    1  UNL1        0.0268
     27 C         -60.9042  -42.9366  -28.5757 C.2     1  UNL1        0.2443
     28 O         -61.5364  -41.8927  -28.8936 O.2     1  UNL1       -0.2730
     29 N         -60.5190  -43.8871  -29.5814 N.am    1  UNL1       -0.2823
     30 H         -59.9563  -44.7200  -29.2968 H       1  UNL1        0.1549
     31 C         -60.7947  -43.6987  -30.9775 C.ar    1  UNL1        0.0597
     32 C         -61.9985  -43.0925  -31.3659 C.ar    1  UNL1        0.0356
     33 C         -62.3139  -42.9817  -32.7185 C.ar    1  UNL1        0.1002
     34 N         -61.4631  -43.4672  -33.6570 N.ar    1  UNL1       -0.2420
     35 C         -60.2899  -44.0633  -33.3200 C.ar    1  UNL1        0.1065
     36 C         -59.9134  -44.1918  -31.9712 C.ar    1  UNL1        0.1080
     37 C         -58.5977  -44.7976  -31.6469 C.2     1  UNL1        0.3408
     38 O         -57.5253  -44.2713  -32.0487 O.2     1  UNL1       -0.2450
     39 O         -58.5387  -45.9831  -30.9185 O.3     1  UNL1       -0.4770
     40 H         -57.6490  -46.4156  -30.6997 H       1  UNL1        0.2954
     41 C         -61.0056  -41.9762  -26.2779 C.3     1  UNL1        0.0569
     42 C         -61.6292  -42.4376  -24.9923 C.ar    1  UNL1       -0.0017
     43 C         -62.9825  -42.4069  -24.6683 C.ar    1  UNL1        0.0681
     44 N         -63.1919  -42.9799  -23.4611 N.ar    1  UNL1       -0.3523
     45 C         -61.9849  -43.3806  -23.0255 C.ar    1  UNL1        0.0563
     46 C         -61.6936  -44.0440  -21.8344 C.ar    1  UNL1        0.0170
     47 C         -60.3529  -44.3915  -21.5862 C.ar    1  UNL1        0.0015
     48 C         -59.3458  -44.0748  -22.5248 C.ar    1  UNL1        0.0001
     49 C         -59.6694  -43.4067  -23.7197 C.ar    1  UNL1        0.0012
     50 C         -61.0062  -43.0711  -23.9352 C.ar    1  UNL1        0.0131
     51 H         -64.1094  -43.0993  -22.9768 H       1  UNL1        0.1660
@<TRIPOS>BOND
     1     2     3    2
     2     3     4   am
     3     4     1    1
     4     1    41    1
     5    41    42    1
     6    42    43   ar
     7    43    44   ar
     8    44    45   ar
     9    45    46   ar
    10    46    47   ar
    11    47    48   ar
    12    48    49   ar
    13    49    50   ar
    14     1    27    1
    15    27    28    2
    16    27    29   am
    17    29    31    1
    18    31    32   ar
    19    32    33   ar
    20    33    34   ar
    21    34    35   ar
    22    35    36   ar
    23    36    37    1
    24    37    38    2
    25    37    39    1
    26     3     6    1
    27     6     7   ar
    28     7     8   ar
    29     8     9   ar
    30     9    13    1
    31    13    14    1
    32    14    15    1
    33    15    16    1
    34    16    19    1
    35    19    20   ar
    36    20    21   ar
    37    21    22   ar
    38    22    23    1
    39    22    24   ar
    40    24    25    1
    41    24    26   ar
    42    16    17    1
    43    17    18    1
    44     9    10   ar
    45    10    11   ar
    46    11    12    1
    47    50    42   ar
    48    36    31   ar
    49    11     6   ar
    50    50    45   ar
    51    18    13    1
    52    26    19   ar
    53     4     5    1
    54    44    51    1
    55    29    30    1
    56    39    40    1
