@<TRIPOS>MOLECULE
*****
 47 52 0 0 0
SMALL
GASTEIGER

@<TRIPOS>ATOM
      1 C          13.3293   83.1964   24.7154 C.ar    1  UNL1        0.0823
      2 C          13.1919   84.3184   23.8854 C.ar    1  UNL1        0.0204
      3 C          13.5903   85.5786   24.3295 C.ar    1  UNL1        0.0357
      4 C          14.1204   85.7253   25.6220 C.ar    1  UNL1        0.1332
      5 N          14.2295   84.6228   26.4145 N.ar    1  UNL1       -0.2152
      6 C          13.8518   83.3796   26.0112 C.ar    1  UNL1        0.1403
      7 N          14.0248   82.2803   26.9101 N.pl3   1  UNL1       -0.3416
      8 H          14.3969   82.4493   27.8711 H       1  UNL1        0.1438
      9 H          13.8280   81.2956   26.6289 H       1  UNL1        0.1438
     10 N          14.5546   87.0137   26.1171 N.pl3   1  UNL1       -0.2932
     11 C          13.7552   88.2245   25.8614 C.3     1  UNL1        0.0923
     12 C          14.5538   89.5072   26.1444 C.3     1  UNL1        0.0252
     13 C          15.9951   89.4161   25.5946 C.3     1  UNL1        0.0472
     14 C          16.7429   88.1484   26.1050 C.3     1  UNL1        0.0252
     15 C          15.8312   87.1520   26.8338 C.3     1  UNL1        0.0923
     16 C          16.0042   89.4947   24.0567 C.3     1  UNL1        0.2054
     17 O          16.1216   88.1836   23.5073 O.3     1  UNL1       -0.4755
     18 C          15.2786   87.6599   22.5161 C.ar    1  UNL1        0.1388
     19 C          14.1093   88.3197   22.0957 C.ar    1  UNL1        0.0369
     20 C          13.2969   87.7494   21.1142 C.ar    1  UNL1        0.0033
     21 C          13.6423   86.5246   20.5395 C.ar    1  UNL1        0.0066
     22 C          14.8141   85.8562   20.9356 C.ar    1  UNL1        0.0785
     23 C          15.6212   86.4326   21.9343 C.ar    1  UNL1        0.0433
     24 C          15.1680   84.5543   20.3188 C.2     1  UNL1        0.3381
     25 O          15.1063   84.4183   19.0679 O.2     1  UNL1       -0.2451
     26 O          15.5868   83.4674   21.0857 O.3     1  UNL1       -0.4771
     27 H          15.7594   83.5354   22.0801 H       1  UNL1        0.2954
     28 C          11.6024   81.3478   24.6526 C.2     1  UNL1        0.2840
     29 O          10.8207   81.9956   25.3995 O.2     1  UNL1       -0.2665
     30 N          12.8739   81.9050   24.2778 N.am    1  UNL1       -0.2757
     31 H          13.5238   81.3367   23.6932 H       1  UNL1        0.1553
     32 C          13.2124   78.5645   25.0278 C.3     1  UNL1        0.0345
     33 C          11.8779   78.7959   24.3870 C.ar    1  UNL1        0.0202
     34 C          11.1937   80.0044   24.2068 C.ar    1  UNL1        0.1946
     35 O          10.0759   79.7943   23.5341 O.2     1  UNL1       -0.4492
     36 C           9.9878   78.5095   23.2902 C.ar    1  UNL1        0.1452
     37 C           8.9700   77.8446   22.6152 C.ar    1  UNL1        0.0375
     38 C           9.0784   76.4508   22.4655 C.ar    1  UNL1        0.0031
     39 C          10.1967   75.7463   22.9888 C.ar    1  UNL1        0.0002
     40 C          11.2115   76.4626   23.6676 C.ar    1  UNL1        0.0028
     41 C          11.0696   77.8440   23.7989 C.ar    1  UNL1        0.0337
     42 C          10.3007   74.2741   22.8247 C.ar    1  UNL1        0.0000
     43 C          11.5342   73.6192   23.0036 C.ar    1  UNL1        0.0000
     44 C          11.6293   72.2330   22.8473 C.ar    1  UNL1        0.0000
     45 C          10.4979   71.4860   22.5123 C.ar    1  UNL1        0.0000
     46 C           9.2686   72.1237   22.3324 C.ar    1  UNL1        0.0000
     47 C           9.1677   73.5098   22.4865 C.ar    1  UNL1        0.0000
@<TRIPOS>BOND
     1    32    33    1
     2    33    34   ar
     3    34    28    1
     4    28    29    2
     5    28    30   am
     6    30     1    1
     7     1     2   ar
     8     2     3   ar
     9     3     4   ar
    10     4    10    1
    11    10    11    1
    12    11    12    1
    13    12    13    1
    14    13    16    1
    15    16    17    1
    16    17    18    1
    17    18    19   ar
    18    19    20   ar
    19    20    21   ar
    20    21    22   ar
    21    22    24    1
    22    24    25    2
    23    24    26    1
    24    22    23   ar
    25    13    14    1
    26    14    15    1
    27     4     5   ar
    28     5     6   ar
    29     6     7    1
    30    34    35   ar
    31    35    36   ar
    32    36    37   ar
    33    37    38   ar
    34    38    39   ar
    35    39    42    1
    36    42    43   ar
    37    43    44   ar
    38    44    45   ar
    39    45    46   ar
    40    46    47   ar
    41    39    40   ar
    42    40    41   ar
    43    41    33   ar
    44     6     1   ar
    45    41    36   ar
    46    15    10    1
    47    47    42   ar
    48    23    18   ar
    49    30    31    1
    50    26    27    1
    51     7     8    1
    52     7     9    1
@<TRIPOS>MOLECULE
*****
 47 52 0 0 0
SMALL
GASTEIGER

@<TRIPOS>ATOM
      1 C           9.7732   76.1015   22.5784 C.ar    1  UNL1        0.0823
      2 C          10.9130   76.2192   21.7699 C.ar    1  UNL1        0.0204
      3 C          12.1411   76.5725   22.3274 C.ar    1  UNL1        0.0357
      4 C          12.2325   76.8247   23.7063 C.ar    1  UNL1        0.1332
      5 N          11.1080   76.7186   24.4677 N.ar    1  UNL1       -0.2152
      6 C           9.8956   76.3746   23.9554 C.ar    1  UNL1        0.1403
      7 N           8.7769   76.2698   24.8409 N.pl3   1  UNL1       -0.3416
      8 H           8.8936   76.4967   25.8535 H       1  UNL1        0.1438
      9 H           7.8432   75.9340   24.5201 H       1  UNL1        0.1438
     10 N          13.4900   77.1842   24.3253 N.pl3   1  UNL1       -0.2932
     11 C          13.5696   77.4299   25.7756 C.3     1  UNL1        0.0923
     12 C          14.8769   78.1391   26.1644 C.3     1  UNL1        0.0252
     13 C          15.2245   79.2775   25.1790 C.3     1  UNL1        0.0472
     14 C          15.2523   78.7902   23.6996 C.3     1  UNL1        0.0252
     15 C          14.7015   77.3701   23.5127 C.3     1  UNL1        0.0923
     16 C          14.2715   80.4734   25.3604 C.3     1  UNL1        0.2054
     17 O          13.3042   80.4829   24.3122 O.3     1  UNL1       -0.4755
     18 C          11.9362   80.2310   24.4921 C.ar    1  UNL1        0.1388
     19 C          11.0071   80.3301   23.4402 C.ar    1  UNL1        0.0369
     20 C           9.6537   80.0816   23.6745 C.ar    1  UNL1        0.0033
     21 C           9.2144   79.7274   24.9517 C.ar    1  UNL1        0.0066
     22 C          10.1288   79.6090   26.0131 C.ar    1  UNL1        0.0785
     23 C          11.4899   79.8729   25.7706 C.ar    1  UNL1        0.0433
     24 C           9.6484   79.2345   27.3657 C.2     1  UNL1        0.3381
     25 O          10.0613   78.1727   27.9035 O.2     1  UNL1       -0.2451
     26 O           8.7560   80.0362   28.0767 O.3     1  UNL1       -0.4771
     27 H           8.4654   80.9493   27.7526 H       1  UNL1        0.2954
     28 C           7.6092   76.7779   21.4547 C.2     1  UNL1        0.2840
     29 O           7.9337   77.9957   21.4689 O.2     1  UNL1       -0.2665
     30 N           8.4965   75.7855   21.9981 N.am    1  UNL1       -0.2757
     31 H           8.1925   74.7883   22.0147 H       1  UNL1        0.1553
     32 C           5.6660   74.3713   22.4096 C.3     1  UNL1        0.0345
     33 C           5.4425   75.3824   21.3267 C.ar    1  UNL1        0.0202
     34 C           6.2946   76.4090   20.9013 C.ar    1  UNL1        0.1946
     35 O           5.7609   77.0406   19.8705 O.2     1  UNL1       -0.4492
     36 C           4.5966   76.4929   19.6212 C.ar    1  UNL1        0.1452
     37 C           3.6903   76.8477   18.6280 C.ar    1  UNL1        0.0375
     38 C           2.4909   76.1194   18.5384 C.ar    1  UNL1        0.0031
     39 C           2.2171   75.0526   19.4371 C.ar    1  UNL1        0.0002
     40 C           3.1683   74.7231   20.4323 C.ar    1  UNL1        0.0028
     41 C           4.3459   75.4684   20.4926 C.ar    1  UNL1        0.0337
     42 C           0.9471   74.2902   19.3332 C.ar    1  UNL1        0.0000
     43 C           0.8521   72.9838   19.8493 C.ar    1  UNL1        0.0000
     44 C          -0.3449   72.2679   19.7490 C.ar    1  UNL1        0.0000
     45 C          -1.4580   72.8458   19.1348 C.ar    1  UNL1        0.0000
     46 C          -1.3767   74.1411   18.6191 C.ar    1  UNL1        0.0000
     47 C          -0.1821   74.8614   18.7158 C.ar    1  UNL1        0.0000
@<TRIPOS>BOND
     1    32    33    1
     2    33    34   ar
     3    34    28    1
     4    28    29    2
     5    28    30   am
     6    30     1    1
     7     1     2   ar
     8     2     3   ar
     9     3     4   ar
    10     4    10    1
    11    10    11    1
    12    11    12    1
    13    12    13    1
    14    13    16    1
    15    16    17    1
    16    17    18    1
    17    18    19   ar
    18    19    20   ar
    19    20    21   ar
    20    21    22   ar
    21    22    24    1
    22    24    25    2
    23    24    26    1
    24    22    23   ar
    25    13    14    1
    26    14    15    1
    27     4     5   ar
    28     5     6   ar
    29     6     7    1
    30    34    35   ar
    31    35    36   ar
    32    36    37   ar
    33    37    38   ar
    34    38    39   ar
    35    39    42    1
    36    42    43   ar
    37    43    44   ar
    38    44    45   ar
    39    45    46   ar
    40    46    47   ar
    41    39    40   ar
    42    40    41   ar
    43    41    33   ar
    44     6     1   ar
    45    41    36   ar
    46    15    10    1
    47    47    42   ar
    48    23    18   ar
    49    30    31    1
    50    26    27    1
    51     7     8    1
    52     7     9    1
@<TRIPOS>MOLECULE
*****
 47 52 0 0 0
SMALL
GASTEIGER

@<TRIPOS>ATOM
      1 C          13.1467   83.5580   24.9667 C.ar    1  UNL1        0.0823
      2 C          13.1040   84.1939   23.7176 C.ar    1  UNL1        0.0204
      3 C          13.7823   85.3946   23.5127 C.ar    1  UNL1        0.0357
      4 C          14.5019   85.9764   24.5695 C.ar    1  UNL1        0.1332
      5 N          14.5155   85.3471   25.7775 N.ar    1  UNL1       -0.2152
      6 C          13.8660   84.1745   26.0099 C.ar    1  UNL1        0.1403
      7 N          13.9569   83.5809   27.3083 N.pl3   1  UNL1       -0.3416
      8 H          14.4814   84.0704   28.0671 H       1  UNL1        0.1438
      9 H          13.5474   82.6461   27.5224 H       1  UNL1        0.1438
     10 N          15.2273   87.2162   24.3952 N.pl3   1  UNL1       -0.2932
     11 C          14.5392   88.4275   23.9162 C.3     1  UNL1        0.0923
     12 C          15.5338   89.5073   23.4596 C.3     1  UNL1        0.0252
     13 C          16.6868   88.9059   22.6249 C.3     1  UNL1        0.0472
     14 C          17.4049   87.7381   23.3647 C.3     1  UNL1        0.0252
     15 C          16.6768   87.2789   24.6351 C.3     1  UNL1        0.0923
     16 C          16.1910   88.4712   21.2333 C.3     1  UNL1        0.2054
     17 O          15.8086   87.0974   21.2648 O.3     1  UNL1       -0.4755
     18 C          14.8654   86.5160   20.4048 C.ar    1  UNL1        0.1388
     19 C          13.5170   86.9171   20.3836 C.ar    1  UNL1        0.0369
     20 C          12.6148   86.2973   19.5175 C.ar    1  UNL1        0.0033
     21 C          13.0455   85.2803   18.6629 C.ar    1  UNL1        0.0066
     22 C          14.3917   84.8748   18.6586 C.ar    1  UNL1        0.0785
     23 C          15.2921   85.4971   19.5435 C.ar    1  UNL1        0.0433
     24 C          14.8354   83.7915   17.7475 C.2     1  UNL1        0.3381
     25 O          15.9663   83.8622   17.1969 O.2     1  UNL1       -0.2451
     26 O          14.0391   82.6762   17.4894 O.3     1  UNL1       -0.4771
     27 H          13.1689   82.5027   17.9751 H       1  UNL1        0.2954
     28 C          12.9573   81.0346   24.9782 C.2     1  UNL1        0.2840
     29 O          14.1427   80.9019   24.5711 O.2     1  UNL1       -0.2665
     30 N          12.4080   82.3458   25.1941 N.am    1  UNL1       -0.2757
     31 H          11.4126   82.4359   25.4913 H       1  UNL1        0.1553
     32 C          10.1379   80.2646   23.5862 C.3     1  UNL1        0.0345
     33 C          10.9407   79.4758   24.5752 C.ar    1  UNL1        0.0202
     34 C          12.1495   79.8213   25.1922 C.ar    1  UNL1        0.1946
     35 O          12.4991   78.8845   26.0562 O.2     1  UNL1       -0.4492
     36 C          11.5930   77.9385   26.0136 C.ar    1  UNL1        0.1452
     37 C          11.5656   76.7597   26.7507 C.ar    1  UNL1        0.0375
     38 C          10.4898   75.8781   26.5454 C.ar    1  UNL1        0.0031
     39 C           9.4624   76.1864   25.6126 C.ar    1  UNL1        0.0002
     40 C           9.5282   77.3985   24.8844 C.ar    1  UNL1        0.0028
     41 C          10.6110   78.2478   25.1126 C.ar    1  UNL1        0.0337
     42 C           8.3309   75.2477   25.4040 C.ar    1  UNL1        0.0000
     43 C           7.4111   74.9939   26.4394 C.ar    1  UNL1        0.0000
     44 C           6.3472   74.1086   26.2404 C.ar    1  UNL1        0.0000
     45 C           6.1886   73.4686   25.0094 C.ar    1  UNL1        0.0000
     46 C           7.0940   73.7122   23.9743 C.ar    1  UNL1        0.0000
     47 C           8.1603   74.5957   24.1678 C.ar    1  UNL1        0.0000
@<TRIPOS>BOND
     1    32    33    1
     2    33    34   ar
     3    34    28    1
     4    28    29    2
     5    28    30   am
     6    30     1    1
     7     1     2   ar
     8     2     3   ar
     9     3     4   ar
    10     4    10    1
    11    10    11    1
    12    11    12    1
    13    12    13    1
    14    13    16    1
    15    16    17    1
    16    17    18    1
    17    18    19   ar
    18    19    20   ar
    19    20    21   ar
    20    21    22   ar
    21    22    24    1
    22    24    25    2
    23    24    26    1
    24    22    23   ar
    25    13    14    1
    26    14    15    1
    27     4     5   ar
    28     5     6   ar
    29     6     7    1
    30    34    35   ar
    31    35    36   ar
    32    36    37   ar
    33    37    38   ar
    34    38    39   ar
    35    39    42    1
    36    42    43   ar
    37    43    44   ar
    38    44    45   ar
    39    45    46   ar
    40    46    47   ar
    41    39    40   ar
    42    40    41   ar
    43    41    33   ar
    44     6     1   ar
    45    41    36   ar
    46    15    10    1
    47    47    42   ar
    48    23    18   ar
    49    30    31    1
    50    26    27    1
    51     7     8    1
    52     7     9    1
@<TRIPOS>MOLECULE
*****
 47 52 0 0 0
SMALL
GASTEIGER

@<TRIPOS>ATOM
      1 C          11.7371   80.9504   25.1348 C.ar    1  UNL1        0.0823
      2 C          11.1804   82.2305   24.9999 C.ar    1  UNL1        0.0204
      3 C          11.9751   83.3093   24.6146 C.ar    1  UNL1        0.0357
      4 C          13.3449   83.1132   24.3730 C.ar    1  UNL1        0.1332
      5 N          13.8648   81.8634   24.5255 N.ar    1  UNL1       -0.2152
      6 C          13.1170   80.7899   24.8986 C.ar    1  UNL1        0.1403
      7 N          13.7516   79.5129   25.0123 N.pl3   1  UNL1       -0.3416
      8 H          14.7796   79.4280   24.8495 H       1  UNL1        0.1438
      9 H          13.2159   78.6419   25.2166 H       1  UNL1        0.1438
     10 N          14.2017   84.2043   23.9618 N.pl3   1  UNL1       -0.2932
     11 C          14.0386   85.5475   24.5444 C.3     1  UNL1        0.0923
     12 C          14.7801   86.6186   23.7282 C.3     1  UNL1        0.0252
     13 C          14.5817   86.4183   22.2088 C.3     1  UNL1        0.0472
     14 C          14.9608   84.9792   21.7483 C.3     1  UNL1        0.0252
     15 C          15.2130   84.0109   22.9118 C.3     1  UNL1        0.0923
     16 C          13.1468   86.7851   21.7874 C.3     1  UNL1        0.2054
     17 O          12.7951   86.0735   20.6024 O.3     1  UNL1       -0.4755
     18 C          13.3291   86.3343   19.3319 C.ar    1  UNL1        0.1388
     19 C          13.3168   87.6191   18.7586 C.ar    1  UNL1        0.0369
     20 C          13.8496   87.8235   17.4848 C.ar    1  UNL1        0.0033
     21 C          14.4033   86.7565   16.7743 C.ar    1  UNL1        0.0066
     22 C          14.4381   85.4678   17.3353 C.ar    1  UNL1        0.0785
     23 C          13.8880   85.2683   18.6154 C.ar    1  UNL1        0.0433
     24 C          15.0269   84.3425   16.5687 C.2     1  UNL1        0.3381
     25 O          14.2817   83.4228   16.1374 O.2     1  UNL1       -0.2451
     26 O          16.3922   84.2761   16.2928 O.3     1  UNL1       -0.4771
     27 H          17.0313   85.0277   16.5161 H       1  UNL1        0.2954
     28 C           9.8540   79.2928   24.8032 C.2     1  UNL1        0.2840
     29 O           9.5761   79.7714   23.6708 O.2     1  UNL1       -0.2665
     30 N          10.9300   79.8470   25.5795 N.am    1  UNL1       -0.2757
     31 H          11.1178   79.4645   26.5312 H       1  UNL1        0.1553
     32 C           8.2091   79.1738   27.5888 C.3     1  UNL1        0.0345
     33 C           8.3019   78.1376   26.5106 C.ar    1  UNL1        0.0202
     34 C           9.0319   78.1832   25.3164 C.ar    1  UNL1        0.1946
     35 O           8.9065   77.0393   24.6667 O.2     1  UNL1       -0.4492
     36 C           8.1137   76.2639   25.3654 C.ar    1  UNL1        0.1452
     37 C           7.7018   74.9732   25.0522 C.ar    1  UNL1        0.0375
     38 C           6.8424   74.3184   25.9518 C.ar    1  UNL1        0.0031
     39 C           6.4106   74.9592   27.1450 C.ar    1  UNL1        0.0002
     40 C           6.8557   76.2732   27.4262 C.ar    1  UNL1        0.0028
     41 C           7.7060   76.8925   26.5101 C.ar    1  UNL1        0.0337
     42 C           5.5028   74.2580   28.0879 C.ar    1  UNL1        0.0000
     43 C           5.1759   72.9025   27.8925 C.ar    1  UNL1        0.0000
     44 C           4.3198   72.2451   28.7815 C.ar    1  UNL1        0.0000
     45 C           3.7821   72.9303   29.8731 C.ar    1  UNL1        0.0000
     46 C           4.0989   74.2749   30.0781 C.ar    1  UNL1        0.0000
     47 C           4.9536   74.9377   29.1919 C.ar    1  UNL1        0.0000
@<TRIPOS>BOND
     1    32    33    1
     2    33    34   ar
     3    34    28    1
     4    28    29    2
     5    28    30   am
     6    30     1    1
     7     1     2   ar
     8     2     3   ar
     9     3     4   ar
    10     4    10    1
    11    10    11    1
    12    11    12    1
    13    12    13    1
    14    13    16    1
    15    16    17    1
    16    17    18    1
    17    18    19   ar
    18    19    20   ar
    19    20    21   ar
    20    21    22   ar
    21    22    24    1
    22    24    25    2
    23    24    26    1
    24    22    23   ar
    25    13    14    1
    26    14    15    1
    27     4     5   ar
    28     5     6   ar
    29     6     7    1
    30    34    35   ar
    31    35    36   ar
    32    36    37   ar
    33    37    38   ar
    34    38    39   ar
    35    39    42    1
    36    42    43   ar
    37    43    44   ar
    38    44    45   ar
    39    45    46   ar
    40    46    47   ar
    41    39    40   ar
    42    40    41   ar
    43    41    33   ar
    44     6     1   ar
    45    41    36   ar
    46    15    10    1
    47    47    42   ar
    48    23    18   ar
    49    30    31    1
    50    26    27    1
    51     7     8    1
    52     7     9    1
@<TRIPOS>MOLECULE
*****
 47 52 0 0 0
SMALL
GASTEIGER

@<TRIPOS>ATOM
      1 C           9.2541   76.2873   23.2826 C.ar    1  UNL1        0.0823
      2 C          10.3183   76.1668   22.3774 C.ar    1  UNL1        0.0204
      3 C          11.6248   76.4358   22.7832 C.ar    1  UNL1        0.0357
      4 C          11.8731   76.8426   24.1045 C.ar    1  UNL1        0.1332
      5 N          10.8208   76.9669   24.9606 N.ar    1  UNL1       -0.2152
      6 C           9.5351   76.7108   24.5969 C.ar    1  UNL1        0.1403
      7 N           8.5004   76.8510   25.5748 N.pl3   1  UNL1       -0.3416
      8 H           8.7364   77.1849   26.5357 H       1  UNL1        0.1438
      9 H           7.5096   76.5930   25.3770 H       1  UNL1        0.1438
     10 N          13.2151   77.1217   24.5680 N.pl3   1  UNL1       -0.2932
     11 C          13.4769   77.3885   25.9929 C.3     1  UNL1        0.0923
     12 C          14.8665   78.0083   26.2126 C.3     1  UNL1        0.0252
     13 C          15.1779   79.0995   25.1638 C.3     1  UNL1        0.0472
     14 C          15.0023   78.5834   23.7045 C.3     1  UNL1        0.0252
     15 C          14.3358   77.2037   23.6194 C.3     1  UNL1        0.0923
     16 C          14.3378   80.3647   25.4189 C.3     1  UNL1        0.2054
     17 O          13.3990   80.5421   24.3599 O.3     1  UNL1       -0.4755
     18 C          12.0100   80.4055   24.4991 C.ar    1  UNL1        0.1388
     19 C          11.3664   80.4862   25.7476 C.ar    1  UNL1        0.0369
     20 C           9.9820   80.3303   25.8339 C.ar    1  UNL1        0.0033
     21 C           9.2269   80.0995   24.6822 C.ar    1  UNL1        0.0066
     22 C           9.8493   80.0297   23.4235 C.ar    1  UNL1        0.0785
     23 C          11.2470   80.1763   23.3470 C.ar    1  UNL1        0.0433
     24 C           9.0356   79.7814   22.2082 C.2     1  UNL1        0.3381
     25 O           7.8666   80.2452   22.1335 O.2     1  UNL1       -0.2451
     26 O           9.5333   79.0562   21.1260 O.3     1  UNL1       -0.4771
     27 H          10.4944   78.7450   21.0734 H       1  UNL1        0.2954
     28 C           7.4294   76.3704   21.5313 C.2     1  UNL1        0.2840
     29 O           8.2123   76.8696   20.6790 O.2     1  UNL1       -0.2665
     30 N           7.9014   76.0582   22.8532 N.am    1  UNL1       -0.2757
     31 H           7.2286   75.6844   23.5566 H       1  UNL1        0.1553
     32 C           6.1262   73.7007   20.2452 C.3     1  UNL1        0.0345
     33 C           5.4537   74.9884   20.6118 C.ar    1  UNL1        0.0202
     34 C           6.0241   76.1495   21.1480 C.ar    1  UNL1        0.1946
     35 O           5.1050   77.0919   21.2639 O.2     1  UNL1       -0.4492
     36 C           3.9639   76.5944   20.8538 C.ar    1  UNL1        0.1452
     37 C           2.7297   77.2336   20.8095 C.ar    1  UNL1        0.0375
     38 C           1.6267   76.5060   20.3292 C.ar    1  UNL1        0.0031
     39 C           1.7729   75.1582   19.9016 C.ar    1  UNL1        0.0002
     40 C           3.0479   74.5463   19.9616 C.ar    1  UNL1        0.0028
     41 C           4.1188   75.2978   20.4455 C.ar    1  UNL1        0.0337
     42 C           0.6009   74.3993   19.3960 C.ar    1  UNL1        0.0000
     43 C          -0.5560   75.0743   18.9620 C.ar    1  UNL1        0.0000
     44 C          -1.6585   74.3569   18.4875 C.ar    1  UNL1        0.0000
     45 C          -1.6194   72.9617   18.4400 C.ar    1  UNL1        0.0000
     46 C          -0.4776   72.2805   18.8674 C.ar    1  UNL1        0.0000
     47 C           0.6275   72.9925   19.3437 C.ar    1  UNL1        0.0000
@<TRIPOS>BOND
     1    32    33    1
     2    33    34   ar
     3    34    28    1
     4    28    29    2
     5    28    30   am
     6    30     1    1
     7     1     2   ar
     8     2     3   ar
     9     3     4   ar
    10     4    10    1
    11    10    11    1
    12    11    12    1
    13    12    13    1
    14    13    16    1
    15    16    17    1
    16    17    18    1
    17    18    19   ar
    18    19    20   ar
    19    20    21   ar
    20    21    22   ar
    21    22    24    1
    22    24    25    2
    23    24    26    1
    24    22    23   ar
    25    13    14    1
    26    14    15    1
    27     4     5   ar
    28     5     6   ar
    29     6     7    1
    30    34    35   ar
    31    35    36   ar
    32    36    37   ar
    33    37    38   ar
    34    38    39   ar
    35    39    42    1
    36    42    43   ar
    37    43    44   ar
    38    44    45   ar
    39    45    46   ar
    40    46    47   ar
    41    39    40   ar
    42    40    41   ar
    43    41    33   ar
    44     6     1   ar
    45    41    36   ar
    46    15    10    1
    47    47    42   ar
    48    23    18   ar
    49    30    31    1
    50    26    27    1
    51     7     8    1
    52     7     9    1
@<TRIPOS>MOLECULE
*****
 47 52 0 0 0
SMALL
GASTEIGER

@<TRIPOS>ATOM
      1 C          10.3207   79.2168   26.6408 C.ar    1  UNL1        0.0823
      2 C          10.6693   78.5384   27.8176 C.ar    1  UNL1        0.0204
      3 C          10.0248   77.3524   28.1666 C.ar    1  UNL1        0.0357
      4 C           9.0107   76.8420   27.3394 C.ar    1  UNL1        0.1332
      5 N           8.6799   77.5274   26.2096 N.ar    1  UNL1       -0.2152
      6 C           9.2899   78.6858   25.8399 C.ar    1  UNL1        0.1403
      7 N           8.8852   79.3212   24.6238 N.pl3   1  UNL1       -0.3416
      8 H           8.1054   78.9148   24.0605 H       1  UNL1        0.1438
      9 H           9.3692   80.1657   24.2497 H       1  UNL1        0.1438
     10 N           8.3245   75.6094   27.6607 N.pl3   1  UNL1       -0.2932
     11 C           6.9883   75.3279   27.1078 C.3     1  UNL1        0.0923
     12 C           6.2974   74.1688   27.8443 C.3     1  UNL1        0.0252
     13 C           6.4816   74.2736   29.3750 C.3     1  UNL1        0.0472
     14 C           7.9797   74.4024   29.7822 C.3     1  UNL1        0.0252
     15 C           8.9192   74.6390   28.5921 C.3     1  UNL1        0.0923
     16 C           5.6394   75.4256   29.9537 C.3     1  UNL1        0.2054
     17 O           6.4781   76.3141   30.6895 O.3     1  UNL1       -0.4755
     18 C           6.8898   77.5758   30.2356 C.ar    1  UNL1        0.1388
     19 C           6.3244   78.1906   29.1034 C.ar    1  UNL1        0.0369
     20 C           6.7788   79.4423   28.6850 C.ar    1  UNL1        0.0033
     21 C           7.7922   80.0946   29.3903 C.ar    1  UNL1        0.0066
     22 C           8.3603   79.5036   30.5326 C.ar    1  UNL1        0.0785
     23 C           7.9043   78.2361   30.9405 C.ar    1  UNL1        0.0433
     24 C           9.4380   80.2063   31.2711 C.2     1  UNL1        0.3381
     25 O           9.1422   80.9881   32.2137 O.2     1  UNL1       -0.2451
     26 O          10.7847   80.0159   30.9632 O.3     1  UNL1       -0.4771
     27 H          11.0990   79.3274   30.2921 H       1  UNL1        0.2954
     28 C          12.0258   80.5767   25.3577 C.2     1  UNL1        0.2840
     29 O          12.4654   79.5508   24.7722 O.2     1  UNL1       -0.2665
     30 N          10.9495   80.4651   26.3045 N.am    1  UNL1       -0.2757
     31 H          10.6275   81.3188   26.8090 H       1  UNL1        0.1553
     32 C          13.4207   82.6031   27.4619 C.3     1  UNL1        0.0345
     33 C          13.2853   82.7422   25.9762 C.ar    1  UNL1        0.0202
     34 C          12.6621   81.8742   25.0712 C.ar    1  UNL1        0.1946
     35 O          12.6960   82.3898   23.8549 O.2     1  UNL1       -0.4492
     36 C          13.3300   83.5351   23.9202 C.ar    1  UNL1        0.1452
     37 C          13.6028   84.4116   22.8757 C.ar    1  UNL1        0.0375
     38 C          14.3020   85.5947   23.1728 C.ar    1  UNL1        0.0031
     39 C          14.7149   85.8831   24.5021 C.ar    1  UNL1        0.0002
     40 C          14.4146   84.9642   25.5361 C.ar    1  UNL1        0.0028
     41 C          13.7214   83.8002   25.2041 C.ar    1  UNL1        0.0337
     42 C          15.4528   87.1358   24.8042 C.ar    1  UNL1        0.0000
     43 C          16.3542   87.6791   23.8690 C.ar    1  UNL1        0.0000
     44 C          17.0485   88.8582   24.1568 C.ar    1  UNL1        0.0000
     45 C          16.8515   89.5076   25.3773 C.ar    1  UNL1        0.0000
     46 C          15.9599   88.9791   26.3133 C.ar    1  UNL1        0.0000
     47 C          15.2636   87.7998   26.0314 C.ar    1  UNL1        0.0000
@<TRIPOS>BOND
     1    32    33    1
     2    33    34   ar
     3    34    28    1
     4    28    29    2
     5    28    30   am
     6    30     1    1
     7     1     2   ar
     8     2     3   ar
     9     3     4   ar
    10     4    10    1
    11    10    11    1
    12    11    12    1
    13    12    13    1
    14    13    16    1
    15    16    17    1
    16    17    18    1
    17    18    19   ar
    18    19    20   ar
    19    20    21   ar
    20    21    22   ar
    21    22    24    1
    22    24    25    2
    23    24    26    1
    24    22    23   ar
    25    13    14    1
    26    14    15    1
    27     4     5   ar
    28     5     6   ar
    29     6     7    1
    30    34    35   ar
    31    35    36   ar
    32    36    37   ar
    33    37    38   ar
    34    38    39   ar
    35    39    42    1
    36    42    43   ar
    37    43    44   ar
    38    44    45   ar
    39    45    46   ar
    40    46    47   ar
    41    39    40   ar
    42    40    41   ar
    43    41    33   ar
    44     6     1   ar
    45    41    36   ar
    46    15    10    1
    47    47    42   ar
    48    23    18   ar
    49    30    31    1
    50    26    27    1
    51     7     8    1
    52     7     9    1
@<TRIPOS>MOLECULE
*****
 47 52 0 0 0
SMALL
GASTEIGER

@<TRIPOS>ATOM
      1 C           9.8692   76.2563   22.8331 C.ar    1  UNL1        0.0823
      2 C           9.9815   76.5828   24.1923 C.ar    1  UNL1        0.0204
      3 C          11.2220   76.9049   24.7412 C.ar    1  UNL1        0.0357
      4 C          12.3678   76.8890   23.9287 C.ar    1  UNL1        0.1332
      5 N          12.2348   76.5538   22.6151 N.ar    1  UNL1       -0.2152
      6 C          11.0395   76.2360   22.0484 C.ar    1  UNL1        0.1403
      7 N          10.9998   75.9170   20.6545 N.pl3   1  UNL1       -0.3416
      8 H          11.8860   75.8915   20.1026 H       1  UNL1        0.1438
      9 H          10.1045   75.7434   20.1490 H       1  UNL1        0.1438
     10 N          13.6717   77.2266   24.4573 N.pl3   1  UNL1       -0.2932
     11 C          13.8527   77.4945   25.8946 C.3     1  UNL1        0.0923
     12 C          15.1998   78.1765   26.1838 C.3     1  UNL1        0.0252
     13 C          15.5092   79.2889   25.1569 C.3     1  UNL1        0.0472
     14 C          15.4275   78.7763   23.6881 C.3     1  UNL1        0.0252
     15 C          14.8312   77.3678   23.5639 C.3     1  UNL1        0.0923
     16 C          14.5997   80.5117   25.3783 C.3     1  UNL1        0.2054
     17 O          13.6088   80.5677   24.3540 O.3     1  UNL1       -0.4755
     18 C          12.2286   80.4559   24.5777 C.ar    1  UNL1        0.1388
     19 C          11.6650   80.5353   25.8644 C.ar    1  UNL1        0.0369
     20 C          10.2858   80.4047   26.0348 C.ar    1  UNL1        0.0033
     21 C           9.4566   80.2005   24.9300 C.ar    1  UNL1        0.0066
     22 C           9.9987   80.1324   23.6345 C.ar    1  UNL1        0.0785
     23 C          11.3916   80.2534   23.4730 C.ar    1  UNL1        0.0433
     24 C           9.1068   79.9126   22.4697 C.2     1  UNL1        0.3381
     25 O           8.1597   80.7133   22.2481 O.2     1  UNL1       -0.2451
     26 O           9.2936   78.8449   21.5922 O.3     1  UNL1       -0.4771
     27 H          10.0918   78.2260   21.6480 H       1  UNL1        0.2954
     28 C           7.3648   76.5366   22.6037 C.2     1  UNL1        0.2840
     29 O           7.3565   77.5020   23.4140 O.2     1  UNL1       -0.2665
     30 N           8.5994   75.8762   22.2765 N.am    1  UNL1       -0.2757
     31 H           8.5801   75.0535   21.6363 H       1  UNL1        0.1553
     32 C           6.3151   73.4955   22.2439 C.3     1  UNL1        0.0345
     33 C           5.6168   74.7749   21.8969 C.ar    1  UNL1        0.0202
     34 C           6.0823   76.0886   22.0337 C.ar    1  UNL1        0.1946
     35 O           5.1922   76.9358   21.5477 O.2     1  UNL1       -0.4492
     36 C           4.1637   76.2416   21.1255 C.ar    1  UNL1        0.1452
     37 C           2.9954   76.7268   20.5482 C.ar    1  UNL1        0.0375
     38 C           2.0131   75.7966   20.1652 C.ar    1  UNL1        0.0031
     39 C           2.2124   74.4030   20.3627 C.ar    1  UNL1        0.0002
     40 C           3.4176   73.9518   20.9523 C.ar    1  UNL1        0.0028
     41 C           4.3686   74.9032   21.3215 C.ar    1  UNL1        0.0337
     42 C           1.1680   73.4296   19.9542 C.ar    1  UNL1        0.0000
     43 C           1.0381   72.1968   20.6218 C.ar    1  UNL1        0.0000
     44 C           0.0544   71.2817   20.2341 C.ar    1  UNL1        0.0000
     45 C          -0.8091   71.5855   19.1794 C.ar    1  UNL1        0.0000
     46 C          -0.6906   72.8051   18.5094 C.ar    1  UNL1        0.0000
     47 C           0.2918   73.7236   18.8921 C.ar    1  UNL1        0.0000
@<TRIPOS>BOND
     1    32    33    1
     2    33    34   ar
     3    34    28    1
     4    28    29    2
     5    28    30   am
     6    30     1    1
     7     1     2   ar
     8     2     3   ar
     9     3     4   ar
    10     4    10    1
    11    10    11    1
    12    11    12    1
    13    12    13    1
    14    13    16    1
    15    16    17    1
    16    17    18    1
    17    18    19   ar
    18    19    20   ar
    19    20    21   ar
    20    21    22   ar
    21    22    24    1
    22    24    25    2
    23    24    26    1
    24    22    23   ar
    25    13    14    1
    26    14    15    1
    27     4     5   ar
    28     5     6   ar
    29     6     7    1
    30    34    35   ar
    31    35    36   ar
    32    36    37   ar
    33    37    38   ar
    34    38    39   ar
    35    39    42    1
    36    42    43   ar
    37    43    44   ar
    38    44    45   ar
    39    45    46   ar
    40    46    47   ar
    41    39    40   ar
    42    40    41   ar
    43    41    33   ar
    44     6     1   ar
    45    41    36   ar
    46    15    10    1
    47    47    42   ar
    48    23    18   ar
    49    30    31    1
    50    26    27    1
    51     7     8    1
    52     7     9    1
@<TRIPOS>MOLECULE
*****
 47 52 0 0 0
SMALL
GASTEIGER

@<TRIPOS>ATOM
      1 C          10.3932   80.8894   24.5531 C.ar    1  UNL1        0.0823
      2 C           9.9526   80.0092   23.5543 C.ar    1  UNL1        0.0204
      3 C           9.2616   78.8463   23.8921 C.ar    1  UNL1        0.0357
      4 C           9.0175   78.5497   25.2432 C.ar    1  UNL1        0.1332
      5 N           9.4688   79.4129   26.1955 N.ar    1  UNL1       -0.2152
      6 C          10.1444   80.5560   25.8994 C.ar    1  UNL1        0.1403
      7 N          10.5602   81.4088   26.9701 N.pl3   1  UNL1       -0.3416
      8 H          10.3785   81.1264   27.9589 H       1  UNL1        0.1438
      9 H          11.0103   82.3342   26.8014 H       1  UNL1        0.1438
     10 N           8.2956   77.3585   25.6352 N.pl3   1  UNL1       -0.2932
     11 C           8.9865   76.0614   25.7372 C.3     1  UNL1        0.0923
     12 C           7.9945   74.8890   25.8059 C.3     1  UNL1        0.0252
     13 C           6.8385   75.0586   24.7946 C.3     1  UNL1        0.0472
     14 C           6.1180   76.4315   24.9458 C.3     1  UNL1        0.0252
     15 C           6.8466   77.4051   25.8819 C.3     1  UNL1        0.0923
     16 C           7.3309   74.8365   23.3526 C.3     1  UNL1        0.2054
     17 O           7.9405   73.5516   23.2435 O.3     1  UNL1       -0.4755
     18 C           9.2132   73.3202   22.7011 C.ar    1  UNL1        0.1388
     19 C           9.7972   72.0406   22.6687 C.ar    1  UNL1        0.0369
     20 C          11.0726   71.8656   22.1294 C.ar    1  UNL1        0.0033
     21 C          11.7741   72.9572   21.6135 C.ar    1  UNL1        0.0066
     22 C          11.2024   74.2416   21.6236 C.ar    1  UNL1        0.0785
     23 C           9.9207   74.4110   22.1799 C.ar    1  UNL1        0.0433
     24 C          11.9596   75.3931   21.0746 C.2     1  UNL1        0.3381
     25 O          12.2849   76.3453   21.8326 O.2     1  UNL1       -0.2451
     26 O          12.3415   75.4499   19.7347 O.3     1  UNL1       -0.4771
     27 H          12.2066   74.6775   19.0955 H       1  UNL1        0.2954
     28 C          12.5150   82.2671   24.6077 C.2     1  UNL1        0.2840
     29 O          13.1142   81.3939   25.2910 O.2     1  UNL1       -0.2665
     30 N          11.1484   82.0635   24.2097 N.am    1  UNL1       -0.2757
     31 H          10.6572   82.8154   23.6801 H       1  UNL1        0.1553
     32 C          15.4941   82.5360   23.3697 C.3     1  UNL1        0.0345
     33 C          14.5174   83.6216   23.7051 C.ar    1  UNL1        0.0202
     34 C          13.2375   83.5034   24.2609 C.ar    1  UNL1        0.1946
     35 O          12.7230   84.7027   24.4686 O.2     1  UNL1       -0.4492
     36 C          13.5924   85.5915   24.0538 C.ar    1  UNL1        0.1452
     37 C          13.4622   86.9758   24.0744 C.ar    1  UNL1        0.0375
     38 C          14.5273   87.7462   23.5754 C.ar    1  UNL1        0.0031
     39 C          15.7006   87.1251   23.0670 C.ar    1  UNL1        0.0002
     40 C          15.7925   85.7126   23.0665 C.ar    1  UNL1        0.0028
     41 C          14.7159   84.9807   23.5674 C.ar    1  UNL1        0.0337
     42 C          16.8192   87.9488   22.5425 C.ar    1  UNL1        0.0000
     43 C          16.7508   88.5117   21.2538 C.ar    1  UNL1        0.0000
     44 C          17.8063   89.2860   20.7621 C.ar    1  UNL1        0.0000
     45 C          18.9389   89.5075   21.5485 C.ar    1  UNL1        0.0000
     46 C          19.0188   88.9549   22.8286 C.ar    1  UNL1        0.0000
     47 C          17.9668   88.1791   23.3251 C.ar    1  UNL1        0.0000
@<TRIPOS>BOND
     1    32    33    1
     2    33    34   ar
     3    34    28    1
     4    28    29    2
     5    28    30   am
     6    30     1    1
     7     1     2   ar
     8     2     3   ar
     9     3     4   ar
    10     4    10    1
    11    10    11    1
    12    11    12    1
    13    12    13    1
    14    13    16    1
    15    16    17    1
    16    17    18    1
    17    18    19   ar
    18    19    20   ar
    19    20    21   ar
    20    21    22   ar
    21    22    24    1
    22    24    25    2
    23    24    26    1
    24    22    23   ar
    25    13    14    1
    26    14    15    1
    27     4     5   ar
    28     5     6   ar
    29     6     7    1
    30    34    35   ar
    31    35    36   ar
    32    36    37   ar
    33    37    38   ar
    34    38    39   ar
    35    39    42    1
    36    42    43   ar
    37    43    44   ar
    38    44    45   ar
    39    45    46   ar
    40    46    47   ar
    41    39    40   ar
    42    40    41   ar
    43    41    33   ar
    44     6     1   ar
    45    41    36   ar
    46    15    10    1
    47    47    42   ar
    48    23    18   ar
    49    30    31    1
    50    26    27    1
    51     7     8    1
    52     7     9    1
@<TRIPOS>MOLECULE
*****
 47 52 0 0 0
SMALL
GASTEIGER

@<TRIPOS>ATOM
      1 C           8.6723   79.2926   28.6104 C.ar    1  UNL1        0.0823
      2 C           7.2803   79.4206   28.4987 C.ar    1  UNL1        0.0204
      3 C           6.4362   78.4493   29.0354 C.ar    1  UNL1        0.0357
      4 C           6.9861   77.3291   29.6804 C.ar    1  UNL1        0.1332
      5 N           8.3415   77.2201   29.7625 N.ar    1  UNL1       -0.2152
      6 C           9.1923   78.1503   29.2511 C.ar    1  UNL1        0.1403
      7 N          10.6012   77.9559   29.4056 N.pl3   1  UNL1       -0.3416
      8 H          10.9578   77.0903   29.8683 H       1  UNL1        0.1438
      9 H          11.2976   78.6715   29.1054 H       1  UNL1        0.1438
     10 N           6.1449   76.3040   30.2592 N.pl3   1  UNL1       -0.2932
     11 C           6.7021   74.9868   30.6127 C.3     1  UNL1        0.0923
     12 C           5.5975   73.9472   30.8625 C.3     1  UNL1        0.0252
     13 C           4.4751   74.0403   29.8045 C.3     1  UNL1        0.0472
     14 C           3.8934   75.4805   29.6856 C.3     1  UNL1        0.0252
     15 C           4.7052   76.5335   30.4519 C.3     1  UNL1        0.0923
     16 C           4.9585   73.5135   28.4406 C.3     1  UNL1        0.2054
     17 O           4.6095   74.4404   27.4142 O.3     1  UNL1       -0.4755
     18 C           5.5080   75.3330   26.8115 C.ar    1  UNL1        0.1388
     19 C           5.0814   76.4963   26.1450 C.ar    1  UNL1        0.0369
     20 C           6.0156   77.3458   25.5500 C.ar    1  UNL1        0.0033
     21 C           7.3787   77.0502   25.6177 C.ar    1  UNL1        0.0066
     22 C           7.8263   75.9001   26.2913 C.ar    1  UNL1        0.0785
     23 C           6.8768   75.0429   26.8782 C.ar    1  UNL1        0.0433
     24 C           9.2771   75.5964   26.3535 C.2     1  UNL1        0.3381
     25 O           9.8938   75.7144   27.4457 O.2     1  UNL1       -0.2451
     26 O           9.9861   75.1645   25.2331 O.3     1  UNL1       -0.4771
     27 H           9.5368   74.9480   24.3530 H       1  UNL1        0.2954
     28 C          10.2444   80.0498   26.7778 C.2     1  UNL1        0.2840
     29 O          10.1094   78.9623   26.1551 O.2     1  UNL1       -0.2665
     30 N           9.5448   80.2677   28.0149 N.am    1  UNL1       -0.2757
     31 H           9.7015   81.1571   28.5361 H       1  UNL1        0.1553
     32 C          10.6177   80.8908   23.6741 C.3     1  UNL1        0.0345
     33 C          11.3033   81.4473   24.8845 C.ar    1  UNL1        0.0202
     34 C          11.1556   81.0664   26.2240 C.ar    1  UNL1        0.1946
     35 O          11.9908   81.7535   26.9833 O.2     1  UNL1       -0.4492
     36 C          12.6546   82.5770   26.2094 C.ar    1  UNL1        0.1452
     37 C          13.6302   83.4927   26.5881 C.ar    1  UNL1        0.0375
     38 C          14.2180   84.2832   25.5850 C.ar    1  UNL1        0.0031
     39 C          13.8251   84.1469   24.2256 C.ar    1  UNL1        0.0002
     40 C          12.8294   83.2008   23.8834 C.ar    1  UNL1        0.0028
     41 C          12.2670   82.4354   24.9049 C.ar    1  UNL1        0.0337
     42 C          14.4529   84.9872   23.1745 C.ar    1  UNL1        0.0000
     43 C          14.3742   84.6153   21.8188 C.ar    1  UNL1        0.0000
     44 C          14.9673   85.4079   20.8313 C.ar    1  UNL1        0.0000
     45 C          15.6433   86.5780   21.1839 C.ar    1  UNL1        0.0000
     46 C          15.7281   86.9580   22.5250 C.ar    1  UNL1        0.0000
     47 C          15.1378   86.1688   23.5169 C.ar    1  UNL1        0.0000
@<TRIPOS>BOND
     1    32    33    1
     2    33    34   ar
     3    34    28    1
     4    28    29    2
     5    28    30   am
     6    30     1    1
     7     1     2   ar
     8     2     3   ar
     9     3     4   ar
    10     4    10    1
    11    10    11    1
    12    11    12    1
    13    12    13    1
    14    13    16    1
    15    16    17    1
    16    17    18    1
    17    18    19   ar
    18    19    20   ar
    19    20    21   ar
    20    21    22   ar
    21    22    24    1
    22    24    25    2
    23    24    26    1
    24    22    23   ar
    25    13    14    1
    26    14    15    1
    27     4     5   ar
    28     5     6   ar
    29     6     7    1
    30    34    35   ar
    31    35    36   ar
    32    36    37   ar
    33    37    38   ar
    34    38    39   ar
    35    39    42    1
    36    42    43   ar
    37    43    44   ar
    38    44    45   ar
    39    45    46   ar
    40    46    47   ar
    41    39    40   ar
    42    40    41   ar
    43    41    33   ar
    44     6     1   ar
    45    41    36   ar
    46    15    10    1
    47    47    42   ar
    48    23    18   ar
    49    30    31    1
    50    26    27    1
    51     7     8    1
    52     7     9    1
