@<TRIPOS>MOLECULE
*****
 47 52 0 0 0
SMALL
GASTEIGER

@<TRIPOS>ATOM
      1 O          62.7159   91.5417    9.6183 O.2     1  UNL1       -0.2701
      2 C          62.6585   90.6351   10.4912 C.2     1  UNL1        0.2483
      3 N          63.2904   90.8463   11.7672 N.am    1  UNL1       -0.2945
      4 H          63.7217   91.7838   11.9370 H       1  UNL1        0.1501
      5 C          62.0041   89.3594   10.1500 C.ar    1  UNL1        0.0808
      6 C          62.7933   88.2417    9.8508 C.ar    1  UNL1        0.0080
      7 C          62.2012   86.9920    9.6548 C.ar    1  UNL1        0.0148
      8 C          60.8073   86.8410    9.7514 C.ar    1  UNL1        0.0502
      9 C          60.0147   87.9798    9.9826 C.ar    1  UNL1        0.0443
     10 C          60.6065   89.2322   10.1705 C.ar    1  UNL1        0.1457
     11 F          59.8163   90.3174   10.3714 F       1  UNL1       -0.2040
     12 N          60.2012   85.5365    9.6347 N.pl3   1  UNL1       -0.3040
     13 C          58.7355   85.4080    9.5981 C.3     1  UNL1        0.1122
     14 C          58.2828   84.1450   10.3395 C.3     1  UNL1        0.1123
     15 N          59.1059   82.9853    9.9804 N.pl3   1  UNL1       -0.3034
     16 C          60.2316   83.1208    9.0547 C.3     1  UNL1        0.1123
     17 C          61.0558   84.3548    9.4279 C.3     1  UNL1        0.1122
     18 C          58.7366   81.6898   10.4668 C.ar    1  UNL1        0.0595
     19 C          58.0026   80.8270    9.6426 C.ar    1  UNL1        0.0154
     20 C          57.6311   79.5625   10.1031 C.ar    1  UNL1        0.0022
     21 C          57.9925   79.1515   11.3878 C.ar    1  UNL1        0.0123
     22 C          58.7309   80.0017   12.2190 C.ar    1  UNL1        0.0694
     23 CL         59.1714   79.4424   13.8272 Cl      1  UNL1       -0.0813
     24 C          59.1087   81.2771   11.7603 C.ar    1  UNL1        0.0815
     25 CL         60.0613   82.3489   12.7861 Cl      1  UNL1       -0.0801
     26 C          63.3922   89.8151   12.8103 C.3     1  UNL1        0.1535
     27 C          64.5377   90.1219   13.7445 C.2     1  UNL1        0.2443
     28 O          64.7047   89.4156   14.7755 O.2     1  UNL1       -0.2730
     29 N          65.4621   91.1730   13.4154 N.am    1  UNL1       -0.2825
     30 H          65.4654   91.5165   12.4280 H       1  UNL1        0.1549
     31 C          66.4142   91.7568   14.3238 C.ar    1  UNL1        0.0535
     32 C          66.0258   92.3222   15.5518 C.ar    1  UNL1        0.0353
     33 C          66.9868   92.9186   16.3718 C.ar    1  UNL1        0.1002
     34 N          68.2879   92.9578   15.9825 N.ar    1  UNL1       -0.2422
     35 C          68.6912   92.4316   14.7967 C.ar    1  UNL1        0.1002
     36 C          67.7619   91.8324   13.9439 C.ar    1  UNL1        0.0353
     37 C          62.0688   89.6982   13.5898 C.3     1  UNL1        0.0569
     38 C          61.5437   88.2902   13.5699 C.ar    1  UNL1       -0.0017
     39 C          62.2969   87.1271   13.4394 C.ar    1  UNL1        0.0681
     40 N          61.4867   86.0482   13.3448 N.ar    1  UNL1       -0.3523
     41 C          60.2296   86.5214   13.4007 C.ar    1  UNL1        0.0563
     42 C          59.0465   85.7894   13.3102 C.ar    1  UNL1        0.0170
     43 C          57.8308   86.4960   13.3601 C.ar    1  UNL1        0.0015
     44 C          57.8251   87.9025   13.4932 C.ar    1  UNL1        0.0001
     45 C          59.0349   88.6151   13.5792 C.ar    1  UNL1        0.0012
     46 C          60.2235   87.8862   13.5336 C.ar    1  UNL1        0.0131
     47 H          61.7820   85.0534   13.2279 H       1  UNL1        0.1660
@<TRIPOS>BOND
     1     1     2    2
     2     2     3   am
     3     3    26    1
     4    26    37    1
     5    37    38    1
     6    38    39   ar
     7    39    40   ar
     8    40    41   ar
     9    41    42   ar
    10    42    43   ar
    11    43    44   ar
    12    44    45   ar
    13    45    46   ar
    14    26    27    1
    15    27    28    2
    16    27    29   am
    17    29    31    1
    18    31    32   ar
    19    32    33   ar
    20    33    34   ar
    21    34    35   ar
    22    35    36   ar
    23     2     5    1
    24     5     6   ar
    25     6     7   ar
    26     7     8   ar
    27     8    12    1
    28    12    13    1
    29    13    14    1
    30    14    15    1
    31    15    18    1
    32    18    19   ar
    33    19    20   ar
    34    20    21   ar
    35    21    22   ar
    36    22    23    1
    37    22    24   ar
    38    24    25    1
    39    15    16    1
    40    16    17    1
    41     8     9   ar
    42     9    10   ar
    43    10    11    1
    44    46    38   ar
    45    36    31   ar
    46    10     5   ar
    47    46    41   ar
    48    17    12    1
    49    24    18   ar
    50     3     4    1
    51    40    47    1
    52    29    30    1
@<TRIPOS>MOLECULE
*****
 47 52 0 0 0
SMALL
GASTEIGER

@<TRIPOS>ATOM
      1 O          62.8202   91.6248    9.5489 O.2     1  UNL1       -0.2701
      2 C          62.7408   90.7469   10.4489 C.2     1  UNL1        0.2483
      3 N          63.4025   90.9685   11.7080 N.am    1  UNL1       -0.2945
      4 H          63.8745   91.8919   11.8432 H       1  UNL1        0.1501
      5 C          62.0292   89.4900   10.1560 C.ar    1  UNL1        0.0808
      6 C          62.7567   88.2976   10.0522 C.ar    1  UNL1        0.0080
      7 C          62.0935   87.0769    9.9075 C.ar    1  UNL1        0.0148
      8 C          60.6898   87.0300    9.8602 C.ar    1  UNL1        0.0502
      9 C          59.9678   88.2366    9.8943 C.ar    1  UNL1        0.0443
     10 C          60.6317   89.4592   10.0308 C.ar    1  UNL1        0.1457
     11 F          59.9111   90.6095   10.0401 F       1  UNL1       -0.2040
     12 N          60.0001   85.7638    9.7973 N.pl3   1  UNL1       -0.3040
     13 C          58.5989   85.6677   10.2371 C.3     1  UNL1        0.1122
     14 C          58.3385   84.3256   10.9303 C.3     1  UNL1        0.1123
     15 N          58.9250   83.2095   10.1810 N.pl3   1  UNL1       -0.3034
     16 C          59.6899   83.4467    8.9559 C.3     1  UNL1        0.1123
     17 C          60.6651   84.6049    9.1773 C.3     1  UNL1        0.1122
     18 C          58.6573   81.8675   10.6041 C.ar    1  UNL1        0.0595
     19 C          57.9845   80.9933    9.7407 C.ar    1  UNL1        0.0154
     20 C          57.7121   79.6834   10.1394 C.ar    1  UNL1        0.0022
     21 C          58.1122   79.2383   11.4011 C.ar    1  UNL1        0.0123
     22 C          58.7905   80.1000   12.2709 C.ar    1  UNL1        0.0694
     23 CL         59.2829   79.4974   13.8480 Cl      1  UNL1       -0.0813
     24 C          59.0684   81.4211   11.8744 C.ar    1  UNL1        0.0815
     25 CL         59.9449   82.5101   12.9488 Cl      1  UNL1       -0.0801
     26 C          63.4801   89.9645   12.7792 C.3     1  UNL1        0.1535
     27 C          64.6744   90.2289   13.6639 C.2     1  UNL1        0.2443
     28 O          64.9257   89.4451   14.6190 O.2     1  UNL1       -0.2730
     29 N          65.5475   91.3327   13.3690 N.am    1  UNL1       -0.2825
     30 H          65.4785   91.7570   12.4161 H       1  UNL1        0.1549
     31 C          66.5398   91.8691   14.2635 C.ar    1  UNL1        0.0535
     32 C          67.9014   91.9341   13.9170 C.ar    1  UNL1        0.0353
     33 C          68.8272   92.4194   14.8438 C.ar    1  UNL1        0.1002
     34 N          68.4156   92.8205   16.0748 N.ar    1  UNL1       -0.2422
     35 C          67.1094   92.7579   16.4429 C.ar    1  UNL1        0.1002
     36 C          66.1522   92.2726   15.5494 C.ar    1  UNL1        0.0353
     37 C          62.1807   89.9510   13.6064 C.3     1  UNL1        0.0569
     38 C          61.8285   88.5593   14.0510 C.ar    1  UNL1       -0.0017
     39 C          61.0254   87.6502   13.3687 C.ar    1  UNL1        0.0681
     40 N          60.8294   86.5398   14.1158 N.ar    1  UNL1       -0.3523
     41 C          61.4901   86.7460   15.2684 C.ar    1  UNL1        0.0563
     42 C          61.5555   85.8930   16.3692 C.ar    1  UNL1        0.0170
     43 C          62.2824   86.3252   17.4936 C.ar    1  UNL1        0.0015
     44 C          62.9167   87.5876   17.4942 C.ar    1  UNL1        0.0001
     45 C          62.8311   88.4287   16.3699 C.ar    1  UNL1        0.0012
     46 C          62.1090   87.9697   15.2680 C.ar    1  UNL1        0.0131
     47 H          60.2596   85.7042   13.8558 H       1  UNL1        0.1660
@<TRIPOS>BOND
     1     1     2    2
     2     2     3   am
     3     3    26    1
     4    26    37    1
     5    37    38    1
     6    38    39   ar
     7    39    40   ar
     8    40    41   ar
     9    41    42   ar
    10    42    43   ar
    11    43    44   ar
    12    44    45   ar
    13    45    46   ar
    14    26    27    1
    15    27    28    2
    16    27    29   am
    17    29    31    1
    18    31    32   ar
    19    32    33   ar
    20    33    34   ar
    21    34    35   ar
    22    35    36   ar
    23     2     5    1
    24     5     6   ar
    25     6     7   ar
    26     7     8   ar
    27     8    12    1
    28    12    13    1
    29    13    14    1
    30    14    15    1
    31    15    18    1
    32    18    19   ar
    33    19    20   ar
    34    20    21   ar
    35    21    22   ar
    36    22    23    1
    37    22    24   ar
    38    24    25    1
    39    15    16    1
    40    16    17    1
    41     8     9   ar
    42     9    10   ar
    43    10    11    1
    44    46    38   ar
    45    36    31   ar
    46    10     5   ar
    47    46    41   ar
    48    17    12    1
    49    24    18   ar
    50     3     4    1
    51    40    47    1
    52    29    30    1
@<TRIPOS>MOLECULE
*****
 47 52 0 0 0
SMALL
GASTEIGER

@<TRIPOS>ATOM
      1 O          63.9345   90.7187   15.7192 O.2     1  UNL1       -0.2701
      2 C          63.5499   90.4109   14.5598 C.2     1  UNL1        0.2483
      3 N          63.8410   91.2973   13.4636 N.am    1  UNL1       -0.2945
      4 H          64.4235   92.1402   13.6732 H       1  UNL1        0.1501
      5 C          62.7530   89.1847   14.3766 C.ar    1  UNL1        0.0808
      6 C          61.3617   89.2829   14.2490 C.ar    1  UNL1        0.0080
      7 C          60.5998   88.1531   13.9429 C.ar    1  UNL1        0.0148
      8 C          61.2182   86.9040   13.7630 C.ar    1  UNL1        0.0502
      9 C          62.6067   86.7982   13.9614 C.ar    1  UNL1        0.0443
     10 C          63.3684   87.9273   14.2760 C.ar    1  UNL1        0.1457
     11 F          64.7032   87.7923   14.4823 F       1  UNL1       -0.2040
     12 N          60.4444   85.7536   13.3625 N.pl3   1  UNL1       -0.3040
     13 C          60.8768   84.4034   13.7578 C.3     1  UNL1        0.1122
     14 C          60.5853   83.3922   12.6433 C.3     1  UNL1        0.1123
     15 N          59.2386   83.5725   12.0910 N.pl3   1  UNL1       -0.3034
     16 C          58.3661   84.6442   12.5732 C.3     1  UNL1        0.1123
     17 C          59.1607   85.9485   12.6668 C.3     1  UNL1        0.1122
     18 C          58.7414   82.6238   11.1401 C.ar    1  UNL1        0.0595
     19 C          58.4245   83.0483    9.8433 C.ar    1  UNL1        0.0154
     20 C          57.9347   82.1371    8.9057 C.ar    1  UNL1        0.0022
     21 C          57.7611   80.7968    9.2570 C.ar    1  UNL1        0.0123
     22 C          58.0796   80.3586   10.5476 C.ar    1  UNL1        0.0694
     23 CL         57.8527   78.6609   10.9465 Cl      1  UNL1       -0.0813
     24 C          58.5742   81.2722   11.4966 C.ar    1  UNL1        0.0815
     25 CL         59.0044   80.7299   13.1181 Cl      1  UNL1       -0.0801
     26 C          63.3366   91.1011   12.0966 C.3     1  UNL1        0.1535
     27 C          64.1853   91.8627   11.1073 C.2     1  UNL1        0.2443
     28 O          63.7582   92.0479    9.9356 O.2     1  UNL1       -0.2730
     29 N          65.4404   92.4230   11.5299 N.am    1  UNL1       -0.2825
     30 H          65.6049   92.5082   12.5588 H       1  UNL1        0.1549
     31 C          66.4672   92.9181   10.6507 C.ar    1  UNL1        0.0535
     32 C          67.5783   92.1372   10.2849 C.ar    1  UNL1        0.0353
     33 C          68.5692   92.6866    9.4676 C.ar    1  UNL1        0.1002
     34 N          68.4632   93.9697    9.0338 N.ar    1  UNL1       -0.2422
     35 C          67.4085   94.7525    9.3807 C.ar    1  UNL1        0.1002
     36 C          66.3994   94.2449   10.2017 C.ar    1  UNL1        0.0353
     37 C          63.2972   89.6026   11.7418 C.3     1  UNL1        0.0569
     38 C          62.1418   89.2843   10.8351 C.ar    1  UNL1       -0.0017
     39 C          61.1094   90.1457   10.4756 C.ar    1  UNL1        0.0681
     40 N          60.1823   89.4905    9.7403 N.ar    1  UNL1       -0.3523
     41 C          60.6136   88.2208    9.6444 C.ar    1  UNL1        0.0563
     42 C          59.9760   87.1577    9.0064 C.ar    1  UNL1        0.0170
     43 C          60.5939   85.8947    9.0566 C.ar    1  UNL1        0.0015
     44 C          61.8189   85.7236    9.7393 C.ar    1  UNL1        0.0001
     45 C          62.4379   86.8142   10.3767 C.ar    1  UNL1        0.0012
     46 C          61.8045   88.0550   10.3038 C.ar    1  UNL1        0.0131
     47 H          59.2998   89.8885    9.3489 H       1  UNL1        0.1660
@<TRIPOS>BOND
     1     1     2    2
     2     2     3   am
     3     3    26    1
     4    26    37    1
     5    37    38    1
     6    38    39   ar
     7    39    40   ar
     8    40    41   ar
     9    41    42   ar
    10    42    43   ar
    11    43    44   ar
    12    44    45   ar
    13    45    46   ar
    14    26    27    1
    15    27    28    2
    16    27    29   am
    17    29    31    1
    18    31    32   ar
    19    32    33   ar
    20    33    34   ar
    21    34    35   ar
    22    35    36   ar
    23     2     5    1
    24     5     6   ar
    25     6     7   ar
    26     7     8   ar
    27     8    12    1
    28    12    13    1
    29    13    14    1
    30    14    15    1
    31    15    18    1
    32    18    19   ar
    33    19    20   ar
    34    20    21   ar
    35    21    22   ar
    36    22    23    1
    37    22    24   ar
    38    24    25    1
    39    15    16    1
    40    16    17    1
    41     8     9   ar
    42     9    10   ar
    43    10    11    1
    44    46    38   ar
    45    36    31   ar
    46    10     5   ar
    47    46    41   ar
    48    17    12    1
    49    24    18   ar
    50     3     4    1
    51    40    47    1
    52    29    30    1
@<TRIPOS>MOLECULE
*****
 47 52 0 0 0
SMALL
GASTEIGER

@<TRIPOS>ATOM
      1 O          62.8235   87.0869   18.5962 O.2     1  UNL1       -0.2701
      2 C          62.8190   87.3668   17.3679 C.2     1  UNL1        0.2483
      3 N          63.4431   88.5848   16.9218 N.am    1  UNL1       -0.2945
      4 H          63.9355   89.1607   17.6427 H       1  UNL1        0.1501
      5 C          62.1126   86.4695   16.4363 C.ar    1  UNL1        0.0808
      6 C          60.8459   86.8325   15.9613 C.ar    1  UNL1        0.0080
      7 C          60.2150   86.0667   14.9784 C.ar    1  UNL1        0.0148
      8 C          60.8405   84.9214   14.4567 C.ar    1  UNL1        0.0502
      9 C          62.0807   84.5230   14.9875 C.ar    1  UNL1        0.0443
     10 C          62.7085   85.2846   15.9772 C.ar    1  UNL1        0.1457
     11 F          63.8951   84.8653   16.4860 F       1  UNL1       -0.2040
     12 N          60.2297   84.1779   13.3811 N.pl3   1  UNL1       -0.3040
     13 C          60.5796   82.7633   13.1744 C.3     1  UNL1        0.1122
     14 C          60.6173   82.4265   11.6795 C.3     1  UNL1        0.1123
     15 N          59.4578   82.9811   10.9729 N.pl3   1  UNL1       -0.3034
     16 C          58.4610   83.7859   11.6807 C.3     1  UNL1        0.1123
     17 C          59.1682   84.8059   12.5757 C.3     1  UNL1        0.1122
     18 C          59.2525   82.6437    9.5962 C.ar    1  UNL1        0.0595
     19 C          58.2424   81.7363    9.2516 C.ar    1  UNL1        0.0154
     20 C          58.0320   81.3935    7.9147 C.ar    1  UNL1        0.0022
     21 C          58.8271   81.9567    6.9143 C.ar    1  UNL1        0.0123
     22 C          59.8357   82.8692    7.2448 C.ar    1  UNL1        0.0694
     23 CL         60.8096   83.5603    5.9537 Cl      1  UNL1       -0.0813
     24 C          60.0521   83.2189    8.5903 C.ar    1  UNL1        0.0815
     25 CL         61.3014   84.3866    9.0195 Cl      1  UNL1       -0.0801
     26 C          63.3902   89.0709   15.5352 C.3     1  UNL1        0.1535
     27 C          63.9758   90.4591   15.4407 C.2     1  UNL1        0.2443
     28 O          63.2394   91.4599   15.6544 O.2     1  UNL1       -0.2730
     29 N          65.3790   90.6224   15.1721 N.am    1  UNL1       -0.2825
     30 H          65.9928   89.7866   15.3050 H       1  UNL1        0.1549
     31 C          66.0121   91.8546   14.7804 C.ar    1  UNL1        0.0535
     32 C          65.7886   92.4428   13.5225 C.ar    1  UNL1        0.0353
     33 C          66.4679   93.6137   13.1774 C.ar    1  UNL1        0.1002
     34 N          67.3440   94.1775   14.0494 N.ar    1  UNL1       -0.2422
     35 C          67.5902   93.6259   15.2663 C.ar    1  UNL1        0.1002
     36 C          66.9378   92.4518   15.6482 C.ar    1  UNL1        0.0353
     37 C          64.1276   88.1022   14.5914 C.3     1  UNL1        0.0569
     38 C          63.3956   87.9431   13.2886 C.ar    1  UNL1       -0.0017
     39 C          62.9387   86.7504   12.7356 C.ar    1  UNL1        0.0681
     40 N          62.4284   86.9670   11.5018 N.ar    1  UNL1       -0.3523
     41 C          62.5717   88.2828   11.2662 C.ar    1  UNL1        0.0563
     42 C          62.2213   88.9771   10.1090 C.ar    1  UNL1        0.0170
     43 C          62.4920   90.3569   10.0628 C.ar    1  UNL1        0.0015
     44 C          63.1039   91.0037   11.1597 C.ar    1  UNL1        0.0001
     45 C          63.4494   90.2768   12.3135 C.ar    1  UNL1        0.0012
     46 C          63.1623   88.9117   12.3321 C.ar    1  UNL1        0.0131
     47 H          62.0273   86.2503   10.8568 H       1  UNL1        0.1660
@<TRIPOS>BOND
     1     1     2    2
     2     2     3   am
     3     3    26    1
     4    26    37    1
     5    37    38    1
     6    38    39   ar
     7    39    40   ar
     8    40    41   ar
     9    41    42   ar
    10    42    43   ar
    11    43    44   ar
    12    44    45   ar
    13    45    46   ar
    14    26    27    1
    15    27    28    2
    16    27    29   am
    17    29    31    1
    18    31    32   ar
    19    32    33   ar
    20    33    34   ar
    21    34    35   ar
    22    35    36   ar
    23     2     5    1
    24     5     6   ar
    25     6     7   ar
    26     7     8   ar
    27     8    12    1
    28    12    13    1
    29    13    14    1
    30    14    15    1
    31    15    18    1
    32    18    19   ar
    33    19    20   ar
    34    20    21   ar
    35    21    22   ar
    36    22    23    1
    37    22    24   ar
    38    24    25    1
    39    15    16    1
    40    16    17    1
    41     8     9   ar
    42     9    10   ar
    43    10    11    1
    44    46    38   ar
    45    36    31   ar
    46    10     5   ar
    47    46    41   ar
    48    17    12    1
    49    24    18   ar
    50     3     4    1
    51    40    47    1
    52    29    30    1
@<TRIPOS>MOLECULE
*****
 47 52 0 0 0
SMALL
GASTEIGER

@<TRIPOS>ATOM
      1 O          56.4066   86.1288   13.8218 O.2     1  UNL1       -0.2701
      2 C          57.4772   86.0691   13.1605 C.2     1  UNL1        0.2483
      3 N          57.5270   85.2546   11.9747 N.am    1  UNL1       -0.2945
      4 H          56.6381   84.7914   11.6761 H       1  UNL1        0.1501
      5 C          58.6649   86.7823   13.6635 C.ar    1  UNL1        0.0808
      6 C          59.7647   86.0460   14.1217 C.ar    1  UNL1        0.0080
      7 C          60.9490   86.6948   14.4781 C.ar    1  UNL1        0.0148
      8 C          61.0510   88.0934   14.3853 C.ar    1  UNL1        0.0502
      9 C          59.9209   88.8326   13.9915 C.ar    1  UNL1        0.0443
     10 C          58.7328   88.1840   13.6428 C.ar    1  UNL1        0.1457
     11 F          57.6517   88.9234   13.2863 F       1  UNL1       -0.2040
     12 N          62.2998   88.7581   14.6704 N.pl3   1  UNL1       -0.3040
     13 C          62.5225   89.3685   15.9910 C.3     1  UNL1        0.1122
     14 C          63.3327   90.6632   15.8607 C.3     1  UNL1        0.1123
     15 N          64.4742   90.4956   14.9551 N.pl3   1  UNL1       -0.3034
     16 C          64.7064   89.2252   14.2662 C.3     1  UNL1        0.1123
     17 C          63.3892   88.7123   13.6801 C.3     1  UNL1        0.1122
     18 C          65.4246   91.5592   14.8257 C.ar    1  UNL1        0.0595
     19 C          66.2351   91.8967   15.9174 C.ar    1  UNL1        0.0154
     20 C          67.1635   92.9337   15.8092 C.ar    1  UNL1        0.0022
     21 C          67.2898   93.6376   14.6098 C.ar    1  UNL1        0.0123
     22 C          66.4902   93.3064   13.5097 C.ar    1  UNL1        0.0694
     23 CL         66.6860   94.2135   12.0158 Cl      1  UNL1       -0.0813
     24 C          65.5531   92.2619   13.6127 C.ar    1  UNL1        0.0815
     25 CL         64.5575   91.8160   12.2276 Cl      1  UNL1       -0.0801
     26 C          58.7522   85.0139   11.1983 C.3     1  UNL1        0.1535
     27 C          58.8834   83.5481   10.8617 C.2     1  UNL1        0.2443
     28 O          59.1322   83.2031    9.6749 O.2     1  UNL1       -0.2730
     29 N          58.7876   82.5666   11.9083 N.am    1  UNL1       -0.2825
     30 H          58.8873   82.9044   12.8926 H       1  UNL1        0.1549
     31 C          58.6124   81.1520   11.7071 C.ar    1  UNL1        0.0535
     32 C          58.0062   80.6311   10.5498 C.ar    1  UNL1        0.0353
     33 C          57.8180   79.2520   10.4301 C.ar    1  UNL1        0.1002
     34 N          58.2128   78.4194   11.4284 N.ar    1  UNL1       -0.2422
     35 C          58.7896   78.8938   12.5633 C.ar    1  UNL1        0.1002
     36 C          58.9897   80.2661   12.7266 C.ar    1  UNL1        0.0353
     37 C          58.7613   85.8706    9.9182 C.3     1  UNL1        0.0569
     38 C          60.0908   86.5418    9.7175 C.ar    1  UNL1       -0.0017
     39 C          61.2796   85.9272    9.3352 C.ar    1  UNL1        0.0681
     40 N          62.3005   86.8139    9.3657 N.ar    1  UNL1       -0.3523
     41 C          61.7692   87.9784    9.7769 C.ar    1  UNL1        0.0563
     42 C          62.4380   89.1823    9.9940 C.ar    1  UNL1        0.0170
     43 C          61.6866   90.2770   10.4594 C.ar    1  UNL1        0.0015
     44 C          60.3006   90.1442   10.6989 C.ar    1  UNL1        0.0001
     45 C          59.6530   88.9159   10.4737 C.ar    1  UNL1        0.0012
     46 C          60.4232   87.8509   10.0059 C.ar    1  UNL1        0.0131
     47 H          63.3016   86.6223    9.1383 H       1  UNL1        0.1660
@<TRIPOS>BOND
     1     1     2    2
     2     2     3   am
     3     3    26    1
     4    26    37    1
     5    37    38    1
     6    38    39   ar
     7    39    40   ar
     8    40    41   ar
     9    41    42   ar
    10    42    43   ar
    11    43    44   ar
    12    44    45   ar
    13    45    46   ar
    14    26    27    1
    15    27    28    2
    16    27    29   am
    17    29    31    1
    18    31    32   ar
    19    32    33   ar
    20    33    34   ar
    21    34    35   ar
    22    35    36   ar
    23     2     5    1
    24     5     6   ar
    25     6     7   ar
    26     7     8   ar
    27     8    12    1
    28    12    13    1
    29    13    14    1
    30    14    15    1
    31    15    18    1
    32    18    19   ar
    33    19    20   ar
    34    20    21   ar
    35    21    22   ar
    36    22    23    1
    37    22    24   ar
    38    24    25    1
    39    15    16    1
    40    16    17    1
    41     8     9   ar
    42     9    10   ar
    43    10    11    1
    44    46    38   ar
    45    36    31   ar
    46    10     5   ar
    47    46    41   ar
    48    17    12    1
    49    24    18   ar
    50     3     4    1
    51    40    47    1
    52    29    30    1
@<TRIPOS>MOLECULE
*****
 47 52 0 0 0
SMALL
GASTEIGER

@<TRIPOS>ATOM
      1 O          62.4038   85.4843   17.4076 O.2     1  UNL1       -0.2701
      2 C          62.2510   85.7285   16.1812 C.2     1  UNL1        0.2483
      3 N          61.6452   84.7331   15.3360 N.am    1  UNL1       -0.2945
      4 H          61.2962   83.8625   15.7985 H       1  UNL1        0.1501
      5 C          62.7618   87.0006   15.6400 C.ar    1  UNL1        0.0808
      6 C          64.0454   87.0424   15.0811 C.ar    1  UNL1        0.0080
      7 C          64.5001   88.1992   14.4440 C.ar    1  UNL1        0.0148
      8 C          63.6780   89.3359   14.3592 C.ar    1  UNL1        0.0502
      9 C          62.4177   89.3112   14.9833 C.ar    1  UNL1        0.0443
     10 C          61.9657   88.1563   15.6282 C.ar    1  UNL1        0.1457
     11 F          60.7539   88.1675   16.2397 F       1  UNL1       -0.2040
     12 N          64.1118   90.5017   13.6275 N.pl3   1  UNL1       -0.3040
     13 C          63.2302   91.1032   12.6140 C.3     1  UNL1        0.1122
     14 C          64.0465   91.6294   11.4281 C.3     1  UNL1        0.1123
     15 N          65.2264   92.3769   11.8756 N.pl3   1  UNL1       -0.3034
     16 C          65.5342   92.5124   13.3001 C.3     1  UNL1        0.1123
     17 C          65.3822   91.1542   13.9883 C.3     1  UNL1        0.1122
     18 C          66.0265   93.0638   10.9064 C.ar    1  UNL1        0.0595
     19 C          65.5211   94.2125   10.2839 C.ar    1  UNL1        0.0154
     20 C          66.2865   94.8913    9.3339 C.ar    1  UNL1        0.0022
     21 C          67.5616   94.4285    9.0021 C.ar    1  UNL1        0.0123
     22 C          68.0806   93.2855    9.6212 C.ar    1  UNL1        0.0694
     23 CL         69.6933   92.7406    9.1795 Cl      1  UNL1       -0.0813
     24 C          67.3141   92.5975   10.5798 C.ar    1  UNL1        0.0815
     25 CL         67.9647   91.1715   11.3870 Cl      1  UNL1       -0.0801
     26 C          61.5302   84.8600   13.8757 C.3     1  UNL1        0.1535
     27 C          61.0787   83.5543   13.2672 C.2     1  UNL1        0.2443
     28 O          61.9226   82.6407   13.0604 O.2     1  UNL1       -0.2730
     29 N          59.6835   83.3433   12.9904 N.am    1  UNL1       -0.2825
     30 H          59.0009   83.9879   13.4502 H       1  UNL1        0.1549
     31 C          59.1497   82.2883   12.1691 C.ar    1  UNL1        0.0535
     32 C          58.6004   82.5358   10.8981 C.ar    1  UNL1        0.0353
     33 C          58.0522   81.4801   10.1656 C.ar    1  UNL1        0.1002
     34 N          58.0443   80.2229   10.6804 N.ar    1  UNL1       -0.2422
     35 C          58.5558   79.9550   11.9101 C.ar    1  UNL1        0.1002
     36 C          59.1070   80.9825   12.6786 C.ar    1  UNL1        0.0353
     37 C          60.5619   85.9989   13.5039 C.3     1  UNL1        0.0569
     38 C          61.0355   86.7461   12.2891 C.ar    1  UNL1       -0.0017
     39 C          62.0867   86.3841   11.4517 C.ar    1  UNL1        0.0681
     40 N          62.3070   87.3468   10.5275 N.ar    1  UNL1       -0.3523
     41 C          61.4137   88.3185   10.7828 C.ar    1  UNL1        0.0563
     42 C          61.2728   89.5338   10.1142 C.ar    1  UNL1        0.0170
     43 C          60.2854   90.4254   10.5719 C.ar    1  UNL1        0.0015
     44 C          59.4733   90.0882   11.6776 C.ar    1  UNL1        0.0001
     45 C          59.6401   88.8557   12.3349 C.ar    1  UNL1        0.0012
     46 C          60.6227   87.9901   11.8538 C.ar    1  UNL1        0.0131
     47 H          63.0396   87.3427    9.7833 H       1  UNL1        0.1660
@<TRIPOS>BOND
     1     1     2    2
     2     2     3   am
     3     3    26    1
     4    26    37    1
     5    37    38    1
     6    38    39   ar
     7    39    40   ar
     8    40    41   ar
     9    41    42   ar
    10    42    43   ar
    11    43    44   ar
    12    44    45   ar
    13    45    46   ar
    14    26    27    1
    15    27    28    2
    16    27    29   am
    17    29    31    1
    18    31    32   ar
    19    32    33   ar
    20    33    34   ar
    21    34    35   ar
    22    35    36   ar
    23     2     5    1
    24     5     6   ar
    25     6     7   ar
    26     7     8   ar
    27     8    12    1
    28    12    13    1
    29    13    14    1
    30    14    15    1
    31    15    18    1
    32    18    19   ar
    33    19    20   ar
    34    20    21   ar
    35    21    22   ar
    36    22    23    1
    37    22    24   ar
    38    24    25    1
    39    15    16    1
    40    16    17    1
    41     8     9   ar
    42     9    10   ar
    43    10    11    1
    44    46    38   ar
    45    36    31   ar
    46    10     5   ar
    47    46    41   ar
    48    17    12    1
    49    24    18   ar
    50     3     4    1
    51    40    47    1
    52    29    30    1
@<TRIPOS>MOLECULE
*****
 47 52 0 0 0
SMALL
GASTEIGER

@<TRIPOS>ATOM
      1 O          63.1092   90.7381   16.1664 O.2     1  UNL1       -0.2701
      2 C          63.4118   90.3741   14.9989 C.2     1  UNL1        0.2483
      3 N          64.2952   91.1950   14.2129 N.am    1  UNL1       -0.2945
      4 H          64.7026   92.0386   14.6778 H       1  UNL1        0.1501
      5 C          62.7944   89.1526   14.4520 C.ar    1  UNL1        0.0808
      6 C          61.4170   89.1340   14.1989 C.ar    1  UNL1        0.0080
      7 C          60.8320   88.0389   13.5592 C.ar    1  UNL1        0.0148
      8 C          61.6164   86.9413   13.1652 C.ar    1  UNL1        0.0502
      9 C          62.9862   86.9353   13.4848 C.ar    1  UNL1        0.0443
     10 C          63.5703   88.0276   14.1325 C.ar    1  UNL1        0.1457
     11 F          64.8902   87.9859   14.4471 F       1  UNL1       -0.2040
     12 N          61.0300   85.8479   12.4281 N.pl3   1  UNL1       -0.3040
     13 C          59.6592   85.9656   11.9054 C.3     1  UNL1        0.1122
     14 C          58.9283   84.6210   11.9915 C.3     1  UNL1        0.1123
     15 N          59.7736   83.5174   11.5238 N.pl3   1  UNL1       -0.3034
     16 C          61.1510   83.7575   11.0907 C.3     1  UNL1        0.1123
     17 C          61.8525   84.6714   12.0978 C.3     1  UNL1        0.1122
     18 C          59.2060   82.2085   11.3975 C.ar    1  UNL1        0.0595
     19 C          58.4819   81.8789   10.2444 C.ar    1  UNL1        0.0154
     20 C          57.9186   80.6089   10.1076 C.ar    1  UNL1        0.0022
     21 C          58.0773   79.6601   11.1199 C.ar    1  UNL1        0.0123
     22 C          58.8035   79.9748   12.2743 C.ar    1  UNL1        0.0694
     23 CL         58.9854   78.7487   13.5219 Cl      1  UNL1       -0.0813
     24 C          59.3740   81.2530   12.4176 C.ar    1  UNL1        0.0815
     25 CL         60.3135   81.6554   13.8543 Cl      1  UNL1       -0.0801
     26 C          64.6167   90.9330   12.8024 C.3     1  UNL1        0.1535
     27 C          63.3536   90.7047   12.0076 C.2     1  UNL1        0.2443
     28 O          62.3232   91.3820   12.2706 O.2     1  UNL1       -0.2730
     29 N          63.3583   89.7652   10.9190 N.am    1  UNL1       -0.2825
     30 H          64.2889   89.4638   10.5500 H       1  UNL1        0.1549
     31 C          62.1857   89.2432   10.2670 C.ar    1  UNL1        0.0535
     32 C          62.1370   87.9355    9.7514 C.ar    1  UNL1        0.0353
     33 C          60.9895   87.4985    9.0851 C.ar    1  UNL1        0.1002
     34 N          59.9293   88.3338    8.9307 N.ar    1  UNL1       -0.2422
     35 C          59.9515   89.6061    9.4065 C.ar    1  UNL1        0.1002
     36 C          61.0814   90.0854   10.0725 C.ar    1  UNL1        0.0353
     37 C          65.4339   92.0948   12.2064 C.3     1  UNL1        0.0569
     38 C          66.8381   92.1082   12.7417 C.ar    1  UNL1       -0.0017
     39 C          67.9843   91.6930   12.0703 C.ar    1  UNL1        0.0681
     40 N          69.0558   91.7358   12.8945 N.ar    1  UNL1       -0.3523
     41 C          68.5936   92.1611   14.0832 C.ar    1  UNL1        0.0563
     42 C          69.3210   92.3339   15.2599 C.ar    1  UNL1        0.0170
     43 C          68.6254   92.7602   16.4062 C.ar    1  UNL1        0.0015
     44 C          67.2337   92.9971   16.3524 C.ar    1  UNL1        0.0001
     45 C          66.5250   92.8114   15.1515 C.ar    1  UNL1        0.0012
     46 C          67.2433   92.3947   14.0305 C.ar    1  UNL1        0.0131
     47 H          70.0373   91.4687   12.6580 H       1  UNL1        0.1660
@<TRIPOS>BOND
     1     1     2    2
     2     2     3   am
     3     3    26    1
     4    26    37    1
     5    37    38    1
     6    38    39   ar
     7    39    40   ar
     8    40    41   ar
     9    41    42   ar
    10    42    43   ar
    11    43    44   ar
    12    44    45   ar
    13    45    46   ar
    14    26    27    1
    15    27    28    2
    16    27    29   am
    17    29    31    1
    18    31    32   ar
    19    32    33   ar
    20    33    34   ar
    21    34    35   ar
    22    35    36   ar
    23     2     5    1
    24     5     6   ar
    25     6     7   ar
    26     7     8   ar
    27     8    12    1
    28    12    13    1
    29    13    14    1
    30    14    15    1
    31    15    18    1
    32    18    19   ar
    33    19    20   ar
    34    20    21   ar
    35    21    22   ar
    36    22    23    1
    37    22    24   ar
    38    24    25    1
    39    15    16    1
    40    16    17    1
    41     8     9   ar
    42     9    10   ar
    43    10    11    1
    44    46    38   ar
    45    36    31   ar
    46    10     5   ar
    47    46    41   ar
    48    17    12    1
    49    24    18   ar
    50     3     4    1
    51    40    47    1
    52    29    30    1
@<TRIPOS>MOLECULE
*****
 47 52 0 0 0
SMALL
GASTEIGER

@<TRIPOS>ATOM
      1 O          60.1007   84.0504    6.6125 O.2     1  UNL1       -0.2701
      2 C          60.1945   84.0731    7.8685 C.2     1  UNL1        0.2483
      3 N          59.6519   82.9815    8.6342 N.am    1  UNL1       -0.2945
      4 H          59.2539   82.1752    8.1000 H       1  UNL1        0.1501
      5 C          60.7963   85.2524    8.5159 C.ar    1  UNL1        0.0808
      6 C          60.1215   86.4789    8.4714 C.ar    1  UNL1        0.0080
      7 C          60.6044   87.5763    9.1879 C.ar    1  UNL1        0.0148
      8 C          61.7743   87.4650    9.9586 C.ar    1  UNL1        0.0502
      9 C          62.4855   86.2516    9.9432 C.ar    1  UNL1        0.0443
     10 C          62.0068   85.1557    9.2195 C.ar    1  UNL1        0.1457
     11 F          62.7243   84.0034    9.2058 F       1  UNL1       -0.2040
     12 N          62.2275   88.5710   10.7674 N.pl3   1  UNL1       -0.3040
     13 C          61.9193   89.9521   10.3627 C.3     1  UNL1        0.1122
     14 C          63.0856   90.8888   10.6976 C.3     1  UNL1        0.1123
     15 N          63.6025   90.6439   12.0481 N.pl3   1  UNL1       -0.3034
     16 C          63.0432   89.5817   12.8855 C.3     1  UNL1        0.1123
     17 C          62.8878   88.3047   12.0569 C.3     1  UNL1        0.1122
     18 C          64.5981   91.5228   12.5844 C.ar    1  UNL1        0.0595
     19 C          65.3351   92.3406   11.7181 C.ar    1  UNL1        0.0154
     20 C          66.3121   93.1999   12.2243 C.ar    1  UNL1        0.0022
     21 C          66.5568   93.2493   13.5982 C.ar    1  UNL1        0.0123
     22 C          65.8232   92.4417   14.4751 C.ar    1  UNL1        0.0694
     23 CL         66.1582   92.5399   16.1988 Cl      1  UNL1       -0.0813
     24 C          64.8369   91.5742   13.9709 C.ar    1  UNL1        0.0815
     25 CL         63.8869   90.5702   15.0654 Cl      1  UNL1       -0.0801
     26 C          59.5950   82.9613   10.1032 C.3     1  UNL1        0.1535
     27 C          58.6951   84.0619   10.6109 C.2     1  UNL1        0.2443
     28 O          57.6859   84.4005    9.9352 O.2     1  UNL1       -0.2730
     29 N          58.9617   84.6664   11.8881 N.am    1  UNL1       -0.2825
     30 H          59.6069   84.1571   12.5340 H       1  UNL1        0.1549
     31 C          58.3756   85.8914   12.3660 C.ar    1  UNL1        0.0535
     32 C          59.1091   87.0888   12.4476 C.ar    1  UNL1        0.0353
     33 C          58.5026   88.2359   12.9653 C.ar    1  UNL1        0.1002
     34 N          57.2139   88.1935   13.3932 N.ar    1  UNL1       -0.2422
     35 C          56.4841   87.0488   13.3389 C.ar    1  UNL1        0.1002
     36 C          57.0541   85.8779   12.8350 C.ar    1  UNL1        0.0353
     37 C          59.1160   81.5876   10.6096 C.3     1  UNL1        0.0569
     38 C          59.7641   81.2293   11.9172 C.ar    1  UNL1       -0.0017
     39 C          59.1139   80.8414   13.0851 C.ar    1  UNL1        0.0681
     40 N          60.0009   80.7084   14.0975 N.ar    1  UNL1       -0.3523
     41 C          61.2025   81.0220   13.5823 C.ar    1  UNL1        0.0563
     42 C          62.4246   81.0618   14.2520 C.ar    1  UNL1        0.0170
     43 C          63.5623   81.4510   13.5214 C.ar    1  UNL1        0.0015
     44 C          63.4534   81.7922   12.1548 C.ar    1  UNL1        0.0001
     45 C          62.2062   81.7457   11.5058 C.ar    1  UNL1        0.0012
     46 C          61.0979   81.3497   12.2548 C.ar    1  UNL1        0.0131
     47 H          59.7878   80.4397   15.0838 H       1  UNL1        0.1660
@<TRIPOS>BOND
     1     1     2    2
     2     2     3   am
     3     3    26    1
     4    26    37    1
     5    37    38    1
     6    38    39   ar
     7    39    40   ar
     8    40    41   ar
     9    41    42   ar
    10    42    43   ar
    11    43    44   ar
    12    44    45   ar
    13    45    46   ar
    14    26    27    1
    15    27    28    2
    16    27    29   am
    17    29    31    1
    18    31    32   ar
    19    32    33   ar
    20    33    34   ar
    21    34    35   ar
    22    35    36   ar
    23     2     5    1
    24     5     6   ar
    25     6     7   ar
    26     7     8   ar
    27     8    12    1
    28    12    13    1
    29    13    14    1
    30    14    15    1
    31    15    18    1
    32    18    19   ar
    33    19    20   ar
    34    20    21   ar
    35    21    22   ar
    36    22    23    1
    37    22    24   ar
    38    24    25    1
    39    15    16    1
    40    16    17    1
    41     8     9   ar
    42     9    10   ar
    43    10    11    1
    44    46    38   ar
    45    36    31   ar
    46    10     5   ar
    47    46    41   ar
    48    17    12    1
    49    24    18   ar
    50     3     4    1
    51    40    47    1
    52    29    30    1
@<TRIPOS>MOLECULE
*****
 47 52 0 0 0
SMALL
GASTEIGER

@<TRIPOS>ATOM
      1 O          62.8527   91.2936    9.5116 O.2     1  UNL1       -0.2701
      2 C          62.3708   90.5800   10.4311 C.2     1  UNL1        0.2483
      3 N          62.3627   91.0820   11.7802 N.am    1  UNL1       -0.2945
      4 H          62.7057   92.0589   11.9280 H       1  UNL1        0.1501
      5 C          61.8939   89.2244   10.1039 C.ar    1  UNL1        0.0808
      6 C          62.6994   88.1206   10.4111 C.ar    1  UNL1        0.0080
      7 C          62.2154   86.8226   10.2330 C.ar    1  UNL1        0.0148
      8 C          60.9170   86.6077    9.7403 C.ar    1  UNL1        0.0502
      9 C          60.1389   87.7187    9.3677 C.ar    1  UNL1        0.0443
     10 C          60.6263   89.0177    9.5379 C.ar    1  UNL1        0.1457
     11 F          59.8620   90.0705    9.1505 F       1  UNL1       -0.2040
     12 N          60.3839   85.2706    9.6367 N.pl3   1  UNL1       -0.3040
     13 C          58.9608   85.0695    9.3195 C.3     1  UNL1        0.1122
     14 C          58.4011   83.8612   10.0787 C.3     1  UNL1        0.1123
     15 N          59.3120   82.7136   10.0115 N.pl3   1  UNL1       -0.3034
     16 C          60.5991   82.8155    9.3221 C.3     1  UNL1        0.1123
     17 C          61.2951   84.1168    9.7266 C.3     1  UNL1        0.1122
     18 C          58.8869   81.4531   10.5423 C.ar    1  UNL1        0.0595
     19 C          58.1786   80.5636    9.7240 C.ar    1  UNL1        0.0154
     20 C          57.7534   79.3327   10.2272 C.ar    1  UNL1        0.0022
     21 C          58.0353   78.9821   11.5492 C.ar    1  UNL1        0.0123
     22 C          58.7474   79.8593   12.3754 C.ar    1  UNL1        0.0694
     23 CL         59.0873   79.3757   14.0318 Cl      1  UNL1       -0.0813
     24 C          59.1790   81.1009   11.8736 C.ar    1  UNL1        0.0815
     25 CL         60.0996   82.2051   12.8944 Cl      1  UNL1       -0.0801
     26 C          61.9406   90.2905   12.9451 C.3     1  UNL1        0.1535
     27 C          60.6070   89.6342   12.6811 C.2     1  UNL1        0.2443
     28 O          59.6729   90.3091   12.1697 O.2     1  UNL1       -0.2730
     29 N          60.4372   88.2329   12.9554 N.am    1  UNL1       -0.2825
     30 H          61.3031   87.6612   13.0833 H       1  UNL1        0.1549
     31 C          59.1735   87.5464   13.0217 C.ar    1  UNL1        0.0535
     32 C          57.9594   88.2319   13.2070 C.ar    1  UNL1        0.0353
     33 C          56.7681   87.5099   13.3128 C.ar    1  UNL1        0.1002
     34 N          56.7831   86.1532   13.2432 N.ar    1  UNL1       -0.2422
     35 C          57.9412   85.4626   13.0774 C.ar    1  UNL1        0.1002
     36 C          59.1552   86.1450   12.9743 C.ar    1  UNL1        0.0353
     37 C          63.0063   89.2368   13.3011 C.3     1  UNL1        0.0569
     38 C          62.9974   88.9233   14.7708 C.ar    1  UNL1       -0.0017
     39 C          63.3890   89.7729   15.8013 C.ar    1  UNL1        0.0681
     40 N          63.3598   89.1221   16.9867 N.ar    1  UNL1       -0.3523
     41 C          62.9665   87.8663   16.7115 C.ar    1  UNL1        0.0563
     42 C          62.8180   86.8111   17.6106 C.ar    1  UNL1        0.0170
     43 C          62.4242   85.5613   17.0983 C.ar    1  UNL1        0.0015
     44 C          62.1946   85.3949   15.7143 C.ar    1  UNL1        0.0001
     45 C          62.3553   86.4772   14.8300 C.ar    1  UNL1        0.0012
     46 C          62.7400   87.7052   15.3686 C.ar    1  UNL1        0.0131
     47 H          63.6149   89.5131   17.9207 H       1  UNL1        0.1660
@<TRIPOS>BOND
     1     1     2    2
     2     2     3   am
     3     3    26    1
     4    26    37    1
     5    37    38    1
     6    38    39   ar
     7    39    40   ar
     8    40    41   ar
     9    41    42   ar
    10    42    43   ar
    11    43    44   ar
    12    44    45   ar
    13    45    46   ar
    14    26    27    1
    15    27    28    2
    16    27    29   am
    17    29    31    1
    18    31    32   ar
    19    32    33   ar
    20    33    34   ar
    21    34    35   ar
    22    35    36   ar
    23     2     5    1
    24     5     6   ar
    25     6     7   ar
    26     7     8   ar
    27     8    12    1
    28    12    13    1
    29    13    14    1
    30    14    15    1
    31    15    18    1
    32    18    19   ar
    33    19    20   ar
    34    20    21   ar
    35    21    22   ar
    36    22    23    1
    37    22    24   ar
    38    24    25    1
    39    15    16    1
    40    16    17    1
    41     8     9   ar
    42     9    10   ar
    43    10    11    1
    44    46    38   ar
    45    36    31   ar
    46    10     5   ar
    47    46    41   ar
    48    17    12    1
    49    24    18   ar
    50     3     4    1
    51    40    47    1
    52    29    30    1
