@<TRIPOS>MOLECULE
*****
 35 38 0 0 0
SMALL
GASTEIGER

@<TRIPOS>ATOM
      1 C          50.4663   17.3818  -25.4356 C.ar    1  UNL1        0.1718
      2 C          50.9105   16.0589  -25.2859 C.ar    1  UNL1        0.0400
      3 C          50.0257   14.9961  -25.4449 C.ar    1  UNL1        0.0030
      4 C          48.6699   15.2256  -25.7242 C.ar    1  UNL1       -0.0014
      5 C          48.1949   16.5572  -25.8081 C.ar    1  UNL1        0.0153
      6 C          49.1167   17.6331  -25.7229 C.ar    1  UNL1        0.1636
      7 O          48.7383   18.9624  -25.9350 O.3     1  UNL1       -0.5031
      8 C          46.7147   16.7831  -26.0148 C.3     1  UNL1        0.0403
      9 C          46.3268   16.4943  -27.4688 C.3     1  UNL1        0.0613
     10 I          44.2098   16.7388  -27.7023 I       1  UNL1       -0.0746
     11 C          46.8116   15.1169  -27.9891 C.3     1  UNL1        0.0331
     12 C          46.8530   14.0121  -26.9403 C.2     1  UNL1       -0.0390
     13 C          47.7608   14.0548  -25.9198 C.2     1  UNL1       -0.0076
     14 H          47.8452   19.2428  -26.3150 H       1  UNL1        0.2923
     15 C          47.8883   12.9507  -24.9401 C.ar    1  UNL1        0.0056
     16 C          47.0337   12.8807  -23.8353 C.ar    1  UNL1        0.0402
     17 C          47.1262   11.8170  -22.9171 C.ar    1  UNL1        0.1754
     18 C          48.0919   10.7986  -23.1333 C.ar    1  UNL1        0.2061
     19 C          48.9312   10.8620  -24.2590 C.ar    1  UNL1        0.1754
     20 C          48.8165   11.9320  -25.1622 C.ar    1  UNL1        0.0402
     21 O          46.2773   11.7557  -21.8008 O.3     1  UNL1       -0.4683
     22 C          46.5908   12.2619  -20.5070 C.3     1  UNL1        0.2526
     23 O          48.2708    9.6968  -22.2746 O.3     1  UNL1       -0.4654
     24 C          49.1996    9.5996  -21.2005 C.3     1  UNL1        0.2528
     25 O          49.8720    9.8358  -24.4449 O.3     1  UNL1       -0.4683
     26 C          51.2771   10.0381  -24.5577 C.3     1  UNL1        0.2526
     27 C          52.4759   18.5147  -24.4627 C.3     1  UNL1        0.2526
     28 O          51.3383   18.4764  -25.3184 O.3     1  UNL1       -0.4684
     29 C          45.9055   12.8380  -27.1367 C.3     1  UNL1        0.0483
     30 C          46.2535   12.0440  -28.3677 C.ar    1  UNL1       -0.0181
     31 C          45.9637   12.5524  -29.6458 C.ar    1  UNL1       -0.0039
     32 C          46.2643   11.8044  -30.7878 C.ar    1  UNL1       -0.0003
     33 C          46.8456   10.5400  -30.6638 C.ar    1  UNL1       -0.0000
     34 C          47.1261   10.0209  -29.3972 C.ar    1  UNL1       -0.0003
     35 C          46.8303   10.7670  -28.2520 C.ar    1  UNL1       -0.0039
@<TRIPOS>BOND
     1    27    28    1
     2    28     1    1
     3     1     2   ar
     4     2     3   ar
     5     3     4   ar
     6     4     5   ar
     7     5     6   ar
     8     6     7    1
     9     5     8    1
    10     8     9    1
    11     9    10    1
    12     9    11    1
    13    11    12    1
    14    12    29    1
    15    29    30    1
    16    30    31   ar
    17    31    32   ar
    18    32    33   ar
    19    33    34   ar
    20    34    35   ar
    21    12    13    2
    22    13    15    1
    23    15    16   ar
    24    16    17   ar
    25    17    21    1
    26    21    22    1
    27    17    18   ar
    28    18    23    1
    29    23    24    1
    30    18    19   ar
    31    19    25    1
    32    25    26    1
    33    19    20   ar
    34     6     1   ar
    35    35    30   ar
    36    20    15   ar
    37    13     4    1
    38     7    14    1
@<TRIPOS>MOLECULE
*****
 35 38 0 0 0
SMALL
GASTEIGER

@<TRIPOS>ATOM
      1 C          45.9359   13.1208  -29.1856 C.ar    1  UNL1        0.1718
      2 C          46.1859   11.9560  -28.4436 C.ar    1  UNL1        0.0400
      3 C          46.6904   12.0397  -27.1490 C.ar    1  UNL1        0.0030
      4 C          46.9896   13.2840  -26.5735 C.ar    1  UNL1       -0.0014
      5 C          46.8079   14.4629  -27.3372 C.ar    1  UNL1        0.0153
      6 C          46.2201   14.3751  -28.6262 C.ar    1  UNL1        0.1636
      7 O          45.8857   15.5072  -29.3756 O.3     1  UNL1       -0.5031
      8 C          47.2254   15.7844  -26.7339 C.3     1  UNL1        0.0403
      9 C          46.2055   16.2402  -25.6851 C.3     1  UNL1        0.0613
     10 I          46.8752   18.0694  -24.7896 I       1  UNL1       -0.0746
     11 C          45.8705   15.1635  -24.6215 C.3     1  UNL1        0.0331
     12 C          47.0241   14.2353  -24.2613 C.2     1  UNL1       -0.0390
     13 C          47.4989   13.3303  -25.1686 C.2     1  UNL1       -0.0076
     14 H          45.8821   16.4483  -29.0082 H       1  UNL1        0.2923
     15 C          48.5546   12.3519  -24.8178 C.ar    1  UNL1        0.0056
     16 C          49.8596   12.5156  -25.2935 C.ar    1  UNL1        0.0402
     17 C          50.8766   11.6087  -24.9382 C.ar    1  UNL1        0.1754
     18 C          50.5672   10.5266  -24.0724 C.ar    1  UNL1        0.2061
     19 C          49.2593   10.3819  -23.5782 C.ar    1  UNL1        0.1754
     20 C          48.2633   11.3024  -23.9448 C.ar    1  UNL1        0.0402
     21 O          52.1827   11.7663  -25.4280 O.3     1  UNL1       -0.4683
     22 C          53.2867   12.2511  -24.6700 C.3     1  UNL1        0.2526
     23 O          51.5071    9.5619  -23.6611 O.3     1  UNL1       -0.4654
     24 C          52.3122    8.7469  -24.5056 C.3     1  UNL1        0.2528
     25 O          48.9888    9.3031  -22.7204 O.3     1  UNL1       -0.4683
     26 C          48.7832    9.4190  -21.3160 C.3     1  UNL1        0.2526
     27 C          45.8944   12.2644  -31.5378 C.3     1  UNL1        0.2526
     28 O          45.3932   13.0754  -30.4800 O.3     1  UNL1       -0.4684
     29 C          47.5504   14.3094  -22.8356 C.3     1  UNL1        0.0483
     30 C          49.0220   14.6262  -22.8031 C.ar    1  UNL1       -0.0181
     31 C          49.5573   15.6013  -23.6625 C.ar    1  UNL1       -0.0039
     32 C          50.9275   15.8778  -23.6497 C.ar    1  UNL1       -0.0003
     33 C          51.7754   15.1770  -22.7883 C.ar    1  UNL1       -0.0000
     34 C          51.2544   14.1973  -21.9390 C.ar    1  UNL1       -0.0003
     35 C          49.8838   13.9196  -21.9460 C.ar    1  UNL1       -0.0039
@<TRIPOS>BOND
     1    27    28    1
     2    28     1    1
     3     1     2   ar
     4     2     3   ar
     5     3     4   ar
     6     4     5   ar
     7     5     6   ar
     8     6     7    1
     9     5     8    1
    10     8     9    1
    11     9    10    1
    12     9    11    1
    13    11    12    1
    14    12    29    1
    15    29    30    1
    16    30    31   ar
    17    31    32   ar
    18    32    33   ar
    19    33    34   ar
    20    34    35   ar
    21    12    13    2
    22    13    15    1
    23    15    16   ar
    24    16    17   ar
    25    17    21    1
    26    21    22    1
    27    17    18   ar
    28    18    23    1
    29    23    24    1
    30    18    19   ar
    31    19    25    1
    32    25    26    1
    33    19    20   ar
    34     6     1   ar
    35    35    30   ar
    36    20    15   ar
    37    13     4    1
    38     7    14    1
@<TRIPOS>MOLECULE
*****
 35 38 0 0 0
SMALL
GASTEIGER

@<TRIPOS>ATOM
      1 C          46.2853   12.1295  -20.6385 C.ar    1  UNL1        0.1718
      2 C          45.7098   12.0512  -21.9162 C.ar    1  UNL1        0.0400
      3 C          46.4000   12.5209  -23.0300 C.ar    1  UNL1        0.0030
      4 C          47.6662   13.1104  -22.8948 C.ar    1  UNL1       -0.0014
      5 C          48.2275   13.2590  -21.6030 C.ar    1  UNL1        0.0153
      6 C          47.5535   12.7076  -20.4821 C.ar    1  UNL1        0.1636
      7 O          48.1150   12.6962  -19.2016 O.3     1  UNL1       -0.5031
      8 C          49.5483   13.9817  -21.4695 C.3     1  UNL1        0.0403
      9 C          50.7003   13.0808  -21.9270 C.3     1  UNL1        0.0613
     10 I          52.5442   14.1680  -21.8076 I       1  UNL1       -0.0746
     11 C          50.4896   12.4498  -23.3271 C.3     1  UNL1        0.0331
     12 C          49.7155   13.3166  -24.3127 C.2     1  UNL1       -0.0390
     13 C          48.3867   13.5718  -24.1209 C.2     1  UNL1       -0.0076
     14 H          49.0798   12.9220  -19.0047 H       1  UNL1        0.2923
     15 C          47.5859   14.3315  -25.1091 C.ar    1  UNL1        0.0056
     16 C          47.2685   15.6746  -24.8825 C.ar    1  UNL1        0.0402
     17 C          46.5360   16.4134  -25.8316 C.ar    1  UNL1        0.1754
     18 C          46.1329   15.7825  -27.0381 C.ar    1  UNL1        0.2061
     19 C          46.4763   14.4394  -27.2704 C.ar    1  UNL1        0.1754
     20 C          47.2110   13.7252  -26.3092 C.ar    1  UNL1        0.0402
     21 O          46.2059   17.7575  -25.5964 O.3     1  UNL1       -0.4683
     22 C          47.0432   18.7009  -24.9351 C.3     1  UNL1        0.2526
     23 O          45.3935   16.4281  -28.0480 O.3     1  UNL1       -0.4654
     24 C          44.0636   16.9238  -27.9413 C.3     1  UNL1        0.2528
     25 O          46.0657   13.8477  -28.4762 O.3     1  UNL1       -0.4683
     26 C          46.2725   12.4806  -28.8173 C.3     1  UNL1        0.2526
     27 C          44.3105   11.9845  -19.1064 C.3     1  UNL1        0.2526
     28 O          45.6336   11.6327  -19.4981 O.3     1  UNL1       -0.4684
     29 C          50.4666   13.8010  -25.5440 C.3     1  UNL1        0.0483
     30 C          50.5096   15.3045  -25.6120 C.ar    1  UNL1       -0.0181
     31 C          50.2356   15.9686  -26.8202 C.ar    1  UNL1       -0.0039
     32 C          50.2998   17.3633  -26.8895 C.ar    1  UNL1       -0.0003
     33 C          50.6481   18.1053  -25.7580 C.ar    1  UNL1       -0.0000
     34 C          50.9342   17.4535  -24.5556 C.ar    1  UNL1       -0.0003
     35 C          50.8679   16.0586  -24.4808 C.ar    1  UNL1       -0.0039
@<TRIPOS>BOND
     1    27    28    1
     2    28     1    1
     3     1     2   ar
     4     2     3   ar
     5     3     4   ar
     6     4     5   ar
     7     5     6   ar
     8     6     7    1
     9     5     8    1
    10     8     9    1
    11     9    10    1
    12     9    11    1
    13    11    12    1
    14    12    29    1
    15    29    30    1
    16    30    31   ar
    17    31    32   ar
    18    32    33   ar
    19    33    34   ar
    20    34    35   ar
    21    12    13    2
    22    13    15    1
    23    15    16   ar
    24    16    17   ar
    25    17    21    1
    26    21    22    1
    27    17    18   ar
    28    18    23    1
    29    23    24    1
    30    18    19   ar
    31    19    25    1
    32    25    26    1
    33    19    20   ar
    34     6     1   ar
    35    35    30   ar
    36    20    15   ar
    37    13     4    1
    38     7    14    1
@<TRIPOS>MOLECULE
*****
 35 38 0 0 0
SMALL
GASTEIGER

@<TRIPOS>ATOM
      1 C          50.4466   17.3127  -25.5245 C.ar    1  UNL1        0.1718
      2 C          50.8929   15.9858  -25.4248 C.ar    1  UNL1        0.0400
      3 C          50.0043   14.9285  -25.5982 C.ar    1  UNL1        0.0030
      4 C          48.6432   15.1665  -25.8424 C.ar    1  UNL1       -0.0014
      5 C          48.1675   16.5002  -25.8755 C.ar    1  UNL1        0.0153
      6 C          49.0916   17.5729  -25.7761 C.ar    1  UNL1        0.1636
      7 O          48.7098   18.9081  -25.9394 O.3     1  UNL1       -0.5031
      8 C          46.6835   16.7324  -26.0447 C.3     1  UNL1        0.0403
      9 C          46.2657   16.4885  -27.4986 C.3     1  UNL1        0.0613
     10 I          44.1444   16.7402  -27.6809 I       1  UNL1       -0.0746
     11 C          46.7386   15.1277  -28.0709 C.3     1  UNL1        0.0331
     12 C          46.8008   13.9912  -27.0577 C.2     1  UNL1       -0.0390
     13 C          47.7295   14.0024  -26.0552 C.2     1  UNL1       -0.0076
     14 H          47.8093   19.2001  -26.2922 H       1  UNL1        0.2923
     15 C          47.8763   12.8686  -25.1128 C.ar    1  UNL1        0.0056
     16 C          48.8569   11.8939  -25.3233 C.ar    1  UNL1        0.0402
     17 C          49.0251   10.8310  -24.4150 C.ar    1  UNL1        0.1754
     18 C          48.1945   10.7657  -23.2652 C.ar    1  UNL1        0.2061
     19 C          47.2274   11.7620  -23.0468 C.ar    1  UNL1        0.1754
     20 C          47.0819   12.8142  -23.9663 C.ar    1  UNL1        0.0402
     21 O          50.0003    9.8455  -24.6352 O.3     1  UNL1       -0.4683
     22 C          51.4067   10.0549  -24.5535 C.3     1  UNL1        0.2526
     23 O          48.2762    9.7436  -22.2997 O.3     1  UNL1       -0.4654
     24 C          49.2750    9.6021  -21.2956 C.3     1  UNL1        0.2528
     25 O          46.4260   11.6693  -21.8970 O.3     1  UNL1       -0.4683
     26 C          46.6771   12.3626  -20.6787 C.3     1  UNL1        0.2526
     27 C          52.4169   18.4536  -24.4829 C.3     1  UNL1        0.2526
     28 O          51.3216   18.4031  -25.3916 O.3     1  UNL1       -0.4684
     29 C          45.8487   12.8238  -27.2706 C.3     1  UNL1        0.0483
     30 C          46.2463   11.9936  -28.4621 C.ar    1  UNL1       -0.0181
     31 C          45.9868   12.4523  -29.7653 C.ar    1  UNL1       -0.0039
     32 C          46.3336   11.6704  -30.8709 C.ar    1  UNL1       -0.0003
     33 C          46.9313   10.4212  -30.6855 C.ar    1  UNL1       -0.0000
     34 C          47.1820    9.9513  -29.3936 C.ar    1  UNL1       -0.0003
     35 C          46.8399   10.7315  -28.2846 C.ar    1  UNL1       -0.0039
@<TRIPOS>BOND
     1    27    28    1
     2    28     1    1
     3     1     2   ar
     4     2     3   ar
     5     3     4   ar
     6     4     5   ar
     7     5     6   ar
     8     6     7    1
     9     5     8    1
    10     8     9    1
    11     9    10    1
    12     9    11    1
    13    11    12    1
    14    12    29    1
    15    29    30    1
    16    30    31   ar
    17    31    32   ar
    18    32    33   ar
    19    33    34   ar
    20    34    35   ar
    21    12    13    2
    22    13    15    1
    23    15    16   ar
    24    16    17   ar
    25    17    21    1
    26    21    22    1
    27    17    18   ar
    28    18    23    1
    29    23    24    1
    30    18    19   ar
    31    19    25    1
    32    25    26    1
    33    19    20   ar
    34     6     1   ar
    35    35    30   ar
    36    20    15   ar
    37    13     4    1
    38     7    14    1
@<TRIPOS>MOLECULE
*****
 35 38 0 0 0
SMALL
GASTEIGER

@<TRIPOS>ATOM
      1 C          45.9937   12.9348  -29.1675 C.ar    1  UNL1        0.1718
      2 C          46.2945   11.8166  -28.3744 C.ar    1  UNL1        0.0400
      3 C          46.7960   11.9805  -27.0863 C.ar    1  UNL1        0.0030
      4 C          47.0415   13.2613  -26.5684 C.ar    1  UNL1       -0.0014
      5 C          46.8083   14.3955  -27.3840 C.ar    1  UNL1        0.0153
      6 C          46.2238   14.2243  -28.6661 C.ar    1  UNL1        0.1636
      7 O          45.8400   15.3058  -29.4649 O.3     1  UNL1       -0.5031
      8 C          47.1687   15.7597  -26.8422 C.3     1  UNL1        0.0403
      9 C          46.1309   16.2181  -25.8121 C.3     1  UNL1        0.0613
     10 I          46.7215   18.1131  -25.0020 I       1  UNL1       -0.0746
     11 C          45.8437   15.1770  -24.7001 C.3     1  UNL1        0.0331
     12 C          47.0367   14.3168  -24.3016 C.2     1  UNL1       -0.0390
     13 C          47.5495   13.3931  -25.1684 C.2     1  UNL1       -0.0076
     14 H          45.7959   16.2615  -29.1403 H       1  UNL1        0.2923
     15 C          48.6469   12.4781  -24.7768 C.ar    1  UNL1        0.0056
     16 C          48.3957   11.3875  -23.9381 C.ar    1  UNL1        0.0402
     17 C          49.4260   10.4939  -23.5874 C.ar    1  UNL1        0.1754
     18 C          50.7298   10.7019  -24.1103 C.ar    1  UNL1        0.2061
     19 C          50.9699   11.7857  -24.9724 C.ar    1  UNL1        0.1754
     20 C          49.9240   12.6609  -25.3098 C.ar    1  UNL1        0.0402
     21 O          49.1755    9.4080  -22.7339 O.3     1  UNL1       -0.4683
     22 C          49.2828    9.4428  -21.3141 C.3     1  UNL1        0.2526
     23 O          51.8299    9.8726  -23.8182 O.3     1  UNL1       -0.4654
     24 C          52.2928    8.7720  -24.5929 C.3     1  UNL1        0.2528
     25 O          52.2699   11.9594  -25.4751 O.3     1  UNL1       -0.4683
     26 C          52.6582   11.6970  -26.8199 C.3     1  UNL1        0.2526
     27 C          46.0426   12.0516  -31.5097 C.3     1  UNL1        0.2526
     28 O          45.4524   12.8075  -30.4570 O.3     1  UNL1       -0.4684
     29 C          47.5605   14.4780  -22.8822 C.3     1  UNL1        0.0483
     30 C          49.0341   14.7868  -22.8663 C.ar    1  UNL1       -0.0181
     31 C          49.5649   15.7595  -23.7311 C.ar    1  UNL1       -0.0039
     32 C          50.9366   16.0287  -23.7337 C.ar    1  UNL1       -0.0003
     33 C          51.7904   15.3228  -22.8824 C.ar    1  UNL1       -0.0000
     34 C          51.2738   14.3453  -22.0278 C.ar    1  UNL1       -0.0003
     35 C          49.9018   14.0751  -22.0193 C.ar    1  UNL1       -0.0039
@<TRIPOS>BOND
     1    27    28    1
     2    28     1    1
     3     1     2   ar
     4     2     3   ar
     5     3     4   ar
     6     4     5   ar
     7     5     6   ar
     8     6     7    1
     9     5     8    1
    10     8     9    1
    11     9    10    1
    12     9    11    1
    13    11    12    1
    14    12    29    1
    15    29    30    1
    16    30    31   ar
    17    31    32   ar
    18    32    33   ar
    19    33    34   ar
    20    34    35   ar
    21    12    13    2
    22    13    15    1
    23    15    16   ar
    24    16    17   ar
    25    17    21    1
    26    21    22    1
    27    17    18   ar
    28    18    23    1
    29    23    24    1
    30    18    19   ar
    31    19    25    1
    32    25    26    1
    33    19    20   ar
    34     6     1   ar
    35    35    30   ar
    36    20    15   ar
    37    13     4    1
    38     7    14    1
@<TRIPOS>MOLECULE
*****
 35 38 0 0 0
SMALL
GASTEIGER

@<TRIPOS>ATOM
      1 C          51.9998   10.2648  -26.9579 C.ar    1  UNL1        0.1718
      2 C          52.5073   11.5616  -27.1328 C.ar    1  UNL1        0.0400
      3 C          52.0060   12.6217  -26.3828 C.ar    1  UNL1        0.0030
      4 C          50.9644   12.4225  -25.4640 C.ar    1  UNL1       -0.0014
      5 C          50.3960   11.1323  -25.3290 C.ar    1  UNL1        0.0153
      6 C          50.9641   10.0423  -26.0387 C.ar    1  UNL1        0.1636
      7 O          50.5430    8.7228  -25.8472 O.3     1  UNL1       -0.5031
      8 C          49.2128   10.9588  -24.4046 C.3     1  UNL1        0.0403
      9 C          49.6695   10.9713  -22.9420 C.3     1  UNL1        0.0613
     10 I          47.9578   10.8124  -21.6609 I       1  UNL1       -0.0746
     11 C          50.5607   12.1838  -22.5700 C.3     1  UNL1        0.0331
     12 C          50.2355   13.4728  -23.3149 C.2     1  UNL1       -0.0390
     13 C          50.4782   13.5823  -24.6553 C.2     1  UNL1       -0.0076
     14 H          49.9363    8.4257  -25.0960 H       1  UNL1        0.2923
     15 C          50.2610   14.8516  -25.3880 C.ar    1  UNL1        0.0056
     16 C          49.1738   14.9920  -26.2566 C.ar    1  UNL1        0.0402
     17 C          48.9411   16.2057  -26.9317 C.ar    1  UNL1        0.1754
     18 C          49.8177   17.3004  -26.7088 C.ar    1  UNL1        0.2061
     19 C          50.8941   17.1603  -25.8159 C.ar    1  UNL1        0.1754
     20 C          51.1025   15.9399  -25.1518 C.ar    1  UNL1        0.0402
     21 O          47.8577   16.3405  -27.8142 O.3     1  UNL1       -0.4683
     22 C          46.5642   15.7802  -27.6116 C.3     1  UNL1        0.2526
     23 O          49.6781   18.5532  -27.3368 O.3     1  UNL1       -0.4654
     24 C          48.6989   19.5443  -27.0460 C.3     1  UNL1        0.2528
     25 O          51.7388   18.2644  -25.6152 O.3     1  UNL1       -0.4683
     26 C          52.4311   18.5425  -24.4022 C.3     1  UNL1        0.2526
     27 C          52.8708    9.1945  -29.0470 C.3     1  UNL1        0.2526
     28 O          52.5064    9.1660  -27.6706 O.3     1  UNL1       -0.4684
     29 C          49.7177   14.6380  -22.4849 C.3     1  UNL1        0.0483
     30 C          48.3939   15.1396  -22.9977 C.ar    1  UNL1       -0.0181
     31 C          47.4089   14.2329  -23.4261 C.ar    1  UNL1       -0.0039
     32 C          46.1894   14.6992  -23.9253 C.ar    1  UNL1       -0.0003
     33 C          45.9471   16.0726  -24.0114 C.ar    1  UNL1       -0.0000
     34 C          46.9248   16.9819  -23.5994 C.ar    1  UNL1       -0.0003
     35 C          48.1450   16.5199  -23.0962 C.ar    1  UNL1       -0.0039
@<TRIPOS>BOND
     1    27    28    1
     2    28     1    1
     3     1     2   ar
     4     2     3   ar
     5     3     4   ar
     6     4     5   ar
     7     5     6   ar
     8     6     7    1
     9     5     8    1
    10     8     9    1
    11     9    10    1
    12     9    11    1
    13    11    12    1
    14    12    29    1
    15    29    30    1
    16    30    31   ar
    17    31    32   ar
    18    32    33   ar
    19    33    34   ar
    20    34    35   ar
    21    12    13    2
    22    13    15    1
    23    15    16   ar
    24    16    17   ar
    25    17    21    1
    26    21    22    1
    27    17    18   ar
    28    18    23    1
    29    23    24    1
    30    18    19   ar
    31    19    25    1
    32    25    26    1
    33    19    20   ar
    34     6     1   ar
    35    35    30   ar
    36    20    15   ar
    37    13     4    1
    38     7    14    1
@<TRIPOS>MOLECULE
*****
 35 38 0 0 0
SMALL
GASTEIGER

@<TRIPOS>ATOM
      1 C          45.9322   13.1674  -29.0129 C.ar    1  UNL1        0.1718
      2 C          46.2738   12.0513  -28.2336 C.ar    1  UNL1        0.0400
      3 C          46.9088   12.2166  -27.0060 C.ar    1  UNL1        0.0030
      4 C          47.2490   13.4955  -26.5394 C.ar    1  UNL1       -0.0014
      5 C          46.9729   14.6248  -27.3483 C.ar    1  UNL1        0.0153
      6 C          46.2557   14.4553  -28.5614 C.ar    1  UNL1        0.1636
      7 O          45.8298   15.5377  -29.3373 O.3     1  UNL1       -0.5031
      8 C          47.4326   15.9833  -26.8710 C.3     1  UNL1        0.0403
      9 C          46.5209   16.4938  -25.7502 C.3     1  UNL1        0.0613
     10 I          47.2547   18.3786  -25.0391 I       1  UNL1       -0.0746
     11 C          46.3128   15.4805  -24.5957 C.3     1  UNL1        0.0331
     12 C          47.5102   14.5844  -24.3037 C.2     1  UNL1       -0.0390
     13 C          47.9006   13.6301  -25.2006 C.2     1  UNL1       -0.0076
     14 H          45.8514   16.4991  -29.0278 H       1  UNL1        0.2923
     15 C          49.0004   12.6824  -24.9048 C.ar    1  UNL1        0.0056
     16 C          50.3239   13.0138  -25.2121 C.ar    1  UNL1        0.0402
     17 C          51.3788   12.1331  -24.9044 C.ar    1  UNL1        0.1754
     18 C          51.0866   10.9024  -24.2592 C.ar    1  UNL1        0.2061
     19 C          49.7569   10.5864  -23.9309 C.ar    1  UNL1        0.1754
     20 C          48.7228   11.4838  -24.2454 C.ar    1  UNL1        0.0402
     21 O          52.7053   12.4608  -25.2264 O.3     1  UNL1       -0.4683
     22 C          53.4001   12.0102  -26.3851 C.3     1  UNL1        0.2526
     23 O          52.0649    9.9501  -23.9136 O.3     1  UNL1       -0.4654
     24 C          52.5592    8.9024  -24.7404 C.3     1  UNL1        0.2528
     25 O          49.5038    9.3630  -23.2891 O.3     1  UNL1       -0.4683
     26 C          49.4706    9.1829  -21.8768 C.3     1  UNL1        0.2526
     27 C          45.7946   12.3989  -31.3918 C.3     1  UNL1        0.2526
     28 O          45.2588   13.0401  -30.2387 O.3     1  UNL1       -0.4684
     29 C          48.1806   14.7481  -22.9477 C.3     1  UNL1        0.0483
     30 C          47.7757   13.6564  -21.9931 C.ar    1  UNL1       -0.0181
     31 C          48.6451   13.2545  -20.9643 C.ar    1  UNL1       -0.0039
     32 C          48.2794   12.2240  -20.0934 C.ar    1  UNL1       -0.0003
     33 C          47.0495   11.5795  -20.2484 C.ar    1  UNL1       -0.0000
     34 C          46.1837   11.9637  -21.2757 C.ar    1  UNL1       -0.0003
     35 C          46.5439   12.9963  -22.1472 C.ar    1  UNL1       -0.0039
@<TRIPOS>BOND
     1    27    28    1
     2    28     1    1
     3     1     2   ar
     4     2     3   ar
     5     3     4   ar
     6     4     5   ar
     7     5     6   ar
     8     6     7    1
     9     5     8    1
    10     8     9    1
    11     9    10    1
    12     9    11    1
    13    11    12    1
    14    12    29    1
    15    29    30    1
    16    30    31   ar
    17    31    32   ar
    18    32    33   ar
    19    33    34   ar
    20    34    35   ar
    21    12    13    2
    22    13    15    1
    23    15    16   ar
    24    16    17   ar
    25    17    21    1
    26    21    22    1
    27    17    18   ar
    28    18    23    1
    29    23    24    1
    30    18    19   ar
    31    19    25    1
    32    25    26    1
    33    19    20   ar
    34     6     1   ar
    35    35    30   ar
    36    20    15   ar
    37    13     4    1
    38     7    14    1
@<TRIPOS>MOLECULE
*****
 35 38 0 0 0
SMALL
GASTEIGER

@<TRIPOS>ATOM
      1 C          51.9758   10.3135  -26.9441 C.ar    1  UNL1        0.1718
      2 C          52.4711   11.6175  -27.0991 C.ar    1  UNL1        0.0400
      3 C          51.9658   12.6597  -26.3272 C.ar    1  UNL1        0.0030
      4 C          50.9320   12.4353  -25.4053 C.ar    1  UNL1       -0.0014
      5 C          50.3755   11.1380  -25.2896 C.ar    1  UNL1        0.0153
      6 C          50.9481   10.0657  -26.0223 C.ar    1  UNL1        0.1636
      7 O          50.5396    8.7394  -25.8517 O.3     1  UNL1       -0.5031
      8 C          49.1999   10.9379  -24.3609 C.3     1  UNL1        0.0403
      9 C          49.6661   10.9284  -22.9013 C.3     1  UNL1        0.0613
     10 I          47.9644   10.7320  -21.6122 I       1  UNL1       -0.0746
     11 C          50.5494   12.1418  -22.5135 C.3     1  UNL1        0.0331
     12 C          50.2084   13.4409  -23.2332 C.2     1  UNL1       -0.0390
     13 C          50.4412   13.5763  -24.5730 C.2     1  UNL1       -0.0076
     14 H          49.9405    8.4239  -25.1019 H       1  UNL1        0.2923
     15 C          50.2084   14.8564  -25.2816 C.ar    1  UNL1        0.0056
     16 C          51.0831   15.9335  -25.1059 C.ar    1  UNL1        0.0402
     17 C          50.8880   17.1428  -25.8007 C.ar    1  UNL1        0.1754
     18 C          49.7959   17.2548  -26.7013 C.ar    1  UNL1        0.2061
     19 C          48.9349   16.1601  -26.8918 C.ar    1  UNL1        0.1754
     20 C          49.1533   14.9633  -26.1892 C.ar    1  UNL1        0.0402
     21 O          51.7585   18.2279  -25.6124 O.3     1  UNL1       -0.4683
     22 C          52.4475   18.5221  -24.4012 C.3     1  UNL1        0.2526
     23 O          49.5084   18.4191  -27.4395 O.3     1  UNL1       -0.4654
     24 C          48.6883   19.5061  -27.0254 C.3     1  UNL1        0.2528
     25 O          47.8674   16.3035  -27.7933 O.3     1  UNL1       -0.4683
     26 C          46.5656   15.7603  -27.5976 C.3     1  UNL1        0.2526
     27 C          52.9182    9.3084  -29.0346 C.3     1  UNL1        0.2526
     28 O          52.4871    9.2319  -27.6795 O.3     1  UNL1       -0.4684
     29 C          49.6861   14.5867  -22.3792 C.3     1  UNL1        0.0483
     30 C          48.3838   15.1252  -22.9095 C.ar    1  UNL1       -0.0181
     31 C          47.3828   14.2466  -23.3589 C.ar    1  UNL1       -0.0039
     32 C          46.1837   14.7472  -23.8742 C.ar    1  UNL1       -0.0003
     33 C          45.9781   16.1268  -23.9553 C.ar    1  UNL1       -0.0000
     34 C          46.9722   17.0082  -23.5224 C.ar    1  UNL1       -0.0003
     35 C          48.1720   16.5120  -23.0031 C.ar    1  UNL1       -0.0039
@<TRIPOS>BOND
     1    27    28    1
     2    28     1    1
     3     1     2   ar
     4     2     3   ar
     5     3     4   ar
     6     4     5   ar
     7     5     6   ar
     8     6     7    1
     9     5     8    1
    10     8     9    1
    11     9    10    1
    12     9    11    1
    13    11    12    1
    14    12    29    1
    15    29    30    1
    16    30    31   ar
    17    31    32   ar
    18    32    33   ar
    19    33    34   ar
    20    34    35   ar
    21    12    13    2
    22    13    15    1
    23    15    16   ar
    24    16    17   ar
    25    17    21    1
    26    21    22    1
    27    17    18   ar
    28    18    23    1
    29    23    24    1
    30    18    19   ar
    31    19    25    1
    32    25    26    1
    33    19    20   ar
    34     6     1   ar
    35    35    30   ar
    36    20    15   ar
    37    13     4    1
    38     7    14    1
@<TRIPOS>MOLECULE
*****
 35 38 0 0 0
SMALL
GASTEIGER

@<TRIPOS>ATOM
      1 C          46.1833   12.1639  -19.9219 C.ar    1  UNL1        0.1718
      2 C          45.6337   11.9345  -21.1927 C.ar    1  UNL1        0.0400
      3 C          46.3492   12.2649  -22.3401 C.ar    1  UNL1        0.0030
      4 C          47.6157   12.8621  -22.2500 C.ar    1  UNL1       -0.0014
      5 C          48.1513   13.1630  -20.9738 C.ar    1  UNL1        0.0153
      6 C          47.4514   12.7524  -19.8093 C.ar    1  UNL1        0.1636
      7 O          47.9864   12.8930  -18.5251 O.3     1  UNL1       -0.5031
      8 C          49.4733   13.8922  -20.9003 C.3     1  UNL1        0.0403
      9 C          50.6292   12.9390  -21.2220 C.3     1  UNL1        0.0613
     10 I          52.4765   14.0266  -21.1952 I       1  UNL1       -0.0746
     11 C          50.4436   12.1451  -22.5404 C.3     1  UNL1        0.0331
     12 C          49.6948   12.8899  -23.6390 C.2     1  UNL1       -0.0390
     13 C          48.3639   13.1706  -23.5072 C.2     1  UNL1       -0.0076
     14 H          48.9483   13.1376  -18.3365 H       1  UNL1        0.2923
     15 C          47.5879   13.8088  -24.5960 C.ar    1  UNL1        0.0056
     16 C          47.1889   13.0661  -25.7119 C.ar    1  UNL1        0.0402
     17 C          46.4230   13.6562  -26.7357 C.ar    1  UNL1        0.1754
     18 C          46.0420   15.0190  -26.6167 C.ar    1  UNL1        0.2061
     19 C          46.4255   15.7529  -25.4810 C.ar    1  UNL1        0.1754
     20 C          47.1866   15.1399  -24.4716 C.ar    1  UNL1        0.0402
     21 O          46.0354   12.9133  -27.8620 O.3     1  UNL1       -0.4683
     22 C          46.4545   11.5823  -28.1468 C.3     1  UNL1        0.2526
     23 O          45.2832   15.7052  -27.5845 O.3     1  UNL1       -0.4654
     24 C          45.7789   16.3437  -28.7559 C.3     1  UNL1        0.2528
     25 O          46.0278   17.0972  -25.3932 O.3     1  UNL1       -0.4683
     26 C          46.8286   18.1433  -24.8526 C.3     1  UNL1        0.2526
     27 C          44.1029   11.9545  -18.5447 C.3     1  UNL1        0.2526
     28 O          45.5055   11.8098  -18.7440 O.3     1  UNL1       -0.4684
     29 C          50.4738   13.2204  -24.9034 C.3     1  UNL1        0.0483
     30 C          50.4818   14.7006  -25.1794 C.ar    1  UNL1       -0.0181
     31 C          50.7457   15.6142  -24.1443 C.ar    1  UNL1       -0.0039
     32 C          50.7287   16.9893  -24.3951 C.ar    1  UNL1       -0.0003
     33 C          50.4377   17.4638  -25.6766 C.ar    1  UNL1       -0.0000
     34 C          50.1619   16.5637  -26.7093 C.ar    1  UNL1       -0.0003
     35 C          50.1812   15.1872  -26.4638 C.ar    1  UNL1       -0.0039
@<TRIPOS>BOND
     1    27    28    1
     2    28     1    1
     3     1     2   ar
     4     2     3   ar
     5     3     4   ar
     6     4     5   ar
     7     5     6   ar
     8     6     7    1
     9     5     8    1
    10     8     9    1
    11     9    10    1
    12     9    11    1
    13    11    12    1
    14    12    29    1
    15    29    30    1
    16    30    31   ar
    17    31    32   ar
    18    32    33   ar
    19    33    34   ar
    20    34    35   ar
    21    12    13    2
    22    13    15    1
    23    15    16   ar
    24    16    17   ar
    25    17    21    1
    26    21    22    1
    27    17    18   ar
    28    18    23    1
    29    23    24    1
    30    18    19   ar
    31    19    25    1
    32    25    26    1
    33    19    20   ar
    34     6     1   ar
    35    35    30   ar
    36    20    15   ar
    37    13     4    1
    38     7    14    1
