@<TRIPOS>MOLECULE
*****
 31 34 0 0 0
SMALL
GASTEIGER

@<TRIPOS>ATOM
      1 C         -21.0256   -9.5827  -12.3448 C.ar    1  UNL1       -0.0145
      2 C         -20.6282  -10.2869  -11.1739 C.ar    1  UNL1        0.0307
      3 BR        -20.0953   -9.3918   -9.5594 Br      1  UNL1       -0.0493
      4 C         -20.6239  -11.6940  -11.1504 C.ar    1  UNL1        0.0079
      5 C         -21.0161  -12.4329  -12.2697 C.ar    1  UNL1        0.0177
      6 C         -21.4330  -11.7450  -13.4097 C.ar    1  UNL1        0.0597
      7 C         -21.4664  -10.3568  -13.4474 C.ar    1  UNL1        0.0137
      8 C         -21.9871  -10.0377  -14.7039 C.ar    1  UNL1        0.0174
      9 C         -22.3217   -8.8205  -15.3153 C.ar    1  UNL1        0.0082
     10 C         -22.8660   -8.8470  -16.6100 C.ar    1  UNL1        0.0347
     11 BR        -23.3330   -7.2101  -17.4762 Br      1  UNL1       -0.0490
     12 C         -23.0863  -10.0715  -17.2668 C.ar    1  UNL1        0.0082
     13 C         -22.7701  -11.2832  -16.6369 C.ar    1  UNL1        0.0177
     14 C         -22.2149  -11.2426  -15.3519 C.ar    1  UNL1        0.0600
     15 N         -21.8704  -12.2936  -14.5699 N.ar    1  UNL1       -0.3243
     16 C         -22.2664   -7.4681  -11.8350 C.3     1  UNL1        0.0050
     17 C         -20.9762   -8.0736  -12.3819 C.3     1  UNL1        0.0269
     18 C         -21.9190  -13.7252  -14.9039 C.3     1  UNL1        0.1429
     19 C         -23.3185  -14.1442  -15.3870 C.3     1  UNL1        0.2027
     20 F         -23.2318  -15.3842  -15.9937 F       1  UNL1       -0.2334
     21 C         -24.3676  -14.1706  -14.2613 C.3     1  UNL1        0.1259
     22 N         -25.3054  -13.0491  -14.3582 N.pl3   1  UNL1       -0.3157
     23 H         -26.1494  -13.1799  -14.9588 H       1  UNL1        0.1483
     24 C         -25.1909  -11.8034  -13.6482 C.ar    1  UNL1        0.1317
     25 C         -25.5961  -10.5782  -14.2092 C.ar    1  UNL1        0.0343
     26 C         -25.4465   -9.4027  -13.4711 C.ar    1  UNL1        0.0077
     27 C         -24.8926   -9.4478  -12.1920 C.ar    1  UNL1        0.0578
     28 C         -24.4890  -10.6755  -11.6638 C.ar    1  UNL1        0.2261
     29 N         -24.6449  -11.8111  -12.4006 N.ar    1  UNL1       -0.1969
     30 O         -23.9289  -10.7230  -10.3839 O.3     1  UNL1       -0.4561
     31 C         -24.2046   -9.7461   -9.3872 C.3     1  UNL1        0.2542
@<TRIPOS>BOND
     1    16    17    1
     2    17     1    1
     3     1     2   ar
     4     2     3    1
     5     2     4   ar
     6     4     5   ar
     7     5     6   ar
     8     6     7   ar
     9     7     8   ar
    10     8     9   ar
    11     9    10   ar
    12    10    11    1
    13    10    12   ar
    14    12    13   ar
    15    13    14   ar
    16    14    15   ar
    17    15    18    1
    18    18    19    1
    19    19    20    1
    20    19    21    1
    21    21    22    1
    22    22    24    1
    23    24    25   ar
    24    25    26   ar
    25    26    27   ar
    26    27    28   ar
    27    28    30    1
    28    30    31    1
    29    28    29   ar
    30     7     1   ar
    31    14     8   ar
    32    29    24   ar
    33    15     6   ar
    34    22    23    1
@<TRIPOS>MOLECULE
*****
 31 34 0 0 0
SMALL
GASTEIGER

@<TRIPOS>ATOM
      1 C         -23.6864  -12.0273  -13.8950 C.ar    1  UNL1       -0.0145
      2 C         -22.5511  -12.8835  -13.9466 C.ar    1  UNL1        0.0307
      3 BR        -22.4360  -14.3775  -15.1493 Br      1  UNL1       -0.0493
      4 C         -21.4420  -12.6546  -13.1111 C.ar    1  UNL1        0.0079
      5 C         -21.4241  -11.5798  -12.2183 C.ar    1  UNL1        0.0177
      6 C         -22.5242  -10.7224  -12.1856 C.ar    1  UNL1        0.0597
      7 C         -23.6200  -10.9164  -13.0171 C.ar    1  UNL1        0.0137
      8 C         -24.4760   -9.8452  -12.7497 C.ar    1  UNL1        0.0174
      9 C         -25.7009   -9.4435  -13.3026 C.ar    1  UNL1        0.0082
     10 C         -26.3042   -8.2714  -12.8174 C.ar    1  UNL1        0.0347
     11 BR        -27.9729   -7.6928  -13.5442 Br      1  UNL1       -0.0490
     12 C         -25.6797   -7.5107  -11.8120 C.ar    1  UNL1        0.0082
     13 C         -24.4441   -7.9088  -11.2832 C.ar    1  UNL1        0.0177
     14 C         -23.8599   -9.0867  -11.7654 C.ar    1  UNL1        0.0600
     15 N         -22.6677   -9.6212  -11.4077 N.ar    1  UNL1       -0.3243
     16 C         -25.8468  -13.2825  -14.0628 C.3     1  UNL1        0.0050
     17 C         -24.8954  -12.3097  -14.7550 C.3     1  UNL1        0.0269
     18 C         -21.7348   -9.1445  -10.3753 C.3     1  UNL1        0.1429
     19 C         -20.5800   -8.3343  -10.9898 C.3     1  UNL1        0.2027
     20 F         -19.6261   -9.2098  -11.4763 F       1  UNL1       -0.2334
     21 C         -21.0368   -7.3695  -12.0984 C.3     1  UNL1        0.1259
     22 N         -20.6035   -7.8134  -13.4257 N.pl3   1  UNL1       -0.3157
     23 H         -19.5759   -7.8602  -13.6042 H       1  UNL1        0.1483
     24 C         -21.4747   -8.2467  -14.4849 C.ar    1  UNL1        0.1317
     25 C         -22.6292   -7.5297  -14.8499 C.ar    1  UNL1        0.0343
     26 C         -23.4394   -8.0115  -15.8795 C.ar    1  UNL1        0.0077
     27 C         -23.1064   -9.1982  -16.5322 C.ar    1  UNL1        0.0578
     28 C         -21.9612   -9.8954  -16.1428 C.ar    1  UNL1        0.2261
     29 N         -21.1835   -9.4070  -15.1361 N.ar    1  UNL1       -0.1969
     30 O         -21.6276  -11.0876  -16.7919 O.3     1  UNL1       -0.4561
     31 C         -22.5223  -11.7623  -17.6683 C.3     1  UNL1        0.2542
@<TRIPOS>BOND
     1    16    17    1
     2    17     1    1
     3     1     2   ar
     4     2     3    1
     5     2     4   ar
     6     4     5   ar
     7     5     6   ar
     8     6     7   ar
     9     7     8   ar
    10     8     9   ar
    11     9    10   ar
    12    10    11    1
    13    10    12   ar
    14    12    13   ar
    15    13    14   ar
    16    14    15   ar
    17    15    18    1
    18    18    19    1
    19    19    20    1
    20    19    21    1
    21    21    22    1
    22    22    24    1
    23    24    25   ar
    24    25    26   ar
    25    26    27   ar
    26    27    28   ar
    27    28    30    1
    28    30    31    1
    29    28    29   ar
    30     7     1   ar
    31    14     8   ar
    32    29    24   ar
    33    15     6   ar
    34    22    23    1
@<TRIPOS>MOLECULE
*****
 31 34 0 0 0
SMALL
GASTEIGER

@<TRIPOS>ATOM
      1 C         -22.6858   -9.6751  -15.8030 C.ar    1  UNL1       -0.0145
      2 C         -23.1319   -9.5791  -17.1508 C.ar    1  UNL1        0.0307
      3 BR        -23.6650   -7.9140  -17.9479 Br      1  UNL1       -0.0493
      4 C         -23.1871  -10.7215  -17.9708 C.ar    1  UNL1        0.0079
      5 C         -22.7990  -11.9735  -17.4865 C.ar    1  UNL1        0.0177
      6 C         -22.3347  -12.0656  -16.1741 C.ar    1  UNL1        0.0597
      7 C         -22.2508  -10.9473  -15.3542 C.ar    1  UNL1        0.0137
      8 C         -21.6935  -11.4106  -14.1599 C.ar    1  UNL1        0.0174
      9 C         -21.3032  -10.7653  -12.9773 C.ar    1  UNL1        0.0082
     10 C         -20.7340  -11.5347  -11.9491 C.ar    1  UNL1        0.0347
     11 BR        -20.1911  -10.6921  -10.3234 Br      1  UNL1       -0.0490
     12 C         -20.5445  -12.9189  -12.1147 C.ar    1  UNL1        0.0082
     13 C         -20.9167  -13.5496  -13.3100 C.ar    1  UNL1        0.0177
     14 C         -21.4960  -12.7739  -14.3218 C.ar    1  UNL1        0.0600
     15 N         -21.8938  -13.1854  -15.5496 N.ar    1  UNL1       -0.3243
     16 C         -21.3065   -7.7901  -14.9000 C.3     1  UNL1        0.0050
     17 C         -22.6804   -8.4557  -14.9119 C.3     1  UNL1        0.0269
     18 C         -21.8898  -14.5526  -16.0918 C.3     1  UNL1        0.1429
     19 C         -23.0725  -15.3762  -15.5528 C.3     1  UNL1        0.2027
     20 F         -22.8867  -15.5969  -14.2000 F       1  UNL1       -0.2334
     21 C         -24.4390  -14.7147  -15.8051 C.3     1  UNL1        0.1259
     22 N         -25.0753  -14.2767  -14.5602 N.pl3   1  UNL1       -0.3157
     23 H         -25.4676  -15.0160  -13.9359 H       1  UNL1        0.1483
     24 C         -25.1528  -12.9170  -14.0975 C.ar    1  UNL1        0.1317
     25 C         -25.7029  -11.8861  -14.8816 C.ar    1  UNL1        0.0343
     26 C         -25.7370  -10.5846  -14.3779 C.ar    1  UNL1        0.0077
     27 C         -25.2217  -10.3131  -13.1106 C.ar    1  UNL1        0.0578
     28 C         -24.6717  -11.3527  -12.3583 C.ar    1  UNL1        0.2261
     29 N         -24.6494  -12.6162  -12.8683 N.ar    1  UNL1       -0.1969
     30 O         -24.1501  -11.0827  -11.0899 O.3     1  UNL1       -0.4561
     31 C         -24.1024   -9.7710  -10.5414 C.3     1  UNL1        0.2542
@<TRIPOS>BOND
     1    16    17    1
     2    17     1    1
     3     1     2   ar
     4     2     3    1
     5     2     4   ar
     6     4     5   ar
     7     5     6   ar
     8     6     7   ar
     9     7     8   ar
    10     8     9   ar
    11     9    10   ar
    12    10    11    1
    13    10    12   ar
    14    12    13   ar
    15    13    14   ar
    16    14    15   ar
    17    15    18    1
    18    18    19    1
    19    19    20    1
    20    19    21    1
    21    21    22    1
    22    22    24    1
    23    24    25   ar
    24    25    26   ar
    25    26    27   ar
    26    27    28   ar
    27    28    30    1
    28    30    31    1
    29    28    29   ar
    30     7     1   ar
    31    14     8   ar
    32    29    24   ar
    33    15     6   ar
    34    22    23    1
@<TRIPOS>MOLECULE
*****
 31 34 0 0 0
SMALL
GASTEIGER

@<TRIPOS>ATOM
      1 C         -23.4645  -11.1721  -13.9568 C.ar    1  UNL1       -0.0145
      2 C         -22.2557  -11.9204  -13.8939 C.ar    1  UNL1        0.0307
      3 BR        -21.4910  -12.7814  -15.4320 Br      1  UNL1       -0.0493
      4 C         -21.5541  -12.0483  -12.6808 C.ar    1  UNL1        0.0079
      5 C         -22.0205  -11.4395  -11.5127 C.ar    1  UNL1        0.0177
      6 C         -23.1904  -10.6820  -11.5776 C.ar    1  UNL1        0.0597
      7 C         -23.8869  -10.5239  -12.7691 C.ar    1  UNL1        0.0137
      8 C         -24.9466   -9.6668  -12.4621 C.ar    1  UNL1        0.0174
      9 C         -25.9561   -9.0829  -13.2414 C.ar    1  UNL1        0.0082
     10 C         -26.8734   -8.2221  -12.6163 C.ar    1  UNL1        0.0347
     11 BR        -28.2628   -7.4089  -13.6438 Br      1  UNL1       -0.0490
     12 C         -26.7657   -7.9405  -11.2420 C.ar    1  UNL1        0.0082
     13 C         -25.7386   -8.5112  -10.4776 C.ar    1  UNL1        0.0177
     14 C         -24.8391   -9.3787  -11.1096 C.ar    1  UNL1        0.0600
     15 N         -23.7711  -10.0030  -10.5578 N.ar    1  UNL1       -0.3243
     16 C         -25.3485  -12.1336  -15.2972 C.3     1  UNL1        0.0050
     17 C         -24.2413  -11.0837  -15.2489 C.3     1  UNL1        0.0269
     18 C         -23.3407   -9.9885   -9.1514 C.3     1  UNL1        0.1429
     19 C         -22.6268   -8.6731   -8.7940 C.3     1  UNL1        0.2027
     20 F         -22.8205   -8.4075   -7.4504 F       1  UNL1       -0.2334
     21 C         -21.1241   -8.6872   -9.1261 C.3     1  UNL1        0.1259
     22 N         -20.7777   -7.6941  -10.1460 N.pl3   1  UNL1       -0.3157
     23 H         -19.9371   -7.1000   -9.9713 H       1  UNL1        0.1483
     24 C         -21.4649   -7.5087  -11.3959 C.ar    1  UNL1        0.1317
     25 C         -22.5957   -6.6799  -11.5167 C.ar    1  UNL1        0.0343
     26 C         -23.2239   -6.5528  -12.7569 C.ar    1  UNL1        0.0077
     27 C         -22.7349   -7.2498  -13.8615 C.ar    1  UNL1        0.0578
     28 C         -21.6179   -8.0737  -13.7112 C.ar    1  UNL1        0.2261
     29 N         -21.0189   -8.1828  -12.4921 N.ar    1  UNL1       -0.1969
     30 O         -21.1285   -8.7773  -14.8154 O.3     1  UNL1       -0.4561
     31 C         -21.1201   -8.2349  -16.1306 C.3     1  UNL1        0.2542
@<TRIPOS>BOND
     1    16    17    1
     2    17     1    1
     3     1     2   ar
     4     2     3    1
     5     2     4   ar
     6     4     5   ar
     7     5     6   ar
     8     6     7   ar
     9     7     8   ar
    10     8     9   ar
    11     9    10   ar
    12    10    11    1
    13    10    12   ar
    14    12    13   ar
    15    13    14   ar
    16    14    15   ar
    17    15    18    1
    18    18    19    1
    19    19    20    1
    20    19    21    1
    21    21    22    1
    22    22    24    1
    23    24    25   ar
    24    25    26   ar
    25    26    27   ar
    26    27    28   ar
    27    28    30    1
    28    30    31    1
    29    28    29   ar
    30     7     1   ar
    31    14     8   ar
    32    29    24   ar
    33    15     6   ar
    34    22    23    1
@<TRIPOS>MOLECULE
*****
 31 34 0 0 0
SMALL
GASTEIGER

@<TRIPOS>ATOM
      1 C         -21.3291   -9.6018  -11.4367 C.ar    1  UNL1       -0.0145
      2 C         -20.3567  -10.5551  -11.0236 C.ar    1  UNL1        0.0307
      3 BR        -18.8865  -10.1009   -9.8729 Br      1  UNL1       -0.0493
      4 C         -20.4457  -11.8964  -11.4400 C.ar    1  UNL1        0.0079
      5 C         -21.4919  -12.3267  -12.2603 C.ar    1  UNL1        0.0177
      6 C         -22.4621  -11.4003  -12.6439 C.ar    1  UNL1        0.0597
      7 C         -22.4062  -10.0765  -12.2264 C.ar    1  UNL1        0.0137
      8 C         -23.5573   -9.4802  -12.7471 C.ar    1  UNL1        0.0174
      9 C         -24.1011   -8.1929  -12.6265 C.ar    1  UNL1        0.0082
     10 C         -25.3202   -7.9165  -13.2673 C.ar    1  UNL1        0.0347
     11 BR        -26.0917   -6.1750  -13.1273 Br      1  UNL1       -0.0490
     12 C         -25.9863   -8.9181  -13.9970 C.ar    1  UNL1        0.0082
     13 C         -25.4453  -10.2079  -14.0913 C.ar    1  UNL1        0.0177
     14 C         -24.2225  -10.4667  -13.4598 C.ar    1  UNL1        0.0600
     15 N         -23.5545  -11.6441  -13.4091 N.ar    1  UNL1       -0.3243
     16 C         -20.6412   -7.3102  -12.1758 C.3     1  UNL1        0.0050
     17 C         -21.1982   -8.1529  -11.0312 C.3     1  UNL1        0.0269
     18 C         -23.9043  -12.9127  -14.0661 C.3     1  UNL1        0.1429
     19 C         -23.2015  -13.0550  -15.4276 C.3     1  UNL1        0.2027
     20 F         -22.8330  -14.3761  -15.6069 F       1  UNL1       -0.2334
     21 C         -24.0621  -12.5736  -16.6092 C.3     1  UNL1        0.1259
     22 N         -23.3973  -11.5193  -17.3791 N.pl3   1  UNL1       -0.3157
     23 H         -23.3817  -11.6211  -18.4181 H       1  UNL1        0.1483
     24 C         -22.8152  -10.3254  -16.8272 C.ar    1  UNL1        0.1317
     25 C         -21.5650  -10.3276  -16.1812 C.ar    1  UNL1        0.0343
     26 C         -21.0618   -9.1359  -15.6563 C.ar    1  UNL1        0.0077
     27 C         -21.8000   -7.9578  -15.7675 C.ar    1  UNL1        0.0578
     28 C         -23.0424   -7.9861  -16.4037 C.ar    1  UNL1        0.2261
     29 N         -23.5147   -9.1597  -16.9101 N.ar    1  UNL1       -0.1969
     30 O         -23.7867   -6.8079  -16.5123 O.3     1  UNL1       -0.4561
     31 C         -24.1769   -6.2576  -17.7648 C.3     1  UNL1        0.2542
@<TRIPOS>BOND
     1    16    17    1
     2    17     1    1
     3     1     2   ar
     4     2     3    1
     5     2     4   ar
     6     4     5   ar
     7     5     6   ar
     8     6     7   ar
     9     7     8   ar
    10     8     9   ar
    11     9    10   ar
    12    10    11    1
    13    10    12   ar
    14    12    13   ar
    15    13    14   ar
    16    14    15   ar
    17    15    18    1
    18    18    19    1
    19    19    20    1
    20    19    21    1
    21    21    22    1
    22    22    24    1
    23    24    25   ar
    24    25    26   ar
    25    26    27   ar
    26    27    28   ar
    27    28    30    1
    28    30    31    1
    29    28    29   ar
    30     7     1   ar
    31    14     8   ar
    32    29    24   ar
    33    15     6   ar
    34    22    23    1
@<TRIPOS>MOLECULE
*****
 31 34 0 0 0
SMALL
GASTEIGER

@<TRIPOS>ATOM
      1 C         -23.6642  -12.3156  -13.5727 C.ar    1  UNL1       -0.0145
      2 C         -22.7522  -13.0614  -14.3709 C.ar    1  UNL1        0.0307
      3 BR        -23.3040  -14.0452  -15.9263 Br      1  UNL1       -0.0493
      4 C         -21.3820  -13.0953  -14.0517 C.ar    1  UNL1        0.0079
      5 C         -20.8825  -12.3935  -12.9514 C.ar    1  UNL1        0.0177
      6 C         -21.7700  -11.6388  -12.1836 C.ar    1  UNL1        0.0597
      7 C         -23.1225  -11.5732  -12.4936 C.ar    1  UNL1        0.0137
      8 C         -23.6692  -10.6901  -11.5592 C.ar    1  UNL1        0.0174
      9 C         -24.9584  -10.1659  -11.3845 C.ar    1  UNL1        0.0082
     10 C         -25.1763   -9.2544  -10.3382 C.ar    1  UNL1        0.0347
     11 BR        -26.9184   -8.5198  -10.0676 Br      1  UNL1       -0.0490
     12 C         -24.1166   -8.8647   -9.4987 C.ar    1  UNL1        0.0082
     13 C         -22.8270   -9.3769   -9.6972 C.ar    1  UNL1        0.0177
     14 C         -22.6259  -10.2956  -10.7348 C.ar    1  UNL1        0.0600
     15 N         -21.4604  -10.8784  -11.1047 N.ar    1  UNL1       -0.3243
     16 C         -25.7991  -13.6117  -13.3912 C.3     1  UNL1        0.0050
     17 C         -25.1411  -12.3271  -13.8884 C.3     1  UNL1        0.0269
     18 C         -20.1423  -10.7538  -10.4640 C.3     1  UNL1        0.1429
     19 C         -19.7583   -9.2796  -10.2467 C.3     1  UNL1        0.2027
     20 F         -18.6522   -9.2210   -9.4183 F       1  UNL1       -0.2334
     21 C         -19.4858   -8.5227  -11.5587 C.3     1  UNL1        0.1259
     22 N         -20.5662   -7.5899  -11.8891 N.pl3   1  UNL1       -0.3157
     23 H         -20.5466   -6.6515  -11.4316 H       1  UNL1        0.1483
     24 C         -21.6200   -7.8370  -12.8363 C.ar    1  UNL1        0.1317
     25 C         -22.8902   -7.2426  -12.7203 C.ar    1  UNL1        0.0343
     26 C         -23.8734   -7.5341  -13.6675 C.ar    1  UNL1        0.0077
     27 C         -23.5955   -8.4139  -14.7134 C.ar    1  UNL1        0.0578
     28 C         -22.3304   -8.9981  -14.7985 C.ar    1  UNL1        0.2261
     29 N         -21.3847   -8.6990  -13.8642 N.ar    1  UNL1       -0.1969
     30 O         -22.0506   -9.8840  -15.8430 O.3     1  UNL1       -0.4561
     31 C         -23.0002  -10.2081  -16.8515 C.3     1  UNL1        0.2542
@<TRIPOS>BOND
     1    16    17    1
     2    17     1    1
     3     1     2   ar
     4     2     3    1
     5     2     4   ar
     6     4     5   ar
     7     5     6   ar
     8     6     7   ar
     9     7     8   ar
    10     8     9   ar
    11     9    10   ar
    12    10    11    1
    13    10    12   ar
    14    12    13   ar
    15    13    14   ar
    16    14    15   ar
    17    15    18    1
    18    18    19    1
    19    19    20    1
    20    19    21    1
    21    21    22    1
    22    22    24    1
    23    24    25   ar
    24    25    26   ar
    25    26    27   ar
    26    27    28   ar
    27    28    30    1
    28    30    31    1
    29    28    29   ar
    30     7     1   ar
    31    14     8   ar
    32    29    24   ar
    33    15     6   ar
    34    22    23    1
@<TRIPOS>MOLECULE
*****
 31 34 0 0 0
SMALL
GASTEIGER

@<TRIPOS>ATOM
      1 C         -24.6189   -9.4064  -12.3466 C.ar    1  UNL1       -0.0145
      2 C         -25.7543   -9.3250  -13.2006 C.ar    1  UNL1        0.0307
      3 BR        -27.0523   -7.9150  -13.0641 Br      1  UNL1       -0.0493
      4 C         -25.9651  -10.2865  -14.2064 C.ar    1  UNL1        0.0079
      5 C         -25.0641  -11.3374  -14.3967 C.ar    1  UNL1        0.0177
      6 C         -23.9354  -11.4038  -13.5791 C.ar    1  UNL1        0.0597
      7 C         -23.6959  -10.4531  -12.5949 C.ar    1  UNL1        0.0137
      8 C         -22.4651  -10.8070  -12.0367 C.ar    1  UNL1        0.0174
      9 C         -21.6584  -10.2134  -11.0548 C.ar    1  UNL1        0.0082
     10 C         -20.4330  -10.8212  -10.7353 C.ar    1  UNL1        0.0347
     11 BR        -19.3074  -10.0433   -9.4027 Br      1  UNL1       -0.0490
     12 C         -20.0202  -11.9893  -11.4021 C.ar    1  UNL1        0.0082
     13 C         -20.8237  -12.5609  -12.3984 C.ar    1  UNL1        0.0177
     14 C         -22.0494  -11.9533  -12.6977 C.ar    1  UNL1        0.0600
     15 N         -22.9479  -12.3309  -13.6385 N.ar    1  UNL1       -0.3243
     16 C         -25.0181   -8.9159   -9.9235 C.3     1  UNL1        0.0050
     17 C         -24.4268   -8.4031  -11.2342 C.3     1  UNL1        0.0269
     18 C         -22.8976  -13.5090  -14.5177 C.3     1  UNL1        0.1429
     19 C         -21.8601  -13.3308  -15.6400 C.3     1  UNL1        0.2027
     20 F         -21.6101  -14.5613  -16.2201 F       1  UNL1       -0.2334
     21 C         -22.2907  -12.3116  -16.7097 C.3     1  UNL1        0.1259
     22 N         -21.5026  -11.0783  -16.6420 N.pl3   1  UNL1       -0.3157
     23 H         -20.5869  -11.0659  -17.1435 H       1  UNL1        0.1483
     24 C         -21.9119   -9.8627  -15.9913 C.ar    1  UNL1        0.1317
     25 C         -23.0232   -9.1156  -16.4237 C.ar    1  UNL1        0.0343
     26 C         -23.3600   -7.9372  -15.7553 C.ar    1  UNL1        0.0077
     27 C         -22.5932   -7.5051  -14.6734 C.ar    1  UNL1        0.0578
     28 C         -21.4893   -8.2598  -14.2722 C.ar    1  UNL1        0.2261
     29 N         -21.1786   -9.4076  -14.9377 N.ar    1  UNL1       -0.1969
     30 O         -20.7160   -7.8266  -13.1913 O.3     1  UNL1       -0.4561
     31 C         -21.1596   -6.8287  -12.2795 C.3     1  UNL1        0.2542
@<TRIPOS>BOND
     1    16    17    1
     2    17     1    1
     3     1     2   ar
     4     2     3    1
     5     2     4   ar
     6     4     5   ar
     7     5     6   ar
     8     6     7   ar
     9     7     8   ar
    10     8     9   ar
    11     9    10   ar
    12    10    11    1
    13    10    12   ar
    14    12    13   ar
    15    13    14   ar
    16    14    15   ar
    17    15    18    1
    18    18    19    1
    19    19    20    1
    20    19    21    1
    21    21    22    1
    22    22    24    1
    23    24    25   ar
    24    25    26   ar
    25    26    27   ar
    26    27    28   ar
    27    28    30    1
    28    30    31    1
    29    28    29   ar
    30     7     1   ar
    31    14     8   ar
    32    29    24   ar
    33    15     6   ar
    34    22    23    1
@<TRIPOS>MOLECULE
*****
 31 34 0 0 0
SMALL
GASTEIGER

@<TRIPOS>ATOM
      1 C         -23.7764   -8.0982  -12.1752 C.ar    1  UNL1       -0.0145
      2 C         -24.9196   -7.6940  -12.9197 C.ar    1  UNL1        0.0307
      3 BR        -25.6272   -5.9093  -12.8413 Br      1  UNL1       -0.0493
      4 C         -25.5795   -8.6014  -13.7692 C.ar    1  UNL1        0.0079
      5 C         -25.1259   -9.9157  -13.9088 C.ar    1  UNL1        0.0177
      6 C         -23.9886  -10.3067  -13.2014 C.ar    1  UNL1        0.0597
      7 C         -23.3086   -9.4213  -12.3747 C.ar    1  UNL1        0.0137
      8 C         -22.2095  -10.1387  -11.8963 C.ar    1  UNL1        0.0174
      9 C         -21.1241   -9.7870  -11.0805 C.ar    1  UNL1        0.0082
     10 C         -20.1488  -10.7595  -10.8046 C.ar    1  UNL1        0.0347
     11 BR        -18.6567  -10.3188   -9.6968 Br      1  UNL1       -0.0490
     12 C         -20.2535  -12.0510  -11.3527 C.ar    1  UNL1        0.0082
     13 C         -21.3303  -12.3847  -12.1859 C.ar    1  UNL1        0.0177
     14 C         -22.3033  -11.4105  -12.4418 C.ar    1  UNL1        0.0600
     15 N         -23.3947  -11.5250  -13.2359 N.ar    1  UNL1       -0.3243
     16 C         -21.9899   -6.3618  -11.9222 C.3     1  UNL1        0.0050
     17 C         -23.1052   -7.1359  -11.2242 C.3     1  UNL1        0.0269
     18 C         -23.8685  -12.7158  -13.9576 C.3     1  UNL1        0.1429
     19 C         -23.0557  -12.9572  -15.2417 C.3     1  UNL1        0.2027
     20 F         -22.8004  -14.3112  -15.3637 F       1  UNL1       -0.2334
     21 C         -23.7491  -12.4263  -16.5089 C.3     1  UNL1        0.1259
     22 N         -22.9454  -11.4071  -17.1886 N.pl3   1  UNL1       -0.3157
     23 H         -22.6621  -11.5987  -18.1751 H       1  UNL1        0.1483
     24 C         -22.5634  -10.1380  -16.6299 C.ar    1  UNL1        0.1317
     25 C         -21.4049   -9.9790  -15.8471 C.ar    1  UNL1        0.0343
     26 C         -21.0973   -8.7217  -15.3241 C.ar    1  UNL1        0.0077
     27 C         -21.9390   -7.6378  -15.5725 C.ar    1  UNL1        0.0578
     28 C         -23.0878   -7.8258  -16.3433 C.ar    1  UNL1        0.2261
     29 N         -23.3689   -9.0611  -16.8453 N.ar    1  UNL1       -0.1969
     30 O         -23.9358   -6.7423  -16.5898 O.3     1  UNL1       -0.4561
     31 C         -24.2013   -6.2562  -17.9002 C.3     1  UNL1        0.2542
@<TRIPOS>BOND
     1    16    17    1
     2    17     1    1
     3     1     2   ar
     4     2     3    1
     5     2     4   ar
     6     4     5   ar
     7     5     6   ar
     8     6     7   ar
     9     7     8   ar
    10     8     9   ar
    11     9    10   ar
    12    10    11    1
    13    10    12   ar
    14    12    13   ar
    15    13    14   ar
    16    14    15   ar
    17    15    18    1
    18    18    19    1
    19    19    20    1
    20    19    21    1
    21    21    22    1
    22    22    24    1
    23    24    25   ar
    24    25    26   ar
    25    26    27   ar
    26    27    28   ar
    27    28    30    1
    28    30    31    1
    29    28    29   ar
    30     7     1   ar
    31    14     8   ar
    32    29    24   ar
    33    15     6   ar
    34    22    23    1
@<TRIPOS>MOLECULE
*****
 31 34 0 0 0
SMALL
GASTEIGER

@<TRIPOS>ATOM
      1 C         -22.9074  -11.5470  -14.2084 C.ar    1  UNL1       -0.0145
      2 C         -24.0009  -11.8024  -15.0824 C.ar    1  UNL1        0.0307
      3 BR        -23.8099  -12.7982  -16.7145 Br      1  UNL1       -0.0493
      4 C         -25.2918  -11.3372  -14.7702 C.ar    1  UNL1        0.0079
      5 C         -25.5337  -10.6221  -13.5944 C.ar    1  UNL1        0.0177
      6 C         -24.4688  -10.3945  -12.7220 C.ar    1  UNL1        0.0597
      7 C         -23.1910  -10.8637  -12.9993 C.ar    1  UNL1        0.0137
      8 C         -22.4213  -10.5054  -11.8899 C.ar    1  UNL1        0.0174
      9 C         -21.0847  -10.7464  -11.5397 C.ar    1  UNL1        0.0082
     10 C         -20.6157  -10.2618  -10.3075 C.ar    1  UNL1        0.0347
     11 BR        -18.8013  -10.5688   -9.7962 Br      1  UNL1       -0.0490
     12 C         -21.4773   -9.5670   -9.4391 C.ar    1  UNL1        0.0082
     13 C         -22.8177   -9.3523   -9.7888 C.ar    1  UNL1        0.0177
     14 C         -23.2692   -9.8280  -11.0261 C.ar    1  UNL1        0.0600
     15 N         -24.5235   -9.7480  -11.5315 N.ar    1  UNL1       -0.3243
     16 C         -21.2551  -13.4249  -14.0881 C.3     1  UNL1        0.0050
     17 C         -21.5146  -12.0015  -14.5751 C.3     1  UNL1        0.0269
     18 C         -25.6944   -9.0771  -10.9465 C.3     1  UNL1        0.1429
     19 C         -26.3428   -8.1022  -11.9450 C.3     1  UNL1        0.2027
     20 F         -27.7168   -8.1516  -11.7931 F       1  UNL1       -0.2334
     21 C         -25.8389   -6.6557  -11.7968 C.3     1  UNL1        0.1259
     22 N         -24.8499   -6.3110  -12.8213 N.pl3   1  UNL1       -0.3157
     23 H         -25.1685   -5.7084  -13.6123 H       1  UNL1        0.1483
     24 C         -23.4612   -6.6847  -12.7981 C.ar    1  UNL1        0.1317
     25 C         -22.5877   -6.2699  -11.7757 C.ar    1  UNL1        0.0343
     26 C         -21.2474   -6.6578  -11.8189 C.ar    1  UNL1        0.0077
     27 C         -20.7821   -7.4436  -12.8730 C.ar    1  UNL1        0.0578
     28 C         -21.6677   -7.8320  -13.8800 C.ar    1  UNL1        0.2261
     29 N         -22.9723   -7.4434  -13.8180 N.ar    1  UNL1       -0.1969
     30 O         -21.2030   -8.6154  -14.9402 O.3     1  UNL1       -0.4561
     31 C         -21.1246   -8.1328  -16.2762 C.3     1  UNL1        0.2542
@<TRIPOS>BOND
     1    16    17    1
     2    17     1    1
     3     1     2   ar
     4     2     3    1
     5     2     4   ar
     6     4     5   ar
     7     5     6   ar
     8     6     7   ar
     9     7     8   ar
    10     8     9   ar
    11     9    10   ar
    12    10    11    1
    13    10    12   ar
    14    12    13   ar
    15    13    14   ar
    16    14    15   ar
    17    15    18    1
    18    18    19    1
    19    19    20    1
    20    19    21    1
    21    21    22    1
    22    22    24    1
    23    24    25   ar
    24    25    26   ar
    25    26    27   ar
    26    27    28   ar
    27    28    30    1
    28    30    31    1
    29    28    29   ar
    30     7     1   ar
    31    14     8   ar
    32    29    24   ar
    33    15     6   ar
    34    22    23    1
