@<TRIPOS>MOLECULE
*****
 49 54 0 0 0
SMALL
GASTEIGER

@<TRIPOS>ATOM
      1 O         -23.8116   51.6607  -11.5349 O.2     1  UNL1       -0.2701
      2 C         -23.7783   52.2168  -10.4034 C.2     1  UNL1        0.2483
      3 N         -22.7251   53.1445  -10.0910 N.am    1  UNL1       -0.2945
      4 H         -22.7662   53.6588   -9.1838 H       1  UNL1        0.1501
      5 C         -24.7720   51.8285   -9.3803 C.ar    1  UNL1        0.0808
      6 C         -26.1065   52.2369   -9.5356 C.ar    1  UNL1        0.0080
      7 C         -27.0901   51.8024   -8.6451 C.ar    1  UNL1        0.0148
      8 C         -26.7552   50.9653   -7.5710 C.ar    1  UNL1        0.0502
      9 C         -25.4156   50.5852   -7.3919 C.ar    1  UNL1        0.0443
     10 C         -24.4283   51.0165   -8.2831 C.ar    1  UNL1        0.1457
     11 F         -23.1393   50.6616   -8.0510 F       1  UNL1       -0.2040
     12 N         -27.7788   50.4695   -6.6885 N.pl3   1  UNL1       -0.3040
     13 C         -28.4327   49.1861   -6.9930 C.3     1  UNL1        0.1122
     14 C         -29.2667   48.6903   -5.8071 C.3     1  UNL1        0.1122
     15 N         -28.5167   48.8881   -4.5585 N.pl3   1  UNL1       -0.3041
     16 C         -27.9492   50.2117   -4.2522 C.3     1  UNL1        0.1122
     17 C         -28.0991   51.1721   -5.4380 C.3     1  UNL1        0.1122
     18 C         -28.2515   47.7810   -3.6760 C.ar    1  UNL1        0.0479
     19 C         -29.2254   47.3546   -2.7586 C.ar    1  UNL1        0.0145
     20 C         -28.9675   46.2813   -1.9042 C.ar    1  UNL1        0.0012
     21 C         -27.7423   45.6140   -1.9642 C.ar    1  UNL1        0.0039
     22 C         -26.7668   46.0021   -2.8983 C.ar    1  UNL1        0.0726
     23 C         -27.0229   47.1013   -3.7376 C.ar    1  UNL1        0.0184
     24 C         -25.4250   45.3142   -2.9328 C.3     1  UNL1        0.4186
     25 F         -24.4243   46.2657   -2.8682 F       1  UNL1       -0.1659
     26 F         -25.2805   44.5862   -4.1012 F       1  UNL1       -0.1659
     27 F         -25.2910   44.4458   -1.8633 F       1  UNL1       -0.1659
     28 C         -21.4290   53.1074  -10.7773 C.3     1  UNL1        0.1535
     29 C         -20.5497   54.2231  -10.2760 C.2     1  UNL1        0.2443
     30 O         -19.9798   54.9755  -11.1125 O.2     1  UNL1       -0.2730
     31 N         -20.3068   54.3906   -8.8683 N.am    1  UNL1       -0.2825
     32 H         -20.5107   53.5864   -8.2333 H       1  UNL1        0.1549
     33 C         -19.7018   55.5603   -8.2910 C.ar    1  UNL1        0.0535
     34 C         -18.7895   55.4151   -7.2368 C.ar    1  UNL1        0.0353
     35 C         -18.2170   56.5493   -6.6563 C.ar    1  UNL1        0.1002
     36 N         -18.5564   57.7880   -7.1011 N.ar    1  UNL1       -0.2422
     37 C         -19.4527   57.9619   -8.1079 C.ar    1  UNL1        0.1002
     38 C         -20.0478   56.8541   -8.7170 C.ar    1  UNL1        0.0353
     39 C         -20.7467   51.7430  -10.5648 C.3     1  UNL1        0.0569
     40 C         -19.2558   51.8459  -10.7242 C.ar    1  UNL1       -0.0017
     41 C         -18.5529   51.8332  -11.9251 C.ar    1  UNL1        0.0681
     42 N         -17.2205   51.8117  -11.6929 N.ar    1  UNL1       -0.3523
     43 C         -17.0755   51.7964  -10.3567 C.ar    1  UNL1        0.0563
     44 C         -15.8827   51.7235   -9.6380 C.ar    1  UNL1        0.0170
     45 C         -15.9622   51.6672   -8.2348 C.ar    1  UNL1        0.0015
     46 C         -17.2176   51.6789   -7.5882 C.ar    1  UNL1        0.0001
     47 C         -18.4052   51.7537   -8.3387 C.ar    1  UNL1        0.0012
     48 C         -18.2952   51.8139   -9.7293 C.ar    1  UNL1        0.0131
     49 H         -16.4620   51.7819  -12.4099 H       1  UNL1        0.1660
@<TRIPOS>BOND
     1     1     2    2
     2     2     3   am
     3     3    28    1
     4    28    39    1
     5    39    40    1
     6    40    41   ar
     7    41    42   ar
     8    42    43   ar
     9    43    44   ar
    10    44    45   ar
    11    45    46   ar
    12    46    47   ar
    13    47    48   ar
    14    28    29    1
    15    29    30    2
    16    29    31   am
    17    31    33    1
    18    33    34   ar
    19    34    35   ar
    20    35    36   ar
    21    36    37   ar
    22    37    38   ar
    23     2     5    1
    24     5     6   ar
    25     6     7   ar
    26     7     8   ar
    27     8    12    1
    28    12    13    1
    29    13    14    1
    30    14    15    1
    31    15    18    1
    32    18    19   ar
    33    19    20   ar
    34    20    21   ar
    35    21    22   ar
    36    22    24    1
    37    24    25    1
    38    24    26    1
    39    24    27    1
    40    22    23   ar
    41    15    16    1
    42    16    17    1
    43     8     9   ar
    44     9    10   ar
    45    10    11    1
    46    48    40   ar
    47    38    33   ar
    48    10     5   ar
    49    48    43   ar
    50    17    12    1
    51    23    18   ar
    52     3     4    1
    53    42    49    1
    54    31    32    1
@<TRIPOS>MOLECULE
*****
 49 54 0 0 0
SMALL
GASTEIGER

@<TRIPOS>ATOM
      1 O         -23.6800   51.4895  -11.5831 O.2     1  UNL1       -0.2701
      2 C         -23.7036   52.1644  -10.5178 C.2     1  UNL1        0.2483
      3 N         -22.7128   53.1814  -10.2910 N.am    1  UNL1       -0.2945
      4 H         -22.8034   53.7862   -9.4453 H       1  UNL1        0.1501
      5 C         -24.6954   51.8288   -9.4744 C.ar    1  UNL1        0.0808
      6 C         -26.0305   52.2278   -9.6486 C.ar    1  UNL1        0.0080
      7 C         -27.0123   51.8393   -8.7351 C.ar    1  UNL1        0.0148
      8 C         -26.6751   51.0592   -7.6197 C.ar    1  UNL1        0.0502
      9 C         -25.3349   50.6898   -7.4233 C.ar    1  UNL1        0.0443
     10 C         -24.3494   51.0750   -8.3372 C.ar    1  UNL1        0.1457
     11 F         -23.0598   50.7335   -8.0891 F       1  UNL1       -0.2040
     12 N         -27.6969   50.6091   -6.7111 N.pl3   1  UNL1       -0.3040
     13 C         -28.4596   49.3911   -7.0309 C.3     1  UNL1        0.1122
     14 C         -29.2802   48.9152   -5.8276 C.3     1  UNL1        0.1122
     15 N         -28.4668   49.0085   -4.6068 N.pl3   1  UNL1       -0.3041
     16 C         -27.7871   50.2731   -4.2800 C.3     1  UNL1        0.1122
     17 C         -27.9109   51.2861   -5.4242 C.3     1  UNL1        0.1122
     18 C         -28.2518   47.8521   -3.7755 C.ar    1  UNL1        0.0479
     19 C         -27.0690   47.1040   -3.8910 C.ar    1  UNL1        0.0145
     20 C         -26.8616   45.9837   -3.0846 C.ar    1  UNL1        0.0012
     21 C         -27.8240   45.6053   -2.1462 C.ar    1  UNL1        0.0039
     22 C         -28.9993   46.3597   -1.9900 C.ar    1  UNL1        0.0726
     23 C         -29.2140   47.4715   -2.8244 C.ar    1  UNL1        0.0184
     24 C         -30.0616   45.9260   -1.0112 C.3     1  UNL1        0.4186
     25 F         -30.5796   44.7086   -1.4119 F       1  UNL1       -0.1659
     26 F         -31.0851   46.8565   -0.9588 F       1  UNL1       -0.1659
     27 F         -29.5324   45.7940    0.2610 F       1  UNL1       -0.1659
     28 C         -21.4019   53.1486  -10.9490 C.3     1  UNL1        0.1535
     29 C         -20.5214   54.2384  -10.3954 C.2     1  UNL1        0.2443
     30 O         -19.8991   54.9878  -11.1964 O.2     1  UNL1       -0.2730
     31 N         -20.3370   54.3835   -8.9764 N.am    1  UNL1       -0.2825
     32 H         -20.5861   53.5766   -8.3614 H       1  UNL1        0.1549
     33 C         -19.7328   55.5325   -8.3581 C.ar    1  UNL1        0.0535
     34 C         -18.8227   55.3508   -7.3076 C.ar    1  UNL1        0.0353
     35 C         -18.2509   56.4642   -6.6874 C.ar    1  UNL1        0.1002
     36 N         -18.5888   57.7176   -7.0903 N.ar    1  UNL1       -0.2422
     37 C         -19.4828   57.9263   -8.0925 C.ar    1  UNL1        0.1002
     38 C         -20.0772   56.8403   -8.7403 C.ar    1  UNL1        0.0353
     39 C         -20.7404   51.7704  -10.7618 C.3     1  UNL1        0.0569
     40 C         -19.2441   51.8623  -10.8699 C.ar    1  UNL1       -0.0017
     41 C         -18.5008   51.8481  -12.0462 C.ar    1  UNL1        0.0681
     42 N         -17.1773   51.8155  -11.7688 N.ar    1  UNL1       -0.3523
     43 C         -17.0781   51.7947  -10.4284 C.ar    1  UNL1        0.0563
     44 C         -15.9112   51.7103   -9.6698 C.ar    1  UNL1        0.0170
     45 C         -16.0389   51.6499   -8.2703 C.ar    1  UNL1        0.0015
     46 C         -17.3155   51.6693   -7.6668 C.ar    1  UNL1        0.0001
     47 C         -18.4762   51.7557   -8.4571 C.ar    1  UNL1        0.0012
     48 C         -18.3183   51.8196   -9.8430 C.ar    1  UNL1        0.0131
     49 H         -16.3950   51.7822  -12.4596 H       1  UNL1        0.1660
@<TRIPOS>BOND
     1     1     2    2
     2     2     3   am
     3     3    28    1
     4    28    39    1
     5    39    40    1
     6    40    41   ar
     7    41    42   ar
     8    42    43   ar
     9    43    44   ar
    10    44    45   ar
    11    45    46   ar
    12    46    47   ar
    13    47    48   ar
    14    28    29    1
    15    29    30    2
    16    29    31   am
    17    31    33    1
    18    33    34   ar
    19    34    35   ar
    20    35    36   ar
    21    36    37   ar
    22    37    38   ar
    23     2     5    1
    24     5     6   ar
    25     6     7   ar
    26     7     8   ar
    27     8    12    1
    28    12    13    1
    29    13    14    1
    30    14    15    1
    31    15    18    1
    32    18    19   ar
    33    19    20   ar
    34    20    21   ar
    35    21    22   ar
    36    22    24    1
    37    24    25    1
    38    24    26    1
    39    24    27    1
    40    22    23   ar
    41    15    16    1
    42    16    17    1
    43     8     9   ar
    44     9    10   ar
    45    10    11    1
    46    48    40   ar
    47    38    33   ar
    48    10     5   ar
    49    48    43   ar
    50    17    12    1
    51    23    18   ar
    52     3     4    1
    53    42    49    1
    54    31    32    1
@<TRIPOS>MOLECULE
*****
 49 54 0 0 0
SMALL
GASTEIGER

@<TRIPOS>ATOM
      1 O         -28.0215   48.7360  -10.1715 O.2     1  UNL1       -0.2701
      2 C         -27.3482   49.1342   -9.1822 C.2     1  UNL1        0.2483
      3 N         -27.8272   48.8987   -7.8471 N.am    1  UNL1       -0.2945
      4 H         -27.2130   49.1574   -7.0439 H       1  UNL1        0.1501
      5 C         -26.1217   49.9252   -9.4170 C.ar    1  UNL1        0.0808
      6 C         -25.8616   50.4138  -10.7075 C.ar    1  UNL1        0.0080
      7 C         -24.7684   51.2499  -10.9431 C.ar    1  UNL1        0.0148
      8 C         -23.9035   51.5991   -9.8959 C.ar    1  UNL1        0.0502
      9 C         -24.1401   51.0823   -8.6121 C.ar    1  UNL1        0.0443
     10 C         -25.2352   50.2468   -8.3721 C.ar    1  UNL1        0.1457
     11 F         -25.4047   49.7344   -7.1271 F       1  UNL1       -0.2040
     12 N         -22.8119   52.5086  -10.1268 N.pl3   1  UNL1       -0.3040
     13 C         -21.9846   52.9445   -8.9898 C.3     1  UNL1        0.1122
     14 C         -20.7166   53.6614   -9.4654 C.3     1  UNL1        0.1122
     15 N         -20.1323   52.9316  -10.5997 N.pl3   1  UNL1       -0.3041
     16 C         -20.9761   52.5876  -11.7562 C.3     1  UNL1        0.1122
     17 C         -22.4496   52.9183  -11.4910 C.3     1  UNL1        0.1122
     18 C         -18.7692   52.4686  -10.5532 C.ar    1  UNL1        0.0479
     19 C         -18.0558   52.2393  -11.7409 C.ar    1  UNL1        0.0145
     20 C         -16.7347   51.7910  -11.6946 C.ar    1  UNL1        0.0012
     21 C         -16.1070   51.5793  -10.4653 C.ar    1  UNL1        0.0039
     22 C         -16.7910   51.8355   -9.2648 C.ar    1  UNL1        0.0726
     23 C         -18.1305   52.2612   -9.3186 C.ar    1  UNL1        0.0184
     24 C         -16.1318   51.5622   -7.9361 C.3     1  UNL1        0.4186
     25 F         -15.0680   52.4290   -7.7692 F       1  UNL1       -0.1659
     26 F         -15.6654   50.2600   -7.8822 F       1  UNL1       -0.1659
     27 F         -17.0282   51.7433   -6.8970 F       1  UNL1       -0.1659
     28 C         -29.2509   48.6942   -7.5579 C.3     1  UNL1        0.1535
     29 C         -29.4425   47.4021   -6.8075 C.2     1  UNL1        0.2443
     30 O         -28.8489   46.3658   -7.2127 O.2     1  UNL1       -0.2730
     31 N         -30.3400   47.3306   -5.6859 N.am    1  UNL1       -0.2825
     32 H         -31.0507   48.0881   -5.5736 H       1  UNL1        0.1549
     33 C         -30.3903   46.2265   -4.7663 C.ar    1  UNL1        0.0535
     34 C         -31.4735   45.3382   -4.8146 C.ar    1  UNL1        0.0353
     35 C         -31.5395   44.2777   -3.9078 C.ar    1  UNL1        0.1002
     36 N         -30.5662   44.1187   -2.9726 N.ar    1  UNL1       -0.2422
     37 C         -29.5139   44.9748   -2.8878 C.ar    1  UNL1        0.1002
     38 C         -29.4088   46.0480   -3.7764 C.ar    1  UNL1        0.0353
     39 C         -29.8110   49.8788   -6.7486 C.3     1  UNL1        0.0569
     40 C         -28.7061   50.7139   -6.1649 C.ar    1  UNL1       -0.0017
     41 C         -28.2105   51.9052   -6.6860 C.ar    1  UNL1        0.0681
     42 N         -27.1329   52.3179   -5.9805 N.ar    1  UNL1       -0.3523
     43 C         -26.9346   51.3912   -5.0272 C.ar    1  UNL1        0.0563
     44 C         -25.9086   51.3574   -4.0835 C.ar    1  UNL1        0.0170
     45 C         -25.8586   50.2602   -3.2047 C.ar    1  UNL1        0.0015
     46 C         -26.8205   49.2299   -3.2910 C.ar    1  UNL1        0.0001
     47 C         -27.8454   49.2904   -4.2529 C.ar    1  UNL1        0.0012
     48 C         -27.8729   50.3939   -5.1080 C.ar    1  UNL1        0.0131
     49 H         -26.5560   53.1691   -6.1621 H       1  UNL1        0.1660
@<TRIPOS>BOND
     1     1     2    2
     2     2     3   am
     3     3    28    1
     4    28    39    1
     5    39    40    1
     6    40    41   ar
     7    41    42   ar
     8    42    43   ar
     9    43    44   ar
    10    44    45   ar
    11    45    46   ar
    12    46    47   ar
    13    47    48   ar
    14    28    29    1
    15    29    30    2
    16    29    31   am
    17    31    33    1
    18    33    34   ar
    19    34    35   ar
    20    35    36   ar
    21    36    37   ar
    22    37    38   ar
    23     2     5    1
    24     5     6   ar
    25     6     7   ar
    26     7     8   ar
    27     8    12    1
    28    12    13    1
    29    13    14    1
    30    14    15    1
    31    15    18    1
    32    18    19   ar
    33    19    20   ar
    34    20    21   ar
    35    21    22   ar
    36    22    24    1
    37    24    25    1
    38    24    26    1
    39    24    27    1
    40    22    23   ar
    41    15    16    1
    42    16    17    1
    43     8     9   ar
    44     9    10   ar
    45    10    11    1
    46    48    40   ar
    47    38    33   ar
    48    10     5   ar
    49    48    43   ar
    50    17    12    1
    51    23    18   ar
    52     3     4    1
    53    42    49    1
    54    31    32    1
@<TRIPOS>MOLECULE
*****
 49 54 0 0 0
SMALL
GASTEIGER

@<TRIPOS>ATOM
      1 O         -22.0882   51.7466  -11.1317 O.2     1  UNL1       -0.2701
      2 C         -22.6230   52.0207  -10.0229 C.2     1  UNL1        0.2483
      3 N         -21.9602   52.9092   -9.1070 N.am    1  UNL1       -0.2945
      4 H         -22.4603   53.1913   -8.2356 H       1  UNL1        0.1501
      5 C         -23.8807   51.3433   -9.6427 C.ar    1  UNL1        0.0808
      6 C         -24.8738   51.1517  -10.6167 C.ar    1  UNL1        0.0080
      7 C         -26.0288   50.4257  -10.3195 C.ar    1  UNL1        0.0148
      8 C         -26.2215   49.8925   -9.0368 C.ar    1  UNL1        0.0502
      9 C         -25.2472   50.1140   -8.0505 C.ar    1  UNL1        0.0443
     10 C         -24.0882   50.8385   -8.3452 C.ar    1  UNL1        0.1457
     11 F         -23.1910   51.0664   -7.3531 F       1  UNL1       -0.2040
     12 N         -27.3839   49.0938   -8.7482 N.pl3   1  UNL1       -0.3040
     13 C         -27.4367   47.7011   -9.2226 C.3     1  UNL1        0.1122
     14 C         -28.5974   46.9363   -8.5777 C.3     1  UNL1        0.1122
     15 N         -28.6662   47.2585   -7.1452 N.pl3   1  UNL1       -0.3041
     16 C         -28.6956   48.6667   -6.7164 C.3     1  UNL1        0.1122
     17 C         -28.4633   49.6156   -7.8981 C.3     1  UNL1        0.1122
     18 C         -28.6119   46.2157   -6.1530 C.ar    1  UNL1        0.0479
     19 C         -29.6038   45.2225   -6.1112 C.ar    1  UNL1        0.0145
     20 C         -29.5499   44.2122   -5.1494 C.ar    1  UNL1        0.0012
     21 C         -28.5009   44.1737   -4.2286 C.ar    1  UNL1        0.0039
     22 C         -27.4794   45.1377   -4.2744 C.ar    1  UNL1        0.0726
     23 C         -27.5543   46.1682   -5.2287 C.ar    1  UNL1        0.0184
     24 C         -26.3713   45.1265   -3.2514 C.3     1  UNL1        0.4186
     25 F         -25.3139   44.3784   -3.7343 F       1  UNL1       -0.1659
     26 F         -26.8113   44.5706   -2.0624 F       1  UNL1       -0.1659
     27 F         -25.9314   46.4126   -2.9901 F       1  UNL1       -0.1659
     28 C         -20.5075   53.1122   -9.1366 C.3     1  UNL1        0.1535
     29 C         -20.1901   54.5773   -8.9872 C.2     1  UNL1        0.2443
     30 O         -20.7898   55.4107   -9.7195 O.2     1  UNL1       -0.2730
     31 N         -19.1715   55.0182   -8.0726 N.am    1  UNL1       -0.2825
     32 H         -18.4787   54.3155   -7.7295 H       1  UNL1        0.1549
     33 C         -18.9820   56.3887   -7.6810 C.ar    1  UNL1        0.0535
     34 C         -19.5018   57.4130   -8.4843 C.ar    1  UNL1        0.0353
     35 C         -19.3001   58.7467   -8.1213 C.ar    1  UNL1        0.1002
     36 N         -18.5886   59.0489   -7.0033 N.ar    1  UNL1       -0.2422
     37 C         -18.0553   58.0785   -6.2151 C.ar    1  UNL1        0.1002
     38 C         -18.2346   56.7318   -6.5414 C.ar    1  UNL1        0.0353
     39 C         -19.8273   52.2943   -8.0229 C.3     1  UNL1        0.0569
     40 C         -18.4067   51.9582   -8.3806 C.ar    1  UNL1       -0.0017
     41 C         -17.3450   51.8164   -7.4924 C.ar    1  UNL1        0.0681
     42 N         -16.1849   51.6427   -8.1659 N.ar    1  UNL1       -0.3523
     43 C         -16.5019   51.6876   -9.4714 C.ar    1  UNL1        0.0563
     44 C         -15.6284   51.6049  -10.5552 C.ar    1  UNL1        0.0170
     45 C         -16.1698   51.7274  -11.8477 C.ar    1  UNL1        0.0015
     46 C         -17.5555   51.9333  -12.0264 C.ar    1  UNL1        0.0001
     47 C         -18.4136   52.0120  -10.9143 C.ar    1  UNL1        0.0012
     48 C         -17.8488   51.8816   -9.6441 C.ar    1  UNL1        0.0131
     49 H         -15.2333   51.5280   -7.7516 H       1  UNL1        0.1660
@<TRIPOS>BOND
     1     1     2    2
     2     2     3   am
     3     3    28    1
     4    28    39    1
     5    39    40    1
     6    40    41   ar
     7    41    42   ar
     8    42    43   ar
     9    43    44   ar
    10    44    45   ar
    11    45    46   ar
    12    46    47   ar
    13    47    48   ar
    14    28    29    1
    15    29    30    2
    16    29    31   am
    17    31    33    1
    18    33    34   ar
    19    34    35   ar
    20    35    36   ar
    21    36    37   ar
    22    37    38   ar
    23     2     5    1
    24     5     6   ar
    25     6     7   ar
    26     7     8   ar
    27     8    12    1
    28    12    13    1
    29    13    14    1
    30    14    15    1
    31    15    18    1
    32    18    19   ar
    33    19    20   ar
    34    20    21   ar
    35    21    22   ar
    36    22    24    1
    37    24    25    1
    38    24    26    1
    39    24    27    1
    40    22    23   ar
    41    15    16    1
    42    16    17    1
    43     8     9   ar
    44     9    10   ar
    45    10    11    1
    46    48    40   ar
    47    38    33   ar
    48    10     5   ar
    49    48    43   ar
    50    17    12    1
    51    23    18   ar
    52     3     4    1
    53    42    49    1
    54    31    32    1
@<TRIPOS>MOLECULE
*****
 49 54 0 0 0
SMALL
GASTEIGER

@<TRIPOS>ATOM
      1 O         -21.9829   51.4840  -11.1461 O.2     1  UNL1       -0.2701
      2 C         -22.6161   51.9596  -10.1645 C.2     1  UNL1        0.2483
      3 N         -22.0215   52.9921   -9.3596 N.am    1  UNL1       -0.2945
      4 H         -22.5967   53.4323   -8.6082 H       1  UNL1        0.1501
      5 C         -23.9238   51.3751   -9.7994 C.ar    1  UNL1        0.0808
      6 C         -24.1868   51.0793   -8.4521 C.ar    1  UNL1        0.0080
      7 C         -25.4465   50.6239   -8.0581 C.ar    1  UNL1        0.0148
      8 C         -26.4625   50.4379   -9.0066 C.ar    1  UNL1        0.0502
      9 C         -26.1912   50.6976  -10.3594 C.ar    1  UNL1        0.0443
     10 C         -24.9317   51.1562  -10.7573 C.ar    1  UNL1        0.1457
     11 F         -24.6970   51.3550  -12.0789 F       1  UNL1       -0.2040
     12 N         -27.7780   50.0257   -8.5921 N.pl3   1  UNL1       -0.3040
     13 C         -27.9747   48.6638   -8.0690 C.3     1  UNL1        0.1122
     14 C         -29.3524   48.5110   -7.4159 C.3     1  UNL1        0.1122
     15 N         -29.6435   49.6944   -6.5939 N.pl3   1  UNL1       -0.3041
     16 C         -29.5148   51.0383   -7.1815 C.3     1  UNL1        0.1122
     17 C         -28.8972   50.9784   -8.5835 C.3     1  UNL1        0.1122
     18 C         -29.9634   49.5589   -5.1961 C.ar    1  UNL1        0.0479
     19 C         -31.1133   50.1680   -4.6680 C.ar    1  UNL1        0.0145
     20 C         -31.4225   50.0356   -3.3133 C.ar    1  UNL1        0.0012
     21 C         -30.5969   49.2845   -2.4741 C.ar    1  UNL1        0.0039
     22 C         -29.4602   48.6380   -2.9887 C.ar    1  UNL1        0.0726
     23 C         -29.1399   48.7978   -4.3489 C.ar    1  UNL1        0.0184
     24 C         -28.5410   47.8660   -2.0756 C.3     1  UNL1        0.4186
     25 F         -29.1587   47.6895   -0.8516 F       1  UNL1       -0.1659
     26 F         -27.3533   48.5515   -1.8869 F       1  UNL1       -0.1659
     27 F         -28.2431   46.6258   -2.6133 F       1  UNL1       -0.1659
     28 C         -20.5678   53.1715   -9.2769 C.3     1  UNL1        0.1535
     29 C         -20.2408   54.6262   -9.0614 C.2     1  UNL1        0.2443
     30 O         -20.8560   55.4975   -9.7345 O.2     1  UNL1       -0.2730
     31 N         -19.1972   55.0173   -8.1524 N.am    1  UNL1       -0.2825
     32 H         -18.4985   54.2962   -7.8637 H       1  UNL1        0.1549
     33 C         -18.9922   56.3655   -7.6966 C.ar    1  UNL1        0.0535
     34 C         -19.5207   57.4313   -8.4378 C.ar    1  UNL1        0.0353
     35 C         -19.3042   58.7442   -8.0126 C.ar    1  UNL1        0.1002
     36 N         -18.5703   58.9865   -6.8946 N.ar    1  UNL1       -0.2422
     37 C         -18.0282   57.9752   -6.1660 C.ar    1  UNL1        0.1002
     38 C         -18.2216   56.6474   -6.5556 C.ar    1  UNL1        0.0353
     39 C         -19.9834   52.3110   -8.1412 C.3     1  UNL1        0.0569
     40 C         -18.5445   51.9641   -8.4023 C.ar    1  UNL1       -0.0017
     41 C         -17.5463   51.8144   -7.4444 C.ar    1  UNL1        0.0681
     42 N         -16.3448   51.6318   -8.0382 N.ar    1  UNL1       -0.3523
     43 C         -16.5726   51.6789   -9.3621 C.ar    1  UNL1        0.0563
     44 C         -15.6286   51.5894  -10.3846 C.ar    1  UNL1        0.0170
     45 C         -16.0806   51.7158  -11.7106 C.ar    1  UNL1        0.0015
     46 C         -17.4495   51.9320  -11.9823 C.ar    1  UNL1        0.0001
     47 C         -18.3800   52.0175  -10.9307 C.ar    1  UNL1        0.0012
     48 C         -17.9032   51.8830   -9.6253 C.ar    1  UNL1        0.0131
     49 H         -15.4241   51.5100   -7.5607 H       1  UNL1        0.1660
@<TRIPOS>BOND
     1     1     2    2
     2     2     3   am
     3     3    28    1
     4    28    39    1
     5    39    40    1
     6    40    41   ar
     7    41    42   ar
     8    42    43   ar
     9    43    44   ar
    10    44    45   ar
    11    45    46   ar
    12    46    47   ar
    13    47    48   ar
    14    28    29    1
    15    29    30    2
    16    29    31   am
    17    31    33    1
    18    33    34   ar
    19    34    35   ar
    20    35    36   ar
    21    36    37   ar
    22    37    38   ar
    23     2     5    1
    24     5     6   ar
    25     6     7   ar
    26     7     8   ar
    27     8    12    1
    28    12    13    1
    29    13    14    1
    30    14    15    1
    31    15    18    1
    32    18    19   ar
    33    19    20   ar
    34    20    21   ar
    35    21    22   ar
    36    22    24    1
    37    24    25    1
    38    24    26    1
    39    24    27    1
    40    22    23   ar
    41    15    16    1
    42    16    17    1
    43     8     9   ar
    44     9    10   ar
    45    10    11    1
    46    48    40   ar
    47    38    33   ar
    48    10     5   ar
    49    48    43   ar
    50    17    12    1
    51    23    18   ar
    52     3     4    1
    53    42    49    1
    54    31    32    1
@<TRIPOS>MOLECULE
*****
 49 54 0 0 0
SMALL
GASTEIGER

@<TRIPOS>ATOM
      1 O         -23.4169   50.9033  -11.3911 O.2     1  UNL1       -0.2701
      2 C         -23.9112   51.7812  -10.6323 C.2     1  UNL1        0.2483
      3 N         -23.2447   53.0446  -10.4676 N.am    1  UNL1       -0.2945
      4 H         -23.7156   53.7875   -9.9060 H       1  UNL1        0.1501
      5 C         -25.1208   51.4563   -9.8472 C.ar    1  UNL1        0.0808
      6 C         -25.0189   51.3471   -8.4509 C.ar    1  UNL1        0.0080
      7 C         -26.1582   51.1441   -7.6698 C.ar    1  UNL1        0.0148
      8 C         -27.4197   51.0282   -8.2714 C.ar    1  UNL1        0.0502
      9 C         -27.5198   51.1001   -9.6699 C.ar    1  UNL1        0.0443
     10 C         -26.3813   51.3058  -10.4551 C.ar    1  UNL1        0.1457
     11 F         -26.5148   51.3271  -11.8053 F       1  UNL1       -0.2040
     12 N         -28.6006   50.8788   -7.4618 N.pl3   1  UNL1       -0.3040
     13 C         -29.5466   49.7913   -7.7615 C.3     1  UNL1        0.1122
     14 C         -30.5678   49.6140   -6.6329 C.3     1  UNL1        0.1122
     15 N         -29.8870   49.6975   -5.3329 N.pl3   1  UNL1       -0.3041
     16 C         -29.0135   50.8463   -5.0411 C.3     1  UNL1        0.1122
     17 C         -28.8153   51.7267   -6.2806 C.3     1  UNL1        0.1122
     18 C         -29.9908   48.6245   -4.3776 C.ar    1  UNL1        0.0479
     19 C         -30.0115   47.2883   -4.8093 C.ar    1  UNL1        0.0145
     20 C         -30.1117   46.2493   -3.8826 C.ar    1  UNL1        0.0012
     21 C         -30.1788   46.5301   -2.5164 C.ar    1  UNL1        0.0039
     22 C         -30.1248   47.8583   -2.0605 C.ar    1  UNL1        0.0726
     23 C         -30.0510   48.9015   -3.0011 C.ar    1  UNL1        0.0184
     24 C         -30.2453   48.1670   -0.5892 C.3     1  UNL1        0.4186
     25 F         -29.0263   48.6171   -0.1175 F       1  UNL1       -0.1659
     26 F         -30.6124   47.0349    0.1178 F       1  UNL1       -0.1659
     27 F         -31.2020   49.1427   -0.3691 F       1  UNL1       -0.1659
     28 C         -21.8047   53.1988  -10.7017 C.3     1  UNL1        0.1535
     29 C         -21.3162   54.4787  -10.0751 C.2     1  UNL1        0.2443
     30 O         -22.0101   55.5244  -10.2000 O.2     1  UNL1       -0.2730
     31 N         -20.0465   54.5285   -9.4014 N.am    1  UNL1       -0.2825
     32 H         -19.3583   53.7651   -9.5887 H       1  UNL1        0.1549
     33 C         -19.6228   55.6189   -8.5653 C.ar    1  UNL1        0.0535
     34 C         -19.9893   56.9290   -8.9032 C.ar    1  UNL1        0.0353
     35 C         -19.5603   57.9942   -8.1079 C.ar    1  UNL1        0.1002
     36 N         -18.7774   57.7619   -7.0214 N.ar    1  UNL1       -0.2422
     37 C         -18.3892   56.5050   -6.6795 C.ar    1  UNL1        0.1002
     38 C         -18.7971   55.4111   -7.4472 C.ar    1  UNL1        0.0353
     39 C         -21.0352   51.9906  -10.1358 C.3     1  UNL1        0.0569
     40 C         -19.5938   52.0118  -10.5609 C.ar    1  UNL1       -0.0017
     41 C         -19.1201   51.9800  -11.8689 C.ar    1  UNL1        0.0681
     42 N         -17.7713   51.8792  -11.8811 N.ar    1  UNL1       -0.3523
     43 C         -17.3897   51.8328  -10.5930 C.ar    1  UNL1        0.0563
     44 C         -16.0935   51.6803  -10.1019 C.ar    1  UNL1        0.0170
     45 C         -15.9227   51.6044   -8.7077 C.ar    1  UNL1        0.0015
     46 C         -17.0386   51.6760   -7.8452 C.ar    1  UNL1        0.0001
     47 C         -18.3353   51.8306   -8.3686 C.ar    1  UNL1        0.0012
     48 C         -18.4736   51.9084   -9.7559 C.ar    1  UNL1        0.0131
     49 H         -17.1571   51.8189  -12.7234 H       1  UNL1        0.1660
@<TRIPOS>BOND
     1     1     2    2
     2     2     3   am
     3     3    28    1
     4    28    39    1
     5    39    40    1
     6    40    41   ar
     7    41    42   ar
     8    42    43   ar
     9    43    44   ar
    10    44    45   ar
    11    45    46   ar
    12    46    47   ar
    13    47    48   ar
    14    28    29    1
    15    29    30    2
    16    29    31   am
    17    31    33    1
    18    33    34   ar
    19    34    35   ar
    20    35    36   ar
    21    36    37   ar
    22    37    38   ar
    23     2     5    1
    24     5     6   ar
    25     6     7   ar
    26     7     8   ar
    27     8    12    1
    28    12    13    1
    29    13    14    1
    30    14    15    1
    31    15    18    1
    32    18    19   ar
    33    19    20   ar
    34    20    21   ar
    35    21    22   ar
    36    22    24    1
    37    24    25    1
    38    24    26    1
    39    24    27    1
    40    22    23   ar
    41    15    16    1
    42    16    17    1
    43     8     9   ar
    44     9    10   ar
    45    10    11    1
    46    48    40   ar
    47    38    33   ar
    48    10     5   ar
    49    48    43   ar
    50    17    12    1
    51    23    18   ar
    52     3     4    1
    53    42    49    1
    54    31    32    1
@<TRIPOS>MOLECULE
*****
 49 54 0 0 0
SMALL
GASTEIGER

@<TRIPOS>ATOM
      1 O         -22.1729   52.9596  -10.3360 O.2     1  UNL1       -0.2701
      2 C         -22.4928   52.3552   -9.2762 C.2     1  UNL1        0.2483
      3 N         -21.6563   52.4583   -8.1113 N.am    1  UNL1       -0.2945
      4 H         -21.9848   52.0234   -7.2212 H       1  UNL1        0.1501
      5 C         -23.6760   51.4691   -9.2815 C.ar    1  UNL1        0.0808
      6 C         -24.0641   50.8419   -8.0866 C.ar    1  UNL1        0.0080
      7 C         -25.2341   50.0821   -8.0312 C.ar    1  UNL1        0.0148
      8 C         -26.0296   49.9197   -9.1746 C.ar    1  UNL1        0.0502
      9 C         -25.6247   50.5152  -10.3798 C.ar    1  UNL1        0.0443
     10 C         -24.4549   51.2788  -10.4384 C.ar    1  UNL1        0.1457
     11 F         -24.0762   51.8023  -11.6316 F       1  UNL1       -0.2040
     12 N         -27.2663   49.1864   -9.1022 N.pl3   1  UNL1       -0.3040
     13 C         -28.5372   49.8926   -9.3332 C.3     1  UNL1        0.1122
     14 C         -29.6988   48.9082   -9.5045 C.3     1  UNL1        0.1122
     15 N         -29.2781   47.7921  -10.3635 N.pl3   1  UNL1       -0.3041
     16 C         -28.0419   47.0570  -10.0485 C.3     1  UNL1        0.1122
     17 C         -27.2668   47.7294   -8.9092 C.3     1  UNL1        0.1122
     18 C         -30.0104   47.4685  -11.5609 C.ar    1  UNL1        0.0479
     19 C         -30.6708   46.2348  -11.6783 C.ar    1  UNL1        0.0145
     20 C         -31.3806   45.9224  -12.8390 C.ar    1  UNL1        0.0012
     21 C         -31.4505   46.8408  -13.8885 C.ar    1  UNL1        0.0039
     22 C         -30.8260   48.0949  -13.7782 C.ar    1  UNL1        0.0726
     23 C         -30.0901   48.3923  -12.6170 C.ar    1  UNL1        0.0184
     24 C         -30.8597   49.0695  -14.9287 C.3     1  UNL1        0.4186
     25 F         -31.4547   50.2454  -14.5116 F       1  UNL1       -0.1659
     26 F         -31.5833   48.5486  -15.9876 F       1  UNL1       -0.1659
     27 F         -29.5790   49.3460  -15.3753 F       1  UNL1       -0.1659
     28 C         -20.2287   52.7822   -8.2070 C.3     1  UNL1        0.1535
     29 C         -19.9515   54.0924   -7.5171 C.2     1  UNL1        0.2443
     30 O         -20.0419   54.1530   -6.2607 O.2     1  UNL1       -0.2730
     31 N         -19.6538   55.2751   -8.2795 N.am    1  UNL1       -0.2825
     32 H         -19.9014   55.2832   -9.2945 H       1  UNL1        0.1549
     33 C         -19.1318   56.4878   -7.7100 C.ar    1  UNL1        0.0535
     34 C         -19.5089   57.7230   -8.2550 C.ar    1  UNL1        0.0353
     35 C         -18.9861   58.9032   -7.7210 C.ar    1  UNL1        0.1002
     36 N         -18.1032   58.8522   -6.6890 N.ar    1  UNL1       -0.2422
     37 C         -17.7032   57.6692   -6.1523 C.ar    1  UNL1        0.1002
     38 C         -18.2028   56.4654   -6.6558 C.ar    1  UNL1        0.0353
     39 C         -19.3788   51.6553   -7.5908 C.3     1  UNL1        0.0569
     40 C         -18.0365   51.5539   -8.2594 C.ar    1  UNL1       -0.0017
     41 C         -16.8028   51.4692   -7.6215 C.ar    1  UNL1        0.0681
     42 N         -15.7982   51.5244   -8.5255 N.ar    1  UNL1       -0.3523
     43 C         -16.3856   51.6573   -9.7273 C.ar    1  UNL1        0.0563
     44 C         -15.7559   51.8046  -10.9627 C.ar    1  UNL1        0.0170
     45 C         -16.5672   51.9821  -12.0980 C.ar    1  UNL1        0.0015
     46 C         -17.9737   52.0140  -11.9744 C.ar    1  UNL1        0.0001
     47 C         -18.5821   51.8621  -10.7150 C.ar    1  UNL1        0.0012
     48 C         -17.7517   51.6822   -9.6070 C.ar    1  UNL1        0.0131
     49 H         -14.7741   51.4993   -8.3235 H       1  UNL1        0.1660
@<TRIPOS>BOND
     1     1     2    2
     2     2     3   am
     3     3    28    1
     4    28    39    1
     5    39    40    1
     6    40    41   ar
     7    41    42   ar
     8    42    43   ar
     9    43    44   ar
    10    44    45   ar
    11    45    46   ar
    12    46    47   ar
    13    47    48   ar
    14    28    29    1
    15    29    30    2
    16    29    31   am
    17    31    33    1
    18    33    34   ar
    19    34    35   ar
    20    35    36   ar
    21    36    37   ar
    22    37    38   ar
    23     2     5    1
    24     5     6   ar
    25     6     7   ar
    26     7     8   ar
    27     8    12    1
    28    12    13    1
    29    13    14    1
    30    14    15    1
    31    15    18    1
    32    18    19   ar
    33    19    20   ar
    34    20    21   ar
    35    21    22   ar
    36    22    24    1
    37    24    25    1
    38    24    26    1
    39    24    27    1
    40    22    23   ar
    41    15    16    1
    42    16    17    1
    43     8     9   ar
    44     9    10   ar
    45    10    11    1
    46    48    40   ar
    47    38    33   ar
    48    10     5   ar
    49    48    43   ar
    50    17    12    1
    51    23    18   ar
    52     3     4    1
    53    42    49    1
    54    31    32    1
