@<TRIPOS>MOLECULE
*****
 41 45 0 0 0
SMALL
GASTEIGER

@<TRIPOS>ATOM
      1 C         -28.8899   49.3282   -9.3146 C.ar    1  UNL1        0.0656
      2 C         -30.2235   49.6357   -9.7041 C.ar    1  UNL1        0.0222
      3 C         -30.4806   50.8208  -10.4430 C.ar    1  UNL1        0.0010
      4 C         -29.4371   51.6960  -10.7907 C.ar    1  UNL1        0.0184
      5 C         -28.1503   51.3575  -10.3879 C.ar    1  UNL1        0.0768
      6 N         -27.0103   52.0228  -10.6113 N.ar    1  UNL1       -0.3373
      7 C         -26.0580   51.2521  -10.0208 C.ar    1  UNL1        0.1406
      8 N         -26.5653   50.1317   -9.4383 N.ar    1  UNL1       -0.2258
      9 C         -27.8843   50.2260   -9.6821 C.ar    1  UNL1        0.1114
     10 H         -26.9060   52.9270  -11.1211 H       1  UNL1        0.1674
     11 N         -29.1438   46.0680   -6.9821 N.3     1  UNL1       -0.2655
     12 C         -27.9799   46.8661   -6.5560 C.3     1  UNL1        0.0941
     13 C         -28.0638   48.2435   -7.2137 C.3     1  UNL1        0.1082
     14 N         -28.5689   48.1339   -8.5867 N.pl3   1  UNL1       -0.3036
     15 C         -28.5162   46.8508   -9.2959 C.3     1  UNL1        0.1082
     16 C         -29.0208   45.6904   -8.4083 C.3     1  UNL1        0.0941
     17 C         -29.3105   44.8652   -6.1423 C.3     1  UNL1        0.1154
     18 N         -27.8622   45.2060   -2.6653 N.am    1  UNL1       -0.0442
     19 C         -28.0029   44.9018   -3.9893 C.2     1  UNL1        0.2969
     20 C         -29.1798   45.2167   -4.6775 C.2     1  UNL1        0.1684
     21 C         -30.2029   45.8627   -3.9679 C.2     1  UNL1        0.4261
     22 O         -31.2825   46.1765   -4.5387 O.2     1  UNL1       -0.2139
     23 N         -30.0335   46.1519   -2.6510 N.am    1  UNL1       -0.0486
     24 C         -28.8854   45.8269   -1.9971 C.2     1  UNL1        0.6659
     25 O         -28.7761   46.1021   -0.7702 O.2     1  UNL1       -0.1527
     26 H         -30.8035   46.6293   -2.1283 H       1  UNL1        0.4575
     27 C         -25.4029   45.1981   -2.7820 C.3     1  UNL1        0.0920
     28 C         -26.6305   44.8075   -1.9649 C.3     1  UNL1        0.3234
     29 C         -24.6092   51.5782   -9.9972 C.ar    1  UNL1        0.0339
     30 C         -23.9823   52.0590  -11.1571 C.ar    1  UNL1        0.0027
     31 C         -22.6206   52.3725  -11.1590 C.ar    1  UNL1       -0.0042
     32 C         -21.8359   52.2161   -9.9938 C.ar    1  UNL1       -0.0228
     33 C         -22.4785   51.7348   -8.8329 C.ar    1  UNL1       -0.0042
     34 C         -23.8399   51.4218   -8.8336 C.ar    1  UNL1        0.0027
     35 C         -20.3301   52.5497   -9.9494 C.3     1  UNL1        0.0189
     36 C         -20.1007   53.9703  -10.5099 C.3     1  UNL1        0.0044
     37 C         -19.7411   52.5089   -8.5186 C.3     1  UNL1        0.0044
     38 C         -19.5509   51.5284  -10.8063 C.3     1  UNL1        0.0044
     39 C         -31.3865   48.7419   -9.3397 C.3     1  UNL1        0.1700
     40 O         -31.3897   48.4573   -7.9539 O.3     1  UNL1       -0.3463
     41 C         -31.5829   49.6437   -7.2149 C.3     1  UNL1        0.1746
@<TRIPOS>BOND
     1    27    28    1
     2    28    18    1
     3    18    19    1
     4    19    20    2
     5    20    17    1
     6    17    11    1
     7    11    12    1
     8    12    13    1
     9    13    14    1
    10    14     1    1
    11     1     2   ar
    12     2    39    1
    13    39    40    1
    14    40    41    1
    15     2     3   ar
    16     3     4   ar
    17     4     5   ar
    18     5     6   ar
    19     6     7   ar
    20     7    29    1
    21    29    30   ar
    22    30    31   ar
    23    31    32   ar
    24    32    35    1
    25    35    36    1
    26    35    37    1
    27    35    38    1
    28    32    33   ar
    29    33    34   ar
    30     7     8   ar
    31     8     9   ar
    32    14    15    1
    33    15    16    1
    34    20    21    1
    35    21    22    2
    36    21    23    1
    37    23    24    1
    38    24    25    2
    39    24    18    1
    40    16    11    1
    41     9     1   ar
    42     9     5   ar
    43    34    29   ar
    44     6    10    1
    45    23    26    1
@<TRIPOS>MOLECULE
*****
 41 45 0 0 0
SMALL
GASTEIGER

@<TRIPOS>ATOM
      1 C         -28.6518   49.3523   -8.7046 C.ar    1  UNL1        0.0656
      2 C         -30.0124   49.6308   -9.0144 C.ar    1  UNL1        0.0222
      3 C         -30.3295   50.7526   -9.8254 C.ar    1  UNL1        0.0010
      4 C         -29.3186   51.5936  -10.3221 C.ar    1  UNL1        0.0184
      5 C         -28.0036   51.2853   -9.9931 C.ar    1  UNL1        0.0768
      6 N         -26.8863   51.9269  -10.3567 N.ar    1  UNL1       -0.3373
      7 C         -25.8889   51.2041   -9.7803 C.ar    1  UNL1        0.1406
      8 N         -26.3463   50.1363   -9.0713 N.ar    1  UNL1       -0.2258
      9 C         -27.6804   50.2142   -9.2201 C.ar    1  UNL1        0.1114
     10 H         -26.8245   52.7863  -10.9449 H       1  UNL1        0.1674
     11 N         -28.7019   46.3188   -6.0721 N.3     1  UNL1       -0.2655
     12 C         -27.4887   47.1246   -5.8437 C.3     1  UNL1        0.0941
     13 C         -27.6229   48.4397   -6.6114 C.3     1  UNL1        0.1082
     14 N         -28.2719   48.2202   -7.9087 N.pl3   1  UNL1       -0.3036
     15 C         -28.3119   46.8783   -8.5001 C.3     1  UNL1        0.1082
     16 C         -28.7356   45.8133   -7.4632 C.3     1  UNL1        0.0941
     17 C         -28.7951   45.1997   -5.1138 C.3     1  UNL1        0.1154
     18 N         -30.1733   47.1483   -2.1801 N.am    1  UNL1       -0.0442
     19 C         -29.9843   46.6620   -3.4422 C.2     1  UNL1        0.2969
     20 C         -28.9852   45.7186   -3.7064 C.2     1  UNL1        0.1684
     21 C         -28.1940   45.2819   -2.6337 C.2     1  UNL1        0.4261
     22 O         -27.2835   44.4279   -2.8118 O.2     1  UNL1       -0.2139
     23 N         -28.4058   45.7845   -1.3890 N.am    1  UNL1       -0.0486
     24 C         -29.3753   46.7101   -1.1552 C.2     1  UNL1        0.6659
     25 O         -29.5285   47.1601    0.0139 O.2     1  UNL1       -0.1527
     26 H         -27.8079   45.4570   -0.5958 H       1  UNL1        0.4575
     27 C         -30.8940   49.4229   -2.7872 C.3     1  UNL1        0.0920
     28 C         -31.1980   48.1808   -1.9554 C.3     1  UNL1        0.3234
     29 C         -24.4438   51.5269   -9.8945 C.ar    1  UNL1        0.0339
     30 C         -23.6395   51.5473   -8.7446 C.ar    1  UNL1        0.0027
     31 C         -22.2775   51.8483   -8.8272 C.ar    1  UNL1       -0.0042
     32 C         -21.6702   52.1393  -10.0701 C.ar    1  UNL1       -0.0228
     33 C         -22.4889   52.1125  -11.2196 C.ar    1  UNL1       -0.0042
     34 C         -23.8504   51.8116  -11.1343 C.ar    1  UNL1        0.0027
     35 C         -20.1710   52.4765  -10.2091 C.3     1  UNL1        0.0189
     36 C         -20.0061   53.9879  -10.4795 C.3     1  UNL1        0.0044
     37 C         -19.3516   52.1343   -8.9413 C.3     1  UNL1        0.0044
     38 C         -19.5703   51.6765  -11.3854 C.3     1  UNL1        0.0044
     39 C         -31.1410   48.7730   -8.4903 C.3     1  UNL1        0.1700
     40 O         -31.1144   48.7119   -7.0772 O.3     1  UNL1       -0.3463
     41 C         -31.5813   49.9255   -6.5295 C.3     1  UNL1        0.1746
@<TRIPOS>BOND
     1    27    28    1
     2    28    18    1
     3    18    19    1
     4    19    20    2
     5    20    17    1
     6    17    11    1
     7    11    12    1
     8    12    13    1
     9    13    14    1
    10    14     1    1
    11     1     2   ar
    12     2    39    1
    13    39    40    1
    14    40    41    1
    15     2     3   ar
    16     3     4   ar
    17     4     5   ar
    18     5     6   ar
    19     6     7   ar
    20     7    29    1
    21    29    30   ar
    22    30    31   ar
    23    31    32   ar
    24    32    35    1
    25    35    36    1
    26    35    37    1
    27    35    38    1
    28    32    33   ar
    29    33    34   ar
    30     7     8   ar
    31     8     9   ar
    32    14    15    1
    33    15    16    1
    34    20    21    1
    35    21    22    2
    36    21    23    1
    37    23    24    1
    38    24    25    2
    39    24    18    1
    40    16    11    1
    41     9     1   ar
    42     9     5   ar
    43    34    29   ar
    44     6    10    1
    45    23    26    1
@<TRIPOS>MOLECULE
*****
 41 45 0 0 0
SMALL
GASTEIGER

@<TRIPOS>ATOM
      1 C         -28.9700   50.5662   -8.5957 C.ar    1  UNL1        0.0656
      2 C         -30.2062   50.4144   -9.2837 C.ar    1  UNL1        0.0222
      3 C         -30.2620   50.6533  -10.6825 C.ar    1  UNL1        0.0010
      4 C         -29.1145   51.0419  -11.3952 C.ar    1  UNL1        0.0184
      5 C         -27.9288   51.1802  -10.6828 C.ar    1  UNL1        0.0768
      6 N         -26.7202   51.5243  -11.1443 N.ar    1  UNL1       -0.3373
      7 C         -25.9249   51.4922  -10.0416 C.ar    1  UNL1        0.1406
      8 N         -26.5960   51.1405   -8.9111 N.ar    1  UNL1       -0.2258
      9 C         -27.8553   50.9534   -9.3440 C.ar    1  UNL1        0.1114
     10 H         -26.4740   51.7625  -12.1297 H       1  UNL1        0.1674
     11 N         -29.7579   49.4952   -4.8054 N.3     1  UNL1       -0.2655
     12 C         -29.1839   50.8530   -4.8046 C.3     1  UNL1        0.0941
     13 C         -29.1819   51.3844   -6.2380 C.3     1  UNL1        0.1082
     14 N         -28.8502   50.3164   -7.1876 N.pl3   1  UNL1       -0.3036
     15 C         -28.1740   49.0987   -6.7274 C.3     1  UNL1        0.1082
     16 C         -28.8264   48.5377   -5.4434 C.3     1  UNL1        0.0941
     17 C         -30.0979   49.0519   -3.4388 C.3     1  UNL1        0.1154
     18 N         -29.1869   45.3824   -3.3520 N.am    1  UNL1       -0.0442
     19 C         -29.8201   46.5565   -3.6447 C.2     1  UNL1        0.2969
     20 C         -29.3761   47.7670   -3.1010 C.2     1  UNL1        0.1684
     21 C         -28.2563   47.7364   -2.2570 C.2     1  UNL1        0.4261
     22 O         -27.8080   48.7977   -1.7443 O.2     1  UNL1       -0.2139
     23 N         -27.6476   46.5524   -1.9841 N.am    1  UNL1       -0.0486
     24 C         -28.1021   45.3845   -2.5139 C.2     1  UNL1        0.6659
     25 O         -27.5148   44.3060   -2.2229 O.2     1  UNL1       -0.1527
     26 H         -26.8162   46.5381   -1.3497 H       1  UNL1        0.4575
     27 C         -30.0298   44.2795   -5.3855 C.3     1  UNL1        0.0920
     28 C         -29.7196   44.1244   -3.8999 C.3     1  UNL1        0.3234
     29 C         -24.4735   51.8068  -10.0433 C.ar    1  UNL1        0.0339
     30 C         -23.8891   52.4028  -11.1715 C.ar    1  UNL1        0.0027
     31 C         -22.5258   52.7079  -11.1963 C.ar    1  UNL1       -0.0042
     32 C         -21.6965   52.4269  -10.0867 C.ar    1  UNL1       -0.0228
     33 C         -22.2965   51.8304   -8.9569 C.ar    1  UNL1       -0.0042
     34 C         -23.6596   51.5260   -8.9346 C.ar    1  UNL1        0.0027
     35 C         -20.1871   52.7466  -10.0693 C.3     1  UNL1        0.0189
     36 C         -19.4316   51.7114  -10.9309 C.3     1  UNL1        0.0044
     37 C         -19.8576   54.1520  -10.6276 C.3     1  UNL1        0.0044
     38 C         -19.6644   52.6846   -8.6176 C.3     1  UNL1        0.0044
     39 C         -31.4754   50.0192   -8.5645 C.3     1  UNL1        0.1700
     40 O         -31.3364   48.7497   -7.9559 O.3     1  UNL1       -0.3463
     41 C         -31.5794   47.7293   -8.8996 C.3     1  UNL1        0.1746
@<TRIPOS>BOND
     1    27    28    1
     2    28    18    1
     3    18    19    1
     4    19    20    2
     5    20    17    1
     6    17    11    1
     7    11    12    1
     8    12    13    1
     9    13    14    1
    10    14     1    1
    11     1     2   ar
    12     2    39    1
    13    39    40    1
    14    40    41    1
    15     2     3   ar
    16     3     4   ar
    17     4     5   ar
    18     5     6   ar
    19     6     7   ar
    20     7    29    1
    21    29    30   ar
    22    30    31   ar
    23    31    32   ar
    24    32    35    1
    25    35    36    1
    26    35    37    1
    27    35    38    1
    28    32    33   ar
    29    33    34   ar
    30     7     8   ar
    31     8     9   ar
    32    14    15    1
    33    15    16    1
    34    20    21    1
    35    21    22    2
    36    21    23    1
    37    23    24    1
    38    24    25    2
    39    24    18    1
    40    16    11    1
    41     9     1   ar
    42     9     5   ar
    43    34    29   ar
    44     6    10    1
    45    23    26    1
@<TRIPOS>MOLECULE
*****
 41 45 0 0 0
SMALL
GASTEIGER

@<TRIPOS>ATOM
      1 C         -29.0205   47.3880   -4.9192 C.ar    1  UNL1        0.0656
      2 C         -28.9880   46.4028   -5.9453 C.ar    1  UNL1        0.0222
      3 C         -29.3082   45.0553   -5.6315 C.ar    1  UNL1        0.0010
      4 C         -29.6520   44.6810   -4.3209 C.ar    1  UNL1        0.0184
      5 C         -29.6692   45.6754   -3.3497 C.ar    1  UNL1        0.0768
      6 N         -29.9746   45.5604   -2.0514 N.ar    1  UNL1       -0.3373
      7 C         -29.8499   46.8262   -1.5701 C.ar    1  UNL1        0.1406
      8 N         -29.4776   47.7240   -2.5228 N.ar    1  UNL1       -0.2258
      9 C         -29.3681   46.9713   -3.6317 C.ar    1  UNL1        0.1114
     10 H         -30.2397   44.6855   -1.5487 H       1  UNL1        0.1674
     11 N         -27.8884   50.7972   -6.7164 N.3     1  UNL1       -0.2655
     12 C         -27.2317   50.7151   -5.3992 C.3     1  UNL1        0.0941
     13 C         -27.3991   49.2959   -4.8564 C.3     1  UNL1        0.1082
     14 N         -28.7283   48.7679   -5.1835 N.pl3   1  UNL1       -0.3036
     15 C         -29.8203   49.6792   -5.5425 C.3     1  UNL1        0.1082
     16 C         -29.3603   50.7406   -6.5676 C.3     1  UNL1        0.0941
     17 C         -27.4897   52.0188   -7.4434 C.3     1  UNL1        0.1154
     18 N         -24.6890   51.4209   -9.9135 N.am    1  UNL1       -0.0442
     19 C         -25.3671   51.7326   -8.7697 C.2     1  UNL1        0.2969
     20 C         -26.7639   51.6644   -8.7216 C.2     1  UNL1        0.1684
     21 C         -27.4418   51.2561   -9.8796 C.2     1  UNL1        0.4261
     22 O         -28.6998   51.1698   -9.8918 O.2     1  UNL1       -0.2139
     23 N         -26.7394   50.9527  -11.0026 N.am    1  UNL1       -0.0486
     24 C         -25.3816   51.0365  -11.0322 C.2     1  UNL1        0.6659
     25 O         -24.7702   50.7585  -12.1007 O.2     1  UNL1       -0.1527
     26 H         -27.2533   50.6539  -11.8632 H       1  UNL1        0.4575
     27 C         -22.8291   52.9616  -10.3921 C.3     1  UNL1        0.0920
     28 C         -23.2238   51.5594   -9.9388 C.3     1  UNL1        0.3234
     29 C         -30.0862   47.2143   -0.1562 C.ar    1  UNL1        0.0339
     30 C         -29.4838   48.3717    0.3607 C.ar    1  UNL1        0.0027
     31 C         -29.6914   48.7568    1.6877 C.ar    1  UNL1       -0.0042
     32 C         -30.5143   47.9937    2.5471 C.ar    1  UNL1       -0.0228
     33 C         -31.1170   46.8337    2.0147 C.ar    1  UNL1       -0.0042
     34 C         -30.9077   46.4506    0.6878 C.ar    1  UNL1        0.0027
     35 C         -30.7722   48.3807    4.0183 C.3     1  UNL1        0.0189
     36 C         -31.5723   49.7005    4.0709 C.3     1  UNL1        0.0044
     37 C         -31.5784   47.3118    4.7949 C.3     1  UNL1        0.0044
     38 C         -29.4229   48.5697    4.7451 C.3     1  UNL1        0.0044
     39 C         -28.6049   46.7447   -7.3669 C.3     1  UNL1        0.1700
     40 O         -27.2786   47.2328   -7.4288 O.3     1  UNL1       -0.3463
     41 C         -26.9070   47.4606   -8.7708 C.3     1  UNL1        0.1746
@<TRIPOS>BOND
     1    27    28    1
     2    28    18    1
     3    18    19    1
     4    19    20    2
     5    20    17    1
     6    17    11    1
     7    11    12    1
     8    12    13    1
     9    13    14    1
    10    14     1    1
    11     1     2   ar
    12     2    39    1
    13    39    40    1
    14    40    41    1
    15     2     3   ar
    16     3     4   ar
    17     4     5   ar
    18     5     6   ar
    19     6     7   ar
    20     7    29    1
    21    29    30   ar
    22    30    31   ar
    23    31    32   ar
    24    32    35    1
    25    35    36    1
    26    35    37    1
    27    35    38    1
    28    32    33   ar
    29    33    34   ar
    30     7     8   ar
    31     8     9   ar
    32    14    15    1
    33    15    16    1
    34    20    21    1
    35    21    22    2
    36    21    23    1
    37    23    24    1
    38    24    25    2
    39    24    18    1
    40    16    11    1
    41     9     1   ar
    42     9     5   ar
    43    34    29   ar
    44     6    10    1
    45    23    26    1
@<TRIPOS>MOLECULE
*****
 41 45 0 0 0
SMALL
GASTEIGER

@<TRIPOS>ATOM
      1 C         -29.0718   49.8559   -8.8817 C.ar    1  UNL1        0.0656
      2 C         -30.3611   50.0205   -9.4606 C.ar    1  UNL1        0.0222
      3 C         -30.5176   50.8667  -10.5903 C.ar    1  UNL1        0.0010
      4 C         -29.4178   51.5469  -11.1411 C.ar    1  UNL1        0.0184
      5 C         -28.1773   51.3587  -10.5426 C.ar    1  UNL1        0.0768
      6 N         -26.9985   51.8861  -10.8954 N.ar    1  UNL1       -0.3373
      7 C         -26.1220   51.3655   -9.9953 C.ar    1  UNL1        0.1406
      8 N         -26.7138   50.5334   -9.0956 N.ar    1  UNL1       -0.2258
      9 C         -28.0075   50.5507   -9.4620 C.ar    1  UNL1        0.1114
     10 H         -26.8223   52.5472  -11.6829 H       1  UNL1        0.1674
     11 N         -27.3535   47.8981   -5.8241 N.3     1  UNL1       -0.2655
     12 C         -28.0777   46.9255   -6.6625 C.3     1  UNL1        0.0941
     13 C         -28.4565   47.6017   -7.9802 C.3     1  UNL1        0.1082
     14 N         -28.8512   48.9964   -7.7538 N.pl3   1  UNL1       -0.3036
     15 C         -29.2550   49.4451   -6.4168 C.3     1  UNL1        0.1082
     16 C         -28.2751   48.9463   -5.3305 C.3     1  UNL1        0.0941
     17 C         -26.6728   47.2355   -4.6939 C.3     1  UNL1        0.1154
     18 N         -29.4317   46.2021   -2.3226 N.am    1  UNL1       -0.0442
     19 C         -28.6039   46.2543   -3.4076 C.2     1  UNL1        0.2969
     20 C         -27.5724   47.1971   -3.4793 C.2     1  UNL1        0.1684
     21 C         -27.4102   48.0766   -2.3988 C.2     1  UNL1        0.4261
     22 O         -26.4931   48.9421   -2.4060 O.2     1  UNL1       -0.2139
     23 N         -28.2500   48.0004   -1.3332 N.am    1  UNL1       -0.0486
     24 C         -29.2544   47.0836   -1.2880 C.2     1  UNL1        0.6659
     25 O         -30.0197   47.0570   -0.2847 O.2     1  UNL1       -0.1527
     26 H         -28.1249   48.6634   -0.5340 H       1  UNL1        0.4575
     27 C         -30.2821   44.1188   -3.3220 C.3     1  UNL1        0.0920
     28 C         -30.5391   45.2324   -2.3115 C.3     1  UNL1        0.3234
     29 C         -24.6666   51.6605   -9.9729 C.ar    1  UNL1        0.0339
     30 C         -23.9118   51.3663   -8.8270 C.ar    1  UNL1        0.0027
     31 C         -22.5412   51.6350   -8.7824 C.ar    1  UNL1       -0.0042
     32 C         -21.8755   52.2090   -9.8894 C.ar    1  UNL1       -0.0228
     33 C         -22.6449   52.4973  -11.0371 C.ar    1  UNL1       -0.0042
     34 C         -24.0150   52.2281  -11.0790 C.ar    1  UNL1        0.0027
     35 C         -20.3647   52.5225   -9.8854 C.3     1  UNL1        0.0189
     36 C         -20.1346   53.9549  -10.4146 C.3     1  UNL1        0.0044
     37 C         -19.7303   52.4351   -8.4763 C.3     1  UNL1        0.0044
     38 C         -19.6275   51.5153  -10.7946 C.3     1  UNL1        0.0044
     39 C         -31.5820   49.3303   -8.8971 C.3     1  UNL1        0.1700
     40 O         -31.5266   47.9361   -9.1308 O.3     1  UNL1       -0.3463
     41 C         -31.5823   47.6732  -10.5160 C.3     1  UNL1        0.1746
@<TRIPOS>BOND
     1    27    28    1
     2    28    18    1
     3    18    19    1
     4    19    20    2
     5    20    17    1
     6    17    11    1
     7    11    12    1
     8    12    13    1
     9    13    14    1
    10    14     1    1
    11     1     2   ar
    12     2    39    1
    13    39    40    1
    14    40    41    1
    15     2     3   ar
    16     3     4   ar
    17     4     5   ar
    18     5     6   ar
    19     6     7   ar
    20     7    29    1
    21    29    30   ar
    22    30    31   ar
    23    31    32   ar
    24    32    35    1
    25    35    36    1
    26    35    37    1
    27    35    38    1
    28    32    33   ar
    29    33    34   ar
    30     7     8   ar
    31     8     9   ar
    32    14    15    1
    33    15    16    1
    34    20    21    1
    35    21    22    2
    36    21    23    1
    37    23    24    1
    38    24    25    2
    39    24    18    1
    40    16    11    1
    41     9     1   ar
    42     9     5   ar
    43    34    29   ar
    44     6    10    1
    45    23    26    1
@<TRIPOS>MOLECULE
*****
 41 45 0 0 0
SMALL
GASTEIGER

@<TRIPOS>ATOM
      1 C         -29.0172   50.8168   -9.6217 C.ar    1  UNL1        0.0656
      2 C         -30.0042   50.4451   -8.6666 C.ar    1  UNL1        0.0222
      3 C         -29.6246   50.2341   -7.3145 C.ar    1  UNL1        0.0010
      4 C         -28.2872   50.3829   -6.9082 C.ar    1  UNL1        0.0184
      5 C         -27.3560   50.7451   -7.8747 C.ar    1  UNL1        0.0768
      6 N         -26.0426   50.9548   -7.7224 N.ar    1  UNL1       -0.3373
      7 C         -25.6171   51.2977   -8.9677 C.ar    1  UNL1        0.1406
      8 N         -26.6190   51.3085   -9.8887 N.ar    1  UNL1       -0.2258
      9 C         -27.7010   50.9538   -9.1735 C.ar    1  UNL1        0.1114
     10 H         -25.4953   50.8637   -6.8390 H       1  UNL1        0.1674
     11 N         -30.8435   50.7778  -13.1991 N.3     1  UNL1       -0.2655
     12 C         -29.4080   50.5069  -13.3969 C.3     1  UNL1        0.0941
     13 C         -28.7752   50.2051  -12.0384 C.3     1  UNL1        0.1082
     14 N         -29.3475   51.0645  -10.9961 N.pl3   1  UNL1       -0.3036
     15 C         -30.0446   52.3038  -11.3571 C.3     1  UNL1        0.1082
     16 C         -31.0380   52.0785  -12.5195 C.3     1  UNL1        0.0941
     17 C         -31.5798   50.7486  -14.4785 C.3     1  UNL1        0.1154
     18 N         -30.6570   47.2027  -15.4154 N.am    1  UNL1       -0.0442
     19 C         -31.0324   48.2989  -14.6925 C.2     1  UNL1        0.2969
     20 C         -31.1664   49.5507  -15.3032 C.2     1  UNL1        0.1684
     21 C         -30.9140   49.6402  -16.6800 C.2     1  UNL1        0.4261
     22 O         -31.0259   50.7412  -17.2843 O.2     1  UNL1       -0.2139
     23 N         -30.5418   48.5317  -17.3724 N.am    1  UNL1       -0.0486
     24 C         -30.4060   47.3256  -16.7574 C.2     1  UNL1        0.6659
     25 O         -30.0449   46.3249  -17.4363 O.2     1  UNL1       -0.1527
     26 H         -30.3507   48.6084  -18.3979 H       1  UNL1        0.4575
     27 C         -30.0284   46.1447  -13.2829 C.3     1  UNL1        0.0920
     28 C         -30.4734   45.9162  -14.7241 C.3     1  UNL1        0.3234
     29 C         -24.2109   51.6275   -9.3137 C.ar    1  UNL1        0.0339
     30 C         -23.2071   51.5158   -8.3394 C.ar    1  UNL1        0.0027
     31 C         -21.8773   51.8206   -8.6414 C.ar    1  UNL1       -0.0042
     32 C         -21.5044   52.2484   -9.9360 C.ar    1  UNL1       -0.0228
     33 C         -22.5224   52.3536  -10.9080 C.ar    1  UNL1       -0.0042
     34 C         -23.8512   52.0487  -10.6035 C.ar    1  UNL1        0.0027
     35 C         -20.0493   52.5950  -10.3147 C.3     1  UNL1        0.0189
     36 C         -19.9316   54.1135  -10.5700 C.3     1  UNL1        0.0044
     37 C         -19.0298   52.2241   -9.2108 C.3     1  UNL1        0.0044
     38 C         -19.6537   51.8277  -11.5950 C.3     1  UNL1        0.0044
     39 C         -31.4528   50.2506   -9.0516 C.3     1  UNL1        0.1700
     40 O         -31.5709   49.3429  -10.1303 O.3     1  UNL1       -0.3463
     41 C         -31.5820   48.0162   -9.6498 C.3     1  UNL1        0.1746
@<TRIPOS>BOND
     1    27    28    1
     2    28    18    1
     3    18    19    1
     4    19    20    2
     5    20    17    1
     6    17    11    1
     7    11    12    1
     8    12    13    1
     9    13    14    1
    10    14     1    1
    11     1     2   ar
    12     2    39    1
    13    39    40    1
    14    40    41    1
    15     2     3   ar
    16     3     4   ar
    17     4     5   ar
    18     5     6   ar
    19     6     7   ar
    20     7    29    1
    21    29    30   ar
    22    30    31   ar
    23    31    32   ar
    24    32    35    1
    25    35    36    1
    26    35    37    1
    27    35    38    1
    28    32    33   ar
    29    33    34   ar
    30     7     8   ar
    31     8     9   ar
    32    14    15    1
    33    15    16    1
    34    20    21    1
    35    21    22    2
    36    21    23    1
    37    23    24    1
    38    24    25    2
    39    24    18    1
    40    16    11    1
    41     9     1   ar
    42     9     5   ar
    43    34    29   ar
    44     6    10    1
    45    23    26    1
@<TRIPOS>MOLECULE
*****
 41 45 0 0 0
SMALL
GASTEIGER

@<TRIPOS>ATOM
      1 C         -29.4107   47.4906   -5.5781 C.ar    1  UNL1        0.0656
      2 C         -29.6863   46.5534   -6.6127 C.ar    1  UNL1        0.0222
      3 C         -30.3582   45.3424   -6.2985 C.ar    1  UNL1        0.0010
      4 C         -30.7504   45.0551   -4.9796 C.ar    1  UNL1        0.0184
      5 C         -30.4593   45.9978   -4.0004 C.ar    1  UNL1        0.0768
      6 N         -30.7429   45.9491   -2.6929 N.ar    1  UNL1       -0.3373
      7 C         -30.2558   47.1218   -2.2061 C.ar    1  UNL1        0.1406
      8 N         -29.6794   47.8977   -3.1642 N.ar    1  UNL1       -0.2258
      9 C         -29.8190   47.1639   -4.2824 C.ar    1  UNL1        0.1114
     10 H         -31.2245   45.1734   -2.1882 H       1  UNL1        0.1674
     11 N         -27.8176   50.6733   -7.4400 N.3     1  UNL1       -0.2655
     12 C         -26.8309   50.1415   -6.4825 C.3     1  UNL1        0.0941
     13 C         -27.2981   48.7637   -6.0128 C.3     1  UNL1        0.1082
     14 N         -28.7550   48.7396   -5.8414 N.pl3   1  UNL1       -0.3036
     15 C         -29.5050   49.9917   -5.6941 C.3     1  UNL1        0.1082
     16 C         -29.0717   51.0400   -6.7440 C.3     1  UNL1        0.0941
     17 C         -27.2807   51.8319   -8.1810 C.3     1  UNL1        0.1154
     18 N         -29.0128   51.8029  -11.5429 N.am    1  UNL1       -0.0442
     19 C         -28.7757   51.9458  -10.2055 C.2     1  UNL1        0.2969
     20 C         -27.5148   51.6689   -9.6659 C.2     1  UNL1        0.1684
     21 C         -26.5024   51.2515  -10.5424 C.2     1  UNL1        0.4261
     22 O         -25.3450   50.9948  -10.1128 O.2     1  UNL1       -0.2139
     23 N         -26.7689   51.1182  -11.8683 N.am    1  UNL1       -0.0486
     24 C         -28.0053   51.3816  -12.3715 C.2     1  UNL1        0.6659
     25 O         -28.2124   51.2314  -13.6074 O.2     1  UNL1       -0.1527
     26 H         -26.0095   50.8017  -12.5141 H       1  UNL1        0.4575
     27 C         -30.5900   53.5440  -12.2794 C.3     1  UNL1        0.0920
     28 C         -30.3678   52.0506  -12.0615 C.3     1  UNL1        0.3234
     29 C         -30.3295   47.5351   -0.7816 C.ar    1  UNL1        0.0339
     30 C         -30.1392   46.5839    0.2326 C.ar    1  UNL1        0.0027
     31 C         -30.2039   46.9491    1.5798 C.ar    1  UNL1       -0.0042
     32 C         -30.4613   48.2860    1.9602 C.ar    1  UNL1       -0.0228
     33 C         -30.6478   49.2338    0.9311 C.ar    1  UNL1       -0.0042
     34 C         -30.5829   48.8661   -0.4150 C.ar    1  UNL1        0.0027
     35 C         -30.5413   48.7347    3.4342 C.3     1  UNL1        0.0189
     36 C         -29.1597   48.5592    4.1016 C.3     1  UNL1        0.0044
     37 C         -30.9558   50.2172    3.5960 C.3     1  UNL1        0.0044
     38 C         -31.5837   47.8727    4.1791 C.3     1  UNL1        0.0044
     39 C         -29.2690   46.8007   -8.0441 C.3     1  UNL1        0.1700
     40 O         -29.8485   47.9920   -8.5403 O.3     1  UNL1       -0.3463
     41 C         -29.5646   48.1345   -9.9151 C.3     1  UNL1        0.1746
@<TRIPOS>BOND
     1    27    28    1
     2    28    18    1
     3    18    19    1
     4    19    20    2
     5    20    17    1
     6    17    11    1
     7    11    12    1
     8    12    13    1
     9    13    14    1
    10    14     1    1
    11     1     2   ar
    12     2    39    1
    13    39    40    1
    14    40    41    1
    15     2     3   ar
    16     3     4   ar
    17     4     5   ar
    18     5     6   ar
    19     6     7   ar
    20     7    29    1
    21    29    30   ar
    22    30    31   ar
    23    31    32   ar
    24    32    35    1
    25    35    36    1
    26    35    37    1
    27    35    38    1
    28    32    33   ar
    29    33    34   ar
    30     7     8   ar
    31     8     9   ar
    32    14    15    1
    33    15    16    1
    34    20    21    1
    35    21    22    2
    36    21    23    1
    37    23    24    1
    38    24    25    2
    39    24    18    1
    40    16    11    1
    41     9     1   ar
    42     9     5   ar
    43    34    29   ar
    44     6    10    1
    45    23    26    1
@<TRIPOS>MOLECULE
*****
 41 45 0 0 0
SMALL
GASTEIGER

@<TRIPOS>ATOM
      1 C         -28.7766   49.7447   -9.0003 C.ar    1  UNL1        0.0656
      2 C         -29.5442   48.9861   -8.0731 C.ar    1  UNL1        0.0222
      3 C         -28.9272   48.4922   -6.8932 C.ar    1  UNL1        0.0010
      4 C         -27.5684   48.7386   -6.6313 C.ar    1  UNL1        0.0184
      5 C         -26.8561   49.4823   -7.5651 C.ar    1  UNL1        0.0768
      6 N         -25.5693   49.8493   -7.5248 N.ar    1  UNL1       -0.3373
      7 C         -25.3956   50.5678   -8.6663 C.ar    1  UNL1        0.1406
      8 N         -26.5285   50.6606   -9.4148 N.ar    1  UNL1       -0.2258
      9 C         -27.4302   49.9656   -8.6992 C.ar    1  UNL1        0.1114
     10 H         -24.8785   49.6183   -6.7780 H       1  UNL1        0.1674
     11 N         -30.6347   50.1118  -12.5425 N.3     1  UNL1       -0.2655
     12 C         -29.3592   50.8488  -12.5978 C.3     1  UNL1        0.0941
     13 C         -28.5125   50.4531  -11.3881 C.3     1  UNL1        0.1082
     14 N         -29.3532   50.2872  -10.1973 N.pl3   1  UNL1       -0.3036
     15 C         -30.6901   50.8887  -10.1439 C.3     1  UNL1        0.1082
     16 C         -31.4839   50.6245  -11.4435 C.3     1  UNL1        0.0941
     17 C         -31.3561   50.1835  -13.8287 C.3     1  UNL1        0.1154
     18 N         -30.1888   48.1739  -16.8123 N.am    1  UNL1       -0.0442
     19 C         -30.5147   49.2224  -16.0001 C.2     1  UNL1        0.2969
     20 C         -30.9992   49.0046  -14.7055 C.2     1  UNL1        0.1684
     21 C         -31.1282   47.6786  -14.2670 C.2     1  UNL1        0.4261
     22 O         -31.5530   47.4230  -13.1075 O.2     1  UNL1       -0.2139
     23 N         -30.7960   46.6563  -15.0984 N.am    1  UNL1       -0.0486
     24 C         -30.3375   46.8892  -16.3581 C.2     1  UNL1        0.6659
     25 O         -30.0537   45.9095  -17.1015 O.2     1  UNL1       -0.1527
     26 H         -30.9000   45.6704  -14.7649 H       1  UNL1        0.4575
     27 C         -29.3677   49.9170  -18.3452 C.3     1  UNL1        0.0920
     28 C         -29.7358   48.4451  -18.1863 C.3     1  UNL1        0.3234
     29 C         -24.1132   51.1937   -9.0779 C.ar    1  UNL1        0.0339
     30 C         -23.0731   51.3331   -8.1461 C.ar    1  UNL1        0.0027
     31 C         -21.8578   51.9187   -8.5101 C.ar    1  UNL1       -0.0042
     32 C         -21.6401   52.3860   -9.8263 C.ar    1  UNL1       -0.0228
     33 C         -22.6925   52.2373  -10.7550 C.ar    1  UNL1       -0.0042
     34 C         -23.9067   51.6518  -10.3886 C.ar    1  UNL1        0.0027
     35 C         -20.3151   53.0384  -10.2730 C.3     1  UNL1        0.0189
     36 C         -19.2323   52.7916   -9.2000 C.3     1  UNL1        0.0044
     37 C         -19.7837   52.4770  -11.6139 C.3     1  UNL1        0.0044
     38 C         -20.5237   54.5581  -10.4509 C.3     1  UNL1        0.0044
     39 C         -31.0032   48.6730   -8.3137 C.3     1  UNL1        0.1700
     40 O         -31.2080   47.2779   -8.4280 O.3     1  UNL1       -0.3463
     41 C         -31.1062   46.8810   -9.7782 C.3     1  UNL1        0.1746
@<TRIPOS>BOND
     1    27    28    1
     2    28    18    1
     3    18    19    1
     4    19    20    2
     5    20    17    1
     6    17    11    1
     7    11    12    1
     8    12    13    1
     9    13    14    1
    10    14     1    1
    11     1     2   ar
    12     2    39    1
    13    39    40    1
    14    40    41    1
    15     2     3   ar
    16     3     4   ar
    17     4     5   ar
    18     5     6   ar
    19     6     7   ar
    20     7    29    1
    21    29    30   ar
    22    30    31   ar
    23    31    32   ar
    24    32    35    1
    25    35    36    1
    26    35    37    1
    27    35    38    1
    28    32    33   ar
    29    33    34   ar
    30     7     8   ar
    31     8     9   ar
    32    14    15    1
    33    15    16    1
    34    20    21    1
    35    21    22    2
    36    21    23    1
    37    23    24    1
    38    24    25    2
    39    24    18    1
    40    16    11    1
    41     9     1   ar
    42     9     5   ar
    43    34    29   ar
    44     6    10    1
    45    23    26    1
@<TRIPOS>MOLECULE
*****
 41 45 0 0 0
SMALL
GASTEIGER

@<TRIPOS>ATOM
      1 C         -30.5833   46.5532   -5.9504 C.ar    1  UNL1        0.0656
      2 C         -30.9327   45.4783   -6.8147 C.ar    1  UNL1        0.0222
      3 C         -31.4330   44.2700   -6.2611 C.ar    1  UNL1        0.0010
      4 C         -31.5833   44.1200   -4.8716 C.ar    1  UNL1        0.0184
      5 C         -31.2280   45.1946   -4.0647 C.ar    1  UNL1        0.0768
      6 N         -31.2951   45.2871   -2.7308 N.ar    1  UNL1       -0.3373
      7 C         -30.8461   46.5429   -2.4645 C.ar    1  UNL1        0.1406
      8 N         -30.5020   47.2343   -3.5852 N.ar    1  UNL1       -0.2258
      9 C         -30.7496   46.3602   -4.5765 C.ar    1  UNL1        0.1114
     10 H         -31.6178   44.5469   -2.0703 H       1  UNL1        0.1674
     11 N         -29.2849   49.4621   -8.3972 N.3     1  UNL1       -0.2655
     12 C         -28.3401   49.3315   -7.2731 C.3     1  UNL1        0.0941
     13 C         -28.6470   48.0347   -6.5239 C.3     1  UNL1        0.1082
     14 N         -30.0943   47.8042   -6.4557 N.pl3   1  UNL1       -0.3036
     15 C         -31.0323   48.9128   -6.6637 C.3     1  UNL1        0.1082
     16 C         -30.6472   49.7580   -7.8991 C.3     1  UNL1        0.0941
     17 C         -28.8477   50.4997   -9.3522 C.3     1  UNL1        0.1154
     18 N         -30.4602   48.6899  -12.2552 N.am    1  UNL1       -0.0442
     19 C         -29.9595   48.9688  -11.0155 C.2     1  UNL1        0.2969
     20 C         -29.3981   50.2187  -10.7321 C.2     1  UNL1        0.1684
     21 C         -29.3764   51.1766  -11.7566 C.2     1  UNL1        0.4261
     22 O         -28.8891   52.3221  -11.5559 O.2     1  UNL1       -0.2139
     23 N         -29.8820   50.8693  -12.9800 N.am    1  UNL1       -0.0486
     24 C         -30.4133   49.6437  -13.2386 C.2     1  UNL1        0.6659
     25 O         -30.8593   49.3966  -14.3931 O.2     1  UNL1       -0.1527
     26 H         -29.8573   51.5879  -13.7396 H       1  UNL1        0.4575
     27 C         -29.8665   46.4032  -12.9483 C.3     1  UNL1        0.0920
     28 C         -30.9911   47.3444  -12.5281 C.3     1  UNL1        0.3234
     29 C         -30.7305   47.1222   -1.1019 C.ar    1  UNL1        0.0339
     30 C         -30.2677   46.3275   -0.0419 C.ar    1  UNL1        0.0027
     31 C         -30.1506   46.8505    1.2486 C.ar    1  UNL1       -0.0042
     32 C         -30.4930   48.1941    1.5235 C.ar    1  UNL1       -0.0228
     33 C         -30.9541   48.9840    0.4485 C.ar    1  UNL1       -0.0042
     34 C         -31.0706   48.4588   -0.8407 C.ar    1  UNL1        0.0027
     35 C         -30.3795   48.8140    2.9318 C.3     1  UNL1        0.0189
     36 C         -31.1934   47.9671    3.9344 C.3     1  UNL1        0.0044
     37 C         -28.9224   48.8824    3.4495 C.3     1  UNL1        0.0044
     38 C         -30.9360   50.2542    2.9069 C.3     1  UNL1        0.0044
     39 C         -30.7719   45.5767   -8.3143 C.3     1  UNL1        0.1700
     40 O         -29.6759   44.7991   -8.7566 O.3     1  UNL1       -0.3463
     41 C         -28.7512   45.6113   -9.4466 C.3     1  UNL1        0.1746
@<TRIPOS>BOND
     1    27    28    1
     2    28    18    1
     3    18    19    1
     4    19    20    2
     5    20    17    1
     6    17    11    1
     7    11    12    1
     8    12    13    1
     9    13    14    1
    10    14     1    1
    11     1     2   ar
    12     2    39    1
    13    39    40    1
    14    40    41    1
    15     2     3   ar
    16     3     4   ar
    17     4     5   ar
    18     5     6   ar
    19     6     7   ar
    20     7    29    1
    21    29    30   ar
    22    30    31   ar
    23    31    32   ar
    24    32    35    1
    25    35    36    1
    26    35    37    1
    27    35    38    1
    28    32    33   ar
    29    33    34   ar
    30     7     8   ar
    31     8     9   ar
    32    14    15    1
    33    15    16    1
    34    20    21    1
    35    21    22    2
    36    21    23    1
    37    23    24    1
    38    24    25    2
    39    24    18    1
    40    16    11    1
    41     9     1   ar
    42     9     5   ar
    43    34    29   ar
    44     6    10    1
    45    23    26    1
