@<TRIPOS>MOLECULE
*****
 35 39 0 0 0
SMALL
GASTEIGER

@<TRIPOS>ATOM
      1 C         -28.8651   51.0942   -7.9819 C.ar    1  UNL1        0.0673
      2 C         -30.0584   50.5797   -8.5368 C.ar    1  UNL1        0.0161
      3 C         -30.0952   50.1328   -9.8773 C.ar    1  UNL1        0.0028
      4 C         -28.9390   50.1783  -10.6769 C.ar    1  UNL1        0.0186
      5 C         -27.7761   50.6809  -10.1000 C.ar    1  UNL1        0.0768
      6 N         -26.5597   50.7940  -10.6491 N.ar    1  UNL1       -0.3373
      7 C         -25.8004   51.3226   -9.6550 C.ar    1  UNL1        0.1406
      8 N         -26.4935   51.5387   -8.5066 N.ar    1  UNL1       -0.2258
      9 C         -27.7370   51.1287   -8.8129 C.ar    1  UNL1        0.1116
     10 H         -26.2788   50.5488  -11.6244 H       1  UNL1        0.1674
     11 N         -29.1979   49.7525   -4.7086 N.3     1  UNL1       -0.2647
     12 C         -30.1028   50.9130   -4.5793 C.3     1  UNL1        0.0941
     13 C         -30.0464   51.7644   -5.8623 C.3     1  UNL1        0.1082
     14 N         -28.8054   51.4883   -6.5972 N.pl3   1  UNL1       -0.3034
     15 C         -27.5839   51.3204   -5.8036 C.3     1  UNL1        0.1082
     16 C         -27.7859   50.2056   -4.7550 C.3     1  UNL1        0.0941
     17 C         -29.4114   48.7750   -3.6237 C.3     1  UNL1        0.1200
     18 N         -26.6239   46.3926   -3.6196 N.ar    1  UNL1       -0.3128
     19 C         -26.2505   47.3308   -2.7258 C.ar    1  UNL1        0.1780
     20 N         -27.1680   48.3098   -2.5838 N.ar    1  UNL1       -0.2273
     21 C         -28.1719   47.9516   -3.4125 C.ar    1  UNL1        0.0885
     22 C         -27.8330   46.7845   -4.0714 C.ar    1  UNL1        0.0537
     23 C         -28.6960   46.0257   -5.0362 C.3     1  UNL1        0.0514
     24 C         -25.5116   44.4210   -2.6731 C.3     1  UNL1        0.0265
     25 C         -25.8786   45.1756   -3.9446 C.3     1  UNL1        0.1073
     26 C         -24.3675   51.6574   -9.7958 C.ar    1  UNL1        0.0339
     27 C         -23.4940   51.5595   -8.7054 C.ar    1  UNL1        0.0027
     28 C         -22.1427   51.8830   -8.8488 C.ar    1  UNL1       -0.0042
     29 C         -21.6143   52.2881  -10.0946 C.ar    1  UNL1       -0.0228
     30 C         -22.5119   52.4000  -11.1816 C.ar    1  UNL1       -0.0042
     31 C         -23.8670   52.0951  -11.0296 C.ar    1  UNL1        0.0027
     32 C         -20.1151   52.6336  -10.2131 C.3     1  UNL1        0.0189
     33 C         -19.3057   52.2675   -8.9453 C.3     1  UNL1        0.0044
     34 C         -19.5129   51.8611  -11.4041 C.3     1  UNL1        0.0044
     35 C         -19.9414   54.1525  -10.4450 C.3     1  UNL1        0.0044
@<TRIPOS>BOND
     1    24    25    1
     2    25    18    1
     3    18    19   ar
     4    19    20   ar
     5    20    21   ar
     6    21    17    1
     7    17    11    1
     8    11    12    1
     9    12    13    1
    10    13    14    1
    11    14     1    1
    12     1     2   ar
    13     2     3   ar
    14     3     4   ar
    15     4     5   ar
    16     5     6   ar
    17     6     7   ar
    18     7    26    1
    19    26    27   ar
    20    27    28   ar
    21    28    29   ar
    22    29    32    1
    23    32    33    1
    24    32    34    1
    25    32    35    1
    26    29    30   ar
    27    30    31   ar
    28     7     8   ar
    29     8     9   ar
    30    14    15    1
    31    15    16    1
    32    21    22   ar
    33    22    23    1
    34    22    18   ar
    35    16    11    1
    36     9     1   ar
    37     9     5   ar
    38    31    26   ar
    39     6    10    1
@<TRIPOS>MOLECULE
*****
 35 39 0 0 0
SMALL
GASTEIGER

@<TRIPOS>ATOM
      1 C         -28.3412   48.7810   -7.4211 C.ar    1  UNL1        0.0673
      2 C         -29.5642   49.1412   -6.8119 C.ar    1  UNL1        0.0161
      3 C         -29.8583   50.4952   -6.5320 C.ar    1  UNL1        0.0028
      4 C         -28.9439   51.5089   -6.8704 C.ar    1  UNL1        0.0186
      5 C         -27.7520   51.1248   -7.4783 C.ar    1  UNL1        0.0768
      6 N         -26.7532   51.9045   -7.9121 N.ar    1  UNL1       -0.3373
      7 C         -25.8558   51.0274   -8.4312 C.ar    1  UNL1        0.1406
      8 N         -26.2575   49.7325   -8.3432 N.ar    1  UNL1       -0.2258
      9 C         -27.4544   49.8196   -7.7367 C.ar    1  UNL1        0.1116
     10 H         -26.6835   52.9439   -7.8415 H       1  UNL1        0.1674
     11 N         -29.4668   46.1983   -9.5861 N.3     1  UNL1       -0.2647
     12 C         -29.4632   45.4509   -8.3119 C.3     1  UNL1        0.0941
     13 C         -28.8792   46.3326   -7.1913 C.3     1  UNL1        0.1082
     14 N         -28.0658   47.4101   -7.7689 N.pl3   1  UNL1       -0.3034
     15 C         -27.2174   47.0646   -8.9137 C.3     1  UNL1        0.1082
     16 C         -28.0760   46.4476  -10.0387 C.3     1  UNL1        0.0941
     17 C         -30.2501   45.4985  -10.6229 C.3     1  UNL1        0.1200
     18 N         -30.4697   47.9641  -13.3282 N.ar    1  UNL1       -0.3128
     19 C         -29.9573   46.8698  -13.9270 C.ar    1  UNL1        0.1780
     20 N         -29.8032   45.8341  -13.0761 N.ar    1  UNL1       -0.2273
     21 C         -30.2635   46.2988  -11.8951 C.ar    1  UNL1        0.0885
     22 C         -30.6532   47.6175  -12.0375 C.ar    1  UNL1        0.0537
     23 C         -31.2717   48.4812  -10.9778 C.3     1  UNL1        0.0514
     24 C         -30.3896   49.1830  -15.4562 C.3     1  UNL1        0.0265
     25 C         -30.8143   49.2214  -13.9936 C.3     1  UNL1        0.1073
     26 C         -24.5568   51.4206   -9.0171 C.ar    1  UNL1        0.0339
     27 C         -24.4650   51.8405  -10.3501 C.ar    1  UNL1        0.0027
     28 C         -23.2315   52.2052  -10.8947 C.ar    1  UNL1       -0.0042
     29 C         -22.0530   52.1892  -10.1161 C.ar    1  UNL1       -0.0228
     30 C         -22.1584   51.7454   -8.7776 C.ar    1  UNL1       -0.0042
     31 C         -23.3907   51.3619   -8.2419 C.ar    1  UNL1        0.0027
     32 C         -20.7101   52.6028  -10.7535 C.3     1  UNL1        0.0189
     33 C         -19.7764   53.3507   -9.7710 C.3     1  UNL1        0.0044
     34 C         -19.9747   51.3388  -11.2430 C.3     1  UNL1        0.0044
     35 C         -20.9643   53.5460  -11.9522 C.3     1  UNL1        0.0044
@<TRIPOS>BOND
     1    24    25    1
     2    25    18    1
     3    18    19   ar
     4    19    20   ar
     5    20    21   ar
     6    21    17    1
     7    17    11    1
     8    11    12    1
     9    12    13    1
    10    13    14    1
    11    14     1    1
    12     1     2   ar
    13     2     3   ar
    14     3     4   ar
    15     4     5   ar
    16     5     6   ar
    17     6     7   ar
    18     7    26    1
    19    26    27   ar
    20    27    28   ar
    21    28    29   ar
    22    29    32    1
    23    32    33    1
    24    32    34    1
    25    32    35    1
    26    29    30   ar
    27    30    31   ar
    28     7     8   ar
    29     8     9   ar
    30    14    15    1
    31    15    16    1
    32    21    22   ar
    33    22    23    1
    34    22    18   ar
    35    16    11    1
    36     9     1   ar
    37     9     5   ar
    38    31    26   ar
    39     6    10    1
@<TRIPOS>MOLECULE
*****
 35 39 0 0 0
SMALL
GASTEIGER

@<TRIPOS>ATOM
      1 C         -28.8581   51.2126   -8.2008 C.ar    1  UNL1        0.0673
      2 C         -30.0589   50.7793   -8.8065 C.ar    1  UNL1        0.0161
      3 C         -30.0911   50.4359  -10.1773 C.ar    1  UNL1        0.0028
      4 C         -28.9232   50.5048  -10.9580 C.ar    1  UNL1        0.0186
      5 C         -27.7534   50.9255  -10.3317 C.ar    1  UNL1        0.0768
      6 N         -26.5268   51.0410  -10.8568 N.ar    1  UNL1       -0.3373
      7 C         -25.7652   51.4691   -9.8170 C.ar    1  UNL1        0.1406
      8 N         -26.4670   51.6200   -8.6636 N.ar    1  UNL1       -0.2258
      9 C         -27.7181   51.2738   -9.0140 C.ar    1  UNL1        0.1116
     10 H         -26.2402   50.8612  -11.8446 H       1  UNL1        0.1674
     11 N         -27.9546   49.7161   -5.1073 N.3     1  UNL1       -0.2647
     12 C         -29.2986   50.2106   -4.7447 C.3     1  UNL1        0.0941
     13 C         -29.8836   51.0331   -5.9088 C.3     1  UNL1        0.1082
     14 N         -28.8052   51.4993   -6.7897 N.pl3   1  UNL1       -0.3034
     15 C         -27.5711   51.9603   -6.1460 C.3     1  UNL1        0.1082
     16 C         -27.0069   50.8509   -5.2326 C.3     1  UNL1        0.0941
     17 C         -27.4659   48.7147   -4.1396 C.3     1  UNL1        0.1200
     18 N         -28.9770   45.3780   -4.3089 N.ar    1  UNL1       -0.3128
     19 C         -28.6722   45.6618   -5.5915 C.ar    1  UNL1        0.1780
     20 N         -28.0925   46.8718   -5.7339 N.ar    1  UNL1       -0.2273
     21 C         -28.0115   47.3552   -4.4759 C.ar    1  UNL1        0.0885
     22 C         -28.5761   46.4507   -3.5961 C.ar    1  UNL1        0.0537
     23 C         -28.6376   46.5831   -2.1027 C.3     1  UNL1        0.0514
     24 C         -31.0670   44.1378   -3.9708 C.3     1  UNL1        0.0265
     25 C         -29.5508   44.1220   -3.8235 C.3     1  UNL1        0.1073
     26 C         -24.3209   51.7680   -9.9160 C.ar    1  UNL1        0.0339
     27 C         -23.7576   52.2119  -11.1190 C.ar    1  UNL1        0.0027
     28 C         -22.3906   52.4869  -11.2023 C.ar    1  UNL1       -0.0042
     29 C         -21.5465   52.3542  -10.0775 C.ar    1  UNL1       -0.0228
     30 C         -22.1261   51.8875   -8.8751 C.ar    1  UNL1       -0.0042
     31 C         -23.4902   51.5940   -8.8007 C.ar    1  UNL1        0.0027
     32 C         -20.0421   52.6711  -10.2093 C.3     1  UNL1        0.0189
     33 C         -19.3679   51.9348  -11.3925 C.3     1  UNL1        0.0044
     34 C         -19.8640   54.1873  -10.4262 C.3     1  UNL1        0.0044
     35 C         -19.2994   52.2453   -8.9215 C.3     1  UNL1        0.0044
@<TRIPOS>BOND
     1    24    25    1
     2    25    18    1
     3    18    19   ar
     4    19    20   ar
     5    20    21   ar
     6    21    17    1
     7    17    11    1
     8    11    12    1
     9    12    13    1
    10    13    14    1
    11    14     1    1
    12     1     2   ar
    13     2     3   ar
    14     3     4   ar
    15     4     5   ar
    16     5     6   ar
    17     6     7   ar
    18     7    26    1
    19    26    27   ar
    20    27    28   ar
    21    28    29   ar
    22    29    32    1
    23    32    33    1
    24    32    34    1
    25    32    35    1
    26    29    30   ar
    27    30    31   ar
    28     7     8   ar
    29     8     9   ar
    30    14    15    1
    31    15    16    1
    32    21    22   ar
    33    22    23    1
    34    22    18   ar
    35    16    11    1
    36     9     1   ar
    37     9     5   ar
    38    31    26   ar
    39     6    10    1
@<TRIPOS>MOLECULE
*****
 35 39 0 0 0
SMALL
GASTEIGER

@<TRIPOS>ATOM
      1 C         -28.2955   49.0106   -9.1396 C.ar    1  UNL1        0.0673
      2 C         -29.6479   49.2418   -9.4775 C.ar    1  UNL1        0.0161
      3 C         -30.0262   50.4114  -10.1754 C.ar    1  UNL1        0.0028
      4 C         -29.0591   51.3577  -10.5593 C.ar    1  UNL1        0.0186
      5 C         -27.7339   51.0982  -10.2213 C.ar    1  UNL1        0.0768
      6 N         -26.6478   51.8298  -10.5019 N.ar    1  UNL1       -0.3373
      7 C         -25.6256   51.1179   -9.9611 C.ar    1  UNL1        0.1406
      8 N         -26.0304   49.9692   -9.3592 N.ar    1  UNL1       -0.2258
      9 C         -27.3636   49.9803   -9.5342 C.ar    1  UNL1        0.1116
     10 H         -26.6118   52.7453  -11.0027 H       1  UNL1        0.1674
     11 N         -27.8507   47.6240   -5.8985 N.3     1  UNL1       -0.2647
     12 C         -26.5485   47.2563   -6.4914 C.3     1  UNL1        0.0941
     13 C         -26.5253   47.6455   -7.9821 C.3     1  UNL1        0.1082
     14 N         -27.8963   47.7891   -8.4878 N.pl3   1  UNL1       -0.3034
     15 C         -28.8832   46.8075   -8.0268 C.3     1  UNL1        0.1082
     16 C         -28.9333   46.7953   -6.4838 C.3     1  UNL1        0.0941
     17 C         -27.8272   47.5128   -4.4271 C.3     1  UNL1        0.1200
     18 N         -25.9913   50.5267   -3.4311 N.ar    1  UNL1       -0.3128
     19 C         -25.6026   49.5983   -2.5336 C.ar    1  UNL1        0.1780
     20 N         -26.1805   48.3972   -2.7427 N.ar    1  UNL1       -0.2273
     21 C         -26.9489   48.5806   -3.8375 C.ar    1  UNL1        0.0885
     22 C         -26.8557   49.8960   -4.2525 C.ar    1  UNL1        0.0537
     23 C         -27.5103   50.4950   -5.4625 C.3     1  UNL1        0.0514
     24 C         -24.5295   52.1848   -2.3661 C.3     1  UNL1        0.0265
     25 C         -25.4941   51.9010   -3.5106 C.3     1  UNL1        0.1073
     26 C         -24.2106   51.5444   -9.9938 C.ar    1  UNL1        0.0339
     27 C         -23.6078   51.9506  -11.1910 C.ar    1  UNL1        0.0027
     28 C         -22.2686   52.3471  -11.2111 C.ar    1  UNL1       -0.0042
     29 C         -21.4955   52.3778  -10.0292 C.ar    1  UNL1       -0.0228
     30 C         -22.1124   51.9473   -8.8318 C.ar    1  UNL1       -0.0042
     31 C         -23.4465   51.5319   -8.8189 C.ar    1  UNL1        0.0027
     32 C         -20.0202   52.8254  -10.0923 C.3     1  UNL1        0.0189
     33 C         -19.2330   52.1609  -11.2479 C.3     1  UNL1        0.0044
     34 C         -19.9657   54.3532  -10.2935 C.3     1  UNL1        0.0044
     35 C         -19.3005   52.4545   -8.7749 C.3     1  UNL1        0.0044
@<TRIPOS>BOND
     1    24    25    1
     2    25    18    1
     3    18    19   ar
     4    19    20   ar
     5    20    21   ar
     6    21    17    1
     7    17    11    1
     8    11    12    1
     9    12    13    1
    10    13    14    1
    11    14     1    1
    12     1     2   ar
    13     2     3   ar
    14     3     4   ar
    15     4     5   ar
    16     5     6   ar
    17     6     7   ar
    18     7    26    1
    19    26    27   ar
    20    27    28   ar
    21    28    29   ar
    22    29    32    1
    23    32    33    1
    24    32    34    1
    25    32    35    1
    26    29    30   ar
    27    30    31   ar
    28     7     8   ar
    29     8     9   ar
    30    14    15    1
    31    15    16    1
    32    21    22   ar
    33    22    23    1
    34    22    18   ar
    35    16    11    1
    36     9     1   ar
    37     9     5   ar
    38    31    26   ar
    39     6    10    1
@<TRIPOS>MOLECULE
*****
 35 39 0 0 0
SMALL
GASTEIGER

@<TRIPOS>ATOM
      1 C         -28.4491   49.0987   -9.6165 C.ar    1  UNL1        0.0673
      2 C         -29.7789   49.3673  -10.0114 C.ar    1  UNL1        0.0161
      3 C         -30.1113   50.5903  -10.6374 C.ar    1  UNL1        0.0028
      4 C         -29.1194   51.5544  -10.8922 C.ar    1  UNL1        0.0186
      5 C         -27.8169   51.2577  -10.5011 C.ar    1  UNL1        0.0768
      6 N         -26.7130   51.9987  -10.6628 N.ar    1  UNL1       -0.3373
      7 C         -25.7267   51.2381  -10.1216 C.ar    1  UNL1        0.1406
      8 N         -26.1706   50.0505   -9.6337 N.ar    1  UNL1       -0.2258
      9 C         -27.4916   50.0872   -9.8823 C.ar    1  UNL1        0.1116
     10 H         -26.6442   52.9495  -11.0889 H       1  UNL1        0.1674
     11 N         -29.1788   47.0307   -6.8208 N.3     1  UNL1       -0.2647
     12 C         -27.7038   47.0217   -6.7402 C.3     1  UNL1        0.0941
     13 C         -27.1105   47.7691   -7.9500 C.3     1  UNL1        0.1082
     14 N         -28.0935   47.8272   -9.0392 N.pl3   1  UNL1       -0.3034
     15 C         -28.8999   46.6254   -9.2744 C.3     1  UNL1        0.1082
     16 C         -29.6345   46.2216   -7.9780 C.3     1  UNL1        0.0941
     17 C         -29.7933   46.5611   -5.5638 C.3     1  UNL1        0.1200
     18 N         -27.4685   45.0324   -3.1754 N.ar    1  UNL1       -0.3128
     19 C         -27.5663   44.1195   -4.1631 C.ar    1  UNL1        0.1780
     20 N         -28.3918   44.5117   -5.1556 N.ar    1  UNL1       -0.2273
     21 C         -28.8105   45.7386   -4.7785 C.ar    1  UNL1        0.0885
     22 C         -28.2646   46.0554   -3.5486 C.ar    1  UNL1        0.0537
     23 C         -28.4357   47.3483   -2.8064 C.3     1  UNL1        0.0514
     24 C         -25.3497   44.1319   -2.3267 C.3     1  UNL1        0.0265
     25 C         -26.6049   44.9302   -1.9981 C.3     1  UNL1        0.1073
     26 C         -24.3101   51.6530  -10.0416 C.ar    1  UNL1        0.0339
     27 C         -23.6736   52.2579  -11.1327 C.ar    1  UNL1        0.0027
     28 C         -22.3332   52.6416  -11.0475 C.ar    1  UNL1       -0.0042
     29 C         -21.5927   52.4588   -9.8585 C.ar    1  UNL1       -0.0228
     30 C         -22.2434   51.8301   -8.7718 C.ar    1  UNL1       -0.0042
     31 C         -23.5785   51.4291   -8.8673 C.ar    1  UNL1        0.0027
     32 C         -20.1149   52.8993   -9.8031 C.3     1  UNL1        0.0189
     33 C         -19.1824   52.0049  -10.6557 C.3     1  UNL1        0.0044
     34 C         -20.0004   54.3451  -10.3269 C.3     1  UNL1        0.0044
     35 C         -19.6015   52.8385   -8.3457 C.3     1  UNL1        0.0044
@<TRIPOS>BOND
     1    24    25    1
     2    25    18    1
     3    18    19   ar
     4    19    20   ar
     5    20    21   ar
     6    21    17    1
     7    17    11    1
     8    11    12    1
     9    12    13    1
    10    13    14    1
    11    14     1    1
    12     1     2   ar
    13     2     3   ar
    14     3     4   ar
    15     4     5   ar
    16     5     6   ar
    17     6     7   ar
    18     7    26    1
    19    26    27   ar
    20    27    28   ar
    21    28    29   ar
    22    29    32    1
    23    32    33    1
    24    32    34    1
    25    32    35    1
    26    29    30   ar
    27    30    31   ar
    28     7     8   ar
    29     8     9   ar
    30    14    15    1
    31    15    16    1
    32    21    22   ar
    33    22    23    1
    34    22    18   ar
    35    16    11    1
    36     9     1   ar
    37     9     5   ar
    38    31    26   ar
    39     6    10    1
@<TRIPOS>MOLECULE
*****
 35 39 0 0 0
SMALL
GASTEIGER

@<TRIPOS>ATOM
      1 C         -28.0457   48.9537   -6.5371 C.ar    1  UNL1        0.0673
      2 C         -29.3083   49.3183   -6.0181 C.ar    1  UNL1        0.0161
      3 C         -29.7498   50.6600   -6.0737 C.ar    1  UNL1        0.0028
      4 C         -28.9451   51.6524   -6.6618 C.ar    1  UNL1        0.0186
      5 C         -27.7109   51.2616   -7.1733 C.ar    1  UNL1        0.0768
      6 N         -26.7959   52.0143   -7.7978 N.ar    1  UNL1       -0.3373
      7 C         -25.8026   51.1385   -8.0989 C.ar    1  UNL1        0.1406
      8 N         -26.0641   49.8690   -7.6917 N.ar    1  UNL1       -0.2258
      9 C         -27.2714   49.9726   -7.1088 C.ar    1  UNL1        0.1116
     10 H         -26.8392   53.0407   -7.9844 H       1  UNL1        0.1674
     11 N         -27.8356   46.1156   -4.4096 N.3     1  UNL1       -0.2647
     12 C         -26.4525   46.1223   -4.9285 C.3     1  UNL1        0.0941
     13 C         -26.3032   47.2175   -6.0020 C.3     1  UNL1        0.1082
     14 N         -27.6201   47.5770   -6.5430 N.pl3   1  UNL1       -0.3034
     15 C         -28.5673   46.4820   -6.7745 C.3     1  UNL1        0.1082
     16 C         -28.7794   45.6840   -5.4700 C.3     1  UNL1        0.0941
     17 C         -27.9591   45.2701   -3.2063 C.3     1  UNL1        0.1200
     18 N         -29.9276   47.3947   -0.9574 N.ar    1  UNL1       -0.3128
     19 C         -30.5229   46.1880   -0.8680 C.ar    1  UNL1        0.1780
     20 N         -29.9262   45.2541   -1.6375 N.ar    1  UNL1       -0.2273
     21 C         -28.8951   45.9054   -2.2166 C.ar    1  UNL1        0.0885
     22 C         -28.9043   47.2299   -1.8208 C.ar    1  UNL1        0.0537
     23 C         -27.8962   48.2766   -2.1947 C.3     1  UNL1        0.0514
     24 C         -30.0297   48.3804    1.2872 C.3     1  UNL1        0.0265
     25 C         -30.2975   48.5898   -0.1978 C.3     1  UNL1        0.1073
     26 C         -24.5457   51.5137   -8.7804 C.ar    1  UNL1        0.0339
     27 C         -24.5595   52.0451  -10.0762 C.ar    1  UNL1        0.0027
     28 C         -23.3653   52.3917  -10.7126 C.ar    1  UNL1       -0.0042
     29 C         -22.1194   52.2450  -10.0632 C.ar    1  UNL1       -0.0228
     30 C         -22.1201   51.6900   -8.7626 C.ar    1  UNL1       -0.0042
     31 C         -23.3150   51.3254   -8.1368 C.ar    1  UNL1        0.0027
     32 C         -20.8225   52.6427  -10.7988 C.3     1  UNL1        0.0189
     33 C         -19.8342   53.4298   -9.9043 C.3     1  UNL1        0.0044
     34 C         -20.1103   51.3661  -11.2894 C.3     1  UNL1        0.0044
     35 C         -21.1592   53.5416  -12.0111 C.3     1  UNL1        0.0044
@<TRIPOS>BOND
     1    24    25    1
     2    25    18    1
     3    18    19   ar
     4    19    20   ar
     5    20    21   ar
     6    21    17    1
     7    17    11    1
     8    11    12    1
     9    12    13    1
    10    13    14    1
    11    14     1    1
    12     1     2   ar
    13     2     3   ar
    14     3     4   ar
    15     4     5   ar
    16     5     6   ar
    17     6     7   ar
    18     7    26    1
    19    26    27   ar
    20    27    28   ar
    21    28    29   ar
    22    29    32    1
    23    32    33    1
    24    32    34    1
    25    32    35    1
    26    29    30   ar
    27    30    31   ar
    28     7     8   ar
    29     8     9   ar
    30    14    15    1
    31    15    16    1
    32    21    22   ar
    33    22    23    1
    34    22    18   ar
    35    16    11    1
    36     9     1   ar
    37     9     5   ar
    38    31    26   ar
    39     6    10    1
@<TRIPOS>MOLECULE
*****
 35 39 0 0 0
SMALL
GASTEIGER

@<TRIPOS>ATOM
      1 C         -30.1797   50.4373   -8.5297 C.ar    1  UNL1        0.0673
      2 C         -31.3701   50.1285   -9.2255 C.ar    1  UNL1        0.0161
      3 C         -31.3826   50.0622  -10.6375 C.ar    1  UNL1        0.0028
      4 C         -30.2051   50.2873  -11.3731 C.ar    1  UNL1        0.0186
      5 C         -29.0459   50.5795  -10.6600 C.ar    1  UNL1        0.0768
      6 N         -27.8132   50.8001  -11.1350 N.ar    1  UNL1       -0.3373
      7 C         -27.0677   51.0168  -10.0208 C.ar    1  UNL1        0.1406
      8 N         -27.7851   50.9350   -8.8700 N.ar    1  UNL1       -0.2258
      9 C         -29.0297   50.6611   -9.2991 C.ar    1  UNL1        0.1116
     10 H         -27.5129   50.8195  -12.1348 H       1  UNL1        0.1674
     11 N         -27.9413   49.9455   -5.8144 N.3     1  UNL1       -0.2647
     12 C         -29.0331   49.0486   -5.3834 C.3     1  UNL1        0.0941
     13 C         -30.2231   49.1710   -6.3545 C.3     1  UNL1        0.1082
     14 N         -30.1468   50.4401   -7.0892 N.pl3   1  UNL1       -0.3034
     15 C         -29.7238   51.6234   -6.3337 C.3     1  UNL1        0.1082
     16 C         -28.3546   51.3632   -5.6699 C.3     1  UNL1        0.0941
     17 C         -26.6928   49.6736   -5.0759 C.3     1  UNL1        0.1200
     18 N         -26.6468   46.3188   -3.5964 N.ar    1  UNL1       -0.3128
     19 C         -26.4515   46.0962   -4.9119 C.ar    1  UNL1        0.1780
     20 N         -26.4333   47.2345   -5.6361 N.ar    1  UNL1       -0.2273
     21 C         -26.6024   48.2152   -4.7238 C.ar    1  UNL1        0.0885
     22 C         -26.7585   47.6571   -3.4688 C.ar    1  UNL1        0.0537
     23 C         -26.9156   48.4040   -2.1769 C.3     1  UNL1        0.0514
     24 C         -25.3308   44.5376   -2.5400 C.3     1  UNL1        0.0265
     25 C         -26.6507   45.2984   -2.5471 C.3     1  UNL1        0.1073
     26 C         -25.6239   51.3336  -10.0388 C.ar    1  UNL1        0.0339
     27 C         -24.9392   51.5071  -11.2483 C.ar    1  UNL1        0.0027
     28 C         -23.5738   51.8016  -11.2535 C.ar    1  UNL1       -0.0042
     29 C         -22.8536   51.9605  -10.0487 C.ar    1  UNL1       -0.0228
     30 C         -23.5542   51.7641   -8.8362 C.ar    1  UNL1       -0.0042
     31 C         -24.9157   51.4495   -8.8349 C.ar    1  UNL1        0.0027
     32 C         -21.3468   52.2892  -10.0966 C.3     1  UNL1        0.0189
     33 C         -20.6658   52.2197   -8.7081 C.3     1  UNL1        0.0044
     34 C         -20.6409   51.2814  -11.0261 C.3     1  UNL1        0.0044
     35 C         -21.1373   53.7222  -10.6386 C.3     1  UNL1        0.0044
@<TRIPOS>BOND
     1    24    25    1
     2    25    18    1
     3    18    19   ar
     4    19    20   ar
     5    20    21   ar
     6    21    17    1
     7    17    11    1
     8    11    12    1
     9    12    13    1
    10    13    14    1
    11    14     1    1
    12     1     2   ar
    13     2     3   ar
    14     3     4   ar
    15     4     5   ar
    16     5     6   ar
    17     6     7   ar
    18     7    26    1
    19    26    27   ar
    20    27    28   ar
    21    28    29   ar
    22    29    32    1
    23    32    33    1
    24    32    34    1
    25    32    35    1
    26    29    30   ar
    27    30    31   ar
    28     7     8   ar
    29     8     9   ar
    30    14    15    1
    31    15    16    1
    32    21    22   ar
    33    22    23    1
    34    22    18   ar
    35    16    11    1
    36     9     1   ar
    37     9     5   ar
    38    31    26   ar
    39     6    10    1
@<TRIPOS>MOLECULE
*****
 35 39 0 0 0
SMALL
GASTEIGER

@<TRIPOS>ATOM
      1 C         -20.1310   53.3754   -9.4441 C.ar    1  UNL1        0.0673
      2 C         -19.6981   52.0750   -9.1002 C.ar    1  UNL1        0.0161
      3 C         -18.7834   51.8769   -8.0409 C.ar    1  UNL1        0.0028
      4 C         -18.3008   52.9712   -7.3006 C.ar    1  UNL1        0.0186
      5 C         -18.7526   54.2390   -7.6558 C.ar    1  UNL1        0.0768
      6 N         -18.4590   55.4143   -7.0849 N.ar    1  UNL1       -0.3373
      7 C         -19.1748   56.3156   -7.8057 C.ar    1  UNL1        0.1406
      8 N         -19.9070   55.7486   -8.7997 N.ar    1  UNL1       -0.2258
      9 C         -19.6222   54.4393   -8.6866 C.ar    1  UNL1        0.1116
     10 H         -17.8107   55.5863   -6.2846 H       1  UNL1        0.1674
     11 N         -23.2731   52.1390  -10.5502 N.3     1  UNL1       -0.2647
     12 C         -22.5340   52.0767  -11.8277 C.3     1  UNL1        0.0941
     13 C         -21.1323   52.6914  -11.6501 C.3     1  UNL1        0.1082
     14 N         -21.1138   53.5763  -10.4785 N.pl3   1  UNL1       -0.3034
     15 C         -22.2915   54.4230  -10.2639 C.3     1  UNL1        0.1082
     16 C         -23.5626   53.5497  -10.1932 C.3     1  UNL1        0.0941
     17 C         -24.5095   51.3345  -10.5994 C.3     1  UNL1        0.1200
     18 N         -26.4247   51.0000   -7.4904 N.ar    1  UNL1       -0.3128
     19 C         -25.1978   50.5436   -7.1666 C.ar    1  UNL1        0.1780
     20 N         -24.3337   50.5920   -8.2017 N.ar    1  UNL1       -0.2273
     21 C         -25.0513   51.1261   -9.2130 C.ar    1  UNL1        0.0885
     22 C         -26.3465   51.3575   -8.7887 C.ar    1  UNL1        0.0537
     23 C         -27.4444   51.9928   -9.5902 C.3     1  UNL1        0.0514
     24 C         -27.0759   51.5844   -5.1980 C.3     1  UNL1        0.0265
     25 C         -27.5566   51.1366   -6.5725 C.3     1  UNL1        0.1073
     26 C         -19.1550   57.7737   -7.5630 C.ar    1  UNL1        0.0339
     27 C         -19.1429   58.6816   -8.6293 C.ar    1  UNL1        0.0027
     28 C         -19.1194   60.0573   -8.3883 C.ar    1  UNL1       -0.0042
     29 C         -19.1358   60.5713   -7.0726 C.ar    1  UNL1       -0.0228
     30 C         -19.1292   59.6423   -6.0065 C.ar    1  UNL1       -0.0042
     31 C         -19.1323   58.2666   -6.2511 C.ar    1  UNL1        0.0027
     32 C         -19.1126   62.0977   -6.8479 C.3     1  UNL1        0.0189
     33 C         -19.4264   62.5011   -5.3866 C.3     1  UNL1        0.0044
     34 C         -17.7123   62.6375   -7.2025 C.3     1  UNL1        0.0044
     35 C         -20.1692   62.7787   -7.7484 C.3     1  UNL1        0.0044
@<TRIPOS>BOND
     1    24    25    1
     2    25    18    1
     3    18    19   ar
     4    19    20   ar
     5    20    21   ar
     6    21    17    1
     7    17    11    1
     8    11    12    1
     9    12    13    1
    10    13    14    1
    11    14     1    1
    12     1     2   ar
    13     2     3   ar
    14     3     4   ar
    15     4     5   ar
    16     5     6   ar
    17     6     7   ar
    18     7    26    1
    19    26    27   ar
    20    27    28   ar
    21    28    29   ar
    22    29    32    1
    23    32    33    1
    24    32    34    1
    25    32    35    1
    26    29    30   ar
    27    30    31   ar
    28     7     8   ar
    29     8     9   ar
    30    14    15    1
    31    15    16    1
    32    21    22   ar
    33    22    23    1
    34    22    18   ar
    35    16    11    1
    36     9     1   ar
    37     9     5   ar
    38    31    26   ar
    39     6    10    1
@<TRIPOS>MOLECULE
*****
 35 39 0 0 0
SMALL
GASTEIGER

@<TRIPOS>ATOM
      1 C         -28.3341   48.9497   -9.1544 C.ar    1  UNL1        0.0673
      2 C         -29.6972   49.2136   -9.4164 C.ar    1  UNL1        0.0161
      3 C         -30.0940   50.4353  -10.0065 C.ar    1  UNL1        0.0028
      4 C         -29.1354   51.4029  -10.3576 C.ar    1  UNL1        0.0186
      5 C         -27.7997   51.1108  -10.0966 C.ar    1  UNL1        0.0768
      6 N         -26.7197   51.8557  -10.3661 N.ar    1  UNL1       -0.3373
      7 C         -25.6822   51.0987   -9.9247 C.ar    1  UNL1        0.1406
      8 N         -26.0717   49.9096   -9.3956 N.ar    1  UNL1       -0.2258
      9 C         -27.4109   49.9416   -9.5130 C.ar    1  UNL1        0.1116
     10 H         -26.6966   52.8066  -10.7967 H       1  UNL1        0.1674
     11 N         -29.4499   46.3725   -6.9777 N.3     1  UNL1       -0.2647
     12 C         -28.1057   46.5957   -6.4069 C.3     1  UNL1        0.0941
     13 C         -27.3349   47.6134   -7.2695 C.3     1  UNL1        0.1082
     14 N         -27.9189   47.6797   -8.6151 N.pl3   1  UNL1       -0.3034
     15 C         -28.3421   46.4134   -9.2213 C.3     1  UNL1        0.1082
     16 C         -29.3427   45.6929   -8.2923 C.3     1  UNL1        0.0941
     17 C         -30.3131   45.6141   -6.0516 C.3     1  UNL1        0.1200
     18 N         -30.5697   46.9893   -2.6620 N.ar    1  UNL1       -0.3128
     19 C         -30.9742   48.0023   -3.4549 C.ar    1  UNL1        0.1780
     20 N         -30.9516   47.6799   -4.7648 N.ar    1  UNL1       -0.2273
     21 C         -30.5347   46.3960   -4.7872 C.ar    1  UNL1        0.0885
     22 C         -30.2748   45.9719   -3.4973 C.ar    1  UNL1        0.0537
     23 C         -29.8457   44.5949   -3.0837 C.3     1  UNL1        0.0514
     24 C         -29.8506   48.2618   -0.6913 C.3     1  UNL1        0.0265
     25 C         -30.5460   47.0049   -1.1987 C.3     1  UNL1        0.1073
     26 C         -24.2661   51.5186   -9.9845 C.ar    1  UNL1        0.0339
     27 C         -23.4741   51.5489   -8.8297 C.ar    1  UNL1        0.0027
     28 C         -22.1384   51.9519   -8.8971 C.ar    1  UNL1       -0.0042
     29 C         -21.5423   52.3110  -10.1264 C.ar    1  UNL1       -0.0228
     30 C         -22.3594   52.2933  -11.2804 C.ar    1  UNL1       -0.0042
     31 C         -23.7008   51.9090  -11.2061 C.ar    1  UNL1        0.0027
     32 C         -20.0626   52.7474  -10.1598 C.3     1  UNL1        0.0189
     33 C         -19.2692   52.1145  -11.3287 C.3     1  UNL1        0.0044
     34 C         -19.9931   54.2805  -10.3098 C.3     1  UNL1        0.0044
     35 C         -19.3598   52.3270   -8.8481 C.3     1  UNL1        0.0044
@<TRIPOS>BOND
     1    24    25    1
     2    25    18    1
     3    18    19   ar
     4    19    20   ar
     5    20    21   ar
     6    21    17    1
     7    17    11    1
     8    11    12    1
     9    12    13    1
    10    13    14    1
    11    14     1    1
    12     1     2   ar
    13     2     3   ar
    14     3     4   ar
    15     4     5   ar
    16     5     6   ar
    17     6     7   ar
    18     7    26    1
    19    26    27   ar
    20    27    28   ar
    21    28    29   ar
    22    29    32    1
    23    32    33    1
    24    32    34    1
    25    32    35    1
    26    29    30   ar
    27    30    31   ar
    28     7     8   ar
    29     8     9   ar
    30    14    15    1
    31    15    16    1
    32    21    22   ar
    33    22    23    1
    34    22    18   ar
    35    16    11    1
    36     9     1   ar
    37     9     5   ar
    38    31    26   ar
    39     6    10    1
