@<TRIPOS>MOLECULE
*****
 52 59 0 0 0
SMALL
GASTEIGER

@<TRIPOS>ATOM
      1 N          61.0889   83.7589   10.8240 N.am    1  UNL1       -0.0906
      2 C          60.8639   82.5237   10.2756 C.2     1  UNL1        0.4225
      3 O          60.8715   82.3619    9.0230 O.2     1  UNL1       -0.2135
      4 C          60.5843   81.4274   11.0799 C.2     1  UNL1        0.1114
      5 C          60.4056   81.5783   12.4611 C.2     1  UNL1       -0.0058
      6 C          60.7273   82.8388   13.0411 C.ar    1  UNL1        0.0789
      7 C          60.6102   83.0719   14.4288 C.ar    1  UNL1        0.1044
      8 N          60.9081   84.2796   14.9587 N.ar    1  UNL1       -0.2434
      9 C          61.4141   85.2895   14.2170 C.ar    1  UNL1        0.0870
     10 C          61.7403   86.4971   14.8445 C.ar    1  UNL1        0.0193
     11 C          62.3542   87.5222   14.1255 C.ar    1  UNL1        0.0016
     12 C          62.7262   87.3199   12.7892 C.ar    1  UNL1        0.0018
     13 C          62.4365   86.0857   12.1842 C.ar    1  UNL1        0.0075
     14 C          61.6586   85.1037   12.8379 C.ar    1  UNL1        0.0810
     15 C          61.1754   83.9073   12.2030 C.ar    1  UNL1        0.2294
     16 C          63.3628   88.4078   11.9990 C.ar    1  UNL1        0.0192
     17 C          62.8713   88.7663   10.7298 C.ar    1  UNL1        0.0988
     18 N          63.3902   89.8308   10.0633 N.ar    1  UNL1       -0.2438
     19 C          64.3969   90.5809   10.5823 C.ar    1  UNL1        0.0813
     20 C          64.8832   91.6882    9.8780 C.ar    1  UNL1        0.0191
     21 C          65.9101   92.4663   10.4213 C.ar    1  UNL1        0.0015
     22 C          66.4570   92.1387   11.6661 C.ar    1  UNL1        0.0001
     23 C          65.9765   91.0341   12.3772 C.ar    1  UNL1        0.0015
     24 C          64.9439   90.2501   11.8404 C.ar    1  UNL1        0.0177
     25 C          64.4203   89.1574   12.5425 C.ar    1  UNL1        0.0030
     26 C          59.4659   88.3609    9.9081 C.3     1  UNL1        0.0312
     27 C          60.2133   87.1408    9.4351 C.ar    1  UNL1       -0.0159
     28 C          60.4697   86.1090   10.3541 C.ar    1  UNL1        0.0648
     29 C          61.0405   84.8969    9.9314 C.ar    1  UNL1        0.2268
     30 C          61.4689   84.7658    8.6042 C.ar    1  UNL1        0.0691
     31 C          61.2615   85.7995    7.6919 C.ar    1  UNL1        0.0058
     32 C          60.6198   86.9858    8.0849 C.ar    1  UNL1       -0.0036
     33 C          60.3122   87.9995    7.0485 C.ar    1  UNL1       -0.0003
     34 C          61.3073   88.8984    6.6378 C.ar    1  UNL1        0.0001
     35 C          61.0471   89.8332    5.6340 C.ar    1  UNL1        0.0045
     36 C          59.7798   89.8991    5.0306 C.ar    1  UNL1        0.0534
     37 C          58.7773   89.0088    5.4570 C.ar    1  UNL1        0.0045
     38 C          59.0393   88.0742    6.4636 C.ar    1  UNL1        0.0001
     39 C          59.5279   90.8767    3.9451 C.2     1  UNL1        0.2458
     40 O          59.0669   92.0153    4.2342 O.2     1  UNL1       -0.2701
     41 N          59.7858   90.5439    2.5708 N.am    1  UNL1       -0.3024
     42 H          59.9274   89.5415    2.3120 H       1  UNL1        0.1497
     43 C          59.7622   91.5565    1.5096 C.3     1  UNL1        0.0746
     44 C          61.1106   91.5739    0.7569 C.3     1  UNL1        0.0369
     45 C          60.9916   92.1803   -0.6546 C.3     1  UNL1        0.0738
     46 N          59.8359   93.0929   -0.7277 N.3     1  UNL1       -0.2714
     47 C          59.8561   93.8478   -1.9896 C.3     1  UNL1        0.0896
     48 C          58.5639   92.3453   -0.5982 C.3     1  UNL1        0.0738
     49 C          58.6084   91.2893    0.5294 C.3     1  UNL1        0.0369
     50 C          59.9670   80.3701   13.3007 C.3     1  UNL1        0.0229
     51 C          58.5956   79.7927   12.9052 C.3     1  UNL1        0.0047
     52 C          61.0390   79.2762   13.2525 C.3     1  UNL1        0.0047
@<TRIPOS>BOND
     1    26    27    1
     2    27    28   ar
     3    28    29   ar
     4    29     1    1
     5     1     2    1
     6     2     3    2
     7     2     4    1
     8     4     5    2
     9     5    50    1
    10    50    51    1
    11    50    52    1
    12     5     6    1
    13     6     7   ar
    14     7     8   ar
    15     8     9   ar
    16     9    10   ar
    17    10    11   ar
    18    11    12   ar
    19    12    16    1
    20    16    17   ar
    21    17    18   ar
    22    18    19   ar
    23    19    20   ar
    24    20    21   ar
    25    21    22   ar
    26    22    23   ar
    27    23    24   ar
    28    24    25   ar
    29    12    13   ar
    30    13    14   ar
    31    14    15   ar
    32    29    30   ar
    33    30    31   ar
    34    31    32   ar
    35    32    33    1
    36    33    34   ar
    37    34    35   ar
    38    35    36   ar
    39    36    39    1
    40    39    40    2
    41    39    41   am
    42    41    43    1
    43    43    44    1
    44    44    45    1
    45    45    46    1
    46    46    47    1
    47    46    48    1
    48    48    49    1
    49    36    37   ar
    50    37    38   ar
    51    32    27   ar
    52    38    33   ar
    53    15     1    1
    54    49    43    1
    55    15     6   ar
    56    14     9   ar
    57    25    16   ar
    58    24    19   ar
    59    41    42    1
