@<TRIPOS>MOLECULE
*****
 44 49 0 0 0
SMALL
GASTEIGER

@<TRIPOS>ATOM
      1 C          61.8317   85.5715    9.0701 C.ar    1  UNL1        0.0702
      2 C          62.8771   84.8949    8.4223 C.ar    1  UNL1        0.0191
      3 C          63.4696   83.7845    9.0252 C.ar    1  UNL1        0.0356
      4 C          63.0142   83.3539   10.2811 C.ar    1  UNL1        0.1318
      5 N          62.0044   84.0303   10.8933 N.ar    1  UNL1       -0.2279
      6 C          61.4234   85.1229   10.3325 C.ar    1  UNL1        0.1149
      7 N          63.5451   82.1669   10.8955 N.pl3   1  UNL1       -0.2932
      8 C          63.2054   80.8276   10.4005 C.3     1  UNL1        0.0923
      9 C          62.2593   80.1107   11.3855 C.3     1  UNL1        0.0252
     10 C          62.2274   80.7897   12.7748 C.3     1  UNL1        0.0472
     11 C          63.6459   81.2310   13.1916 C.3     1  UNL1        0.0252
     12 C          64.2148   82.2680   12.2003 C.3     1  UNL1        0.0923
     13 C          61.5876   79.8661   13.8283 C.3     1  UNL1        0.2054
     14 O          60.1621   79.9602   13.7875 O.3     1  UNL1       -0.4755
     15 C          59.3728   79.8013   12.6345 C.ar    1  UNL1        0.1388
     16 C          58.8926   78.5225   12.3332 C.ar    1  UNL1        0.0369
     17 C          58.1021   78.3105   11.2019 C.ar    1  UNL1        0.0033
     18 C          57.7825   79.3764   10.3589 C.ar    1  UNL1        0.0066
     19 C          58.2486   80.6706   10.6411 C.ar    1  UNL1        0.0785
     20 C          59.0515   80.8747   11.7777 C.ar    1  UNL1        0.0433
     21 C          57.9003   81.8022    9.7531 C.2     1  UNL1        0.3381
     22 O          57.5672   81.5953    8.5548 O.2     1  UNL1       -0.2451
     23 O          57.9351   83.1077   10.2331 O.3     1  UNL1       -0.4771
     24 H          57.7027   83.8897    9.6327 H       1  UNL1        0.2954
     25 C          60.9939   87.9664    9.1435 C.2     1  UNL1        0.2839
     26 O          59.8731   88.5343    9.0589 O.2     1  UNL1       -0.2665
     27 N          61.1832   86.7100    8.4796 N.am    1  UNL1       -0.2766
     28 H          60.7370   86.5905    7.5421 H       1  UNL1        0.1553
     29 C          61.8490   87.5366   12.2613 C.3     1  UNL1        0.0345
     30 C          62.4323   88.4674   11.2413 C.ar    1  UNL1        0.0202
     31 C          62.0715   88.6415    9.8968 C.ar    1  UNL1        0.1946
     32 O          62.8931   89.5019    9.3207 O.2     1  UNL1       -0.4492
     33 C          63.7580   89.9017   10.2201 C.ar    1  UNL1        0.1452
     34 C          64.8172   90.7836   10.0403 C.ar    1  UNL1        0.0375
     35 C          65.6576   91.0390   11.1379 C.ar    1  UNL1        0.0031
     36 C          65.4185   90.4271   12.3995 C.ar    1  UNL1        0.0002
     37 C          64.3149   89.5495   12.5418 C.ar    1  UNL1        0.0028
     38 C          63.5144   89.3051   11.4256 C.ar    1  UNL1        0.0337
     39 C          66.3172   90.7006   13.5544 C.ar    1  UNL1        0.0000
     40 C          65.7843   91.0315   14.8162 C.ar    1  UNL1        0.0000
     41 C          66.6303   91.3128   15.8931 C.ar    1  UNL1        0.0000
     42 C          68.0154   91.2645   15.7278 C.ar    1  UNL1        0.0000
     43 C          68.5584   90.9308   14.4859 C.ar    1  UNL1        0.0000
     44 C          67.7178   90.6475   13.4053 C.ar    1  UNL1        0.0000
@<TRIPOS>BOND
     1    29    30    1
     2    30    31   ar
     3    31    25    1
     4    25    26    2
     5    25    27   am
     6    27     1    1
     7     1     2   ar
     8     2     3   ar
     9     3     4   ar
    10     4     7    1
    11     7     8    1
    12     8     9    1
    13     9    10    1
    14    10    13    1
    15    13    14    1
    16    14    15    1
    17    15    16   ar
    18    16    17   ar
    19    17    18   ar
    20    18    19   ar
    21    19    21    1
    22    21    22    2
    23    21    23    1
    24    19    20   ar
    25    10    11    1
    26    11    12    1
    27     4     5   ar
    28     5     6   ar
    29    31    32   ar
    30    32    33   ar
    31    33    34   ar
    32    34    35   ar
    33    35    36   ar
    34    36    39    1
    35    39    40   ar
    36    40    41   ar
    37    41    42   ar
    38    42    43   ar
    39    43    44   ar
    40    36    37   ar
    41    37    38   ar
    42    38    30   ar
    43     6     1   ar
    44    38    33   ar
    45    12     7    1
    46    44    39   ar
    47    20    15   ar
    48    27    28    1
    49    23    24    1
@<TRIPOS>MOLECULE
*****
 44 49 0 0 0
SMALL
GASTEIGER

@<TRIPOS>ATOM
      1 C          61.8848   85.6421    9.5978 C.ar    1  UNL1        0.0702
      2 C          62.6996   84.8156    8.8081 C.ar    1  UNL1        0.0191
      3 C          63.0581   83.5467    9.2648 C.ar    1  UNL1        0.0356
      4 C          62.6006   83.1071   10.5169 C.ar    1  UNL1        0.1318
      5 N          61.8180   83.9289   11.2681 N.ar    1  UNL1       -0.2279
      6 C          61.4694   85.1739   10.8507 C.ar    1  UNL1        0.1149
      7 N          62.8824   81.7765   10.9842 N.pl3   1  UNL1       -0.2932
      8 C          63.1231   80.6693   10.0514 C.3     1  UNL1        0.0923
      9 C          61.9258   79.6968   10.0455 C.3     1  UNL1        0.0252
     10 C          60.9912   79.9026   11.2606 C.3     1  UNL1        0.0472
     11 C          61.8169   80.1614   12.5380 C.3     1  UNL1        0.0252
     12 C          62.6594   81.4469   12.3994 C.3     1  UNL1        0.0923
     13 C          60.0366   78.7064   11.4341 C.3     1  UNL1        0.2054
     14 O          58.7250   79.0316   10.9689 O.3     1  UNL1       -0.4755
     15 C          58.3279   80.2889   10.4799 C.ar    1  UNL1        0.1388
     16 C          57.9998   80.3974    9.1243 C.ar    1  UNL1        0.0369
     17 C          57.5967   81.6220    8.5885 C.ar    1  UNL1        0.0033
     18 C          57.5167   82.7528    9.4033 C.ar    1  UNL1        0.0066
     19 C          57.8367   82.6698   10.7681 C.ar    1  UNL1        0.0785
     20 C          58.2503   81.4347   11.2988 C.ar    1  UNL1        0.0433
     21 C          57.7411   83.8663   11.6338 C.2     1  UNL1        0.3381
     22 O          57.8199   85.0225   11.1371 O.2     1  UNL1       -0.2451
     23 O          57.5610   83.7271   13.0065 O.3     1  UNL1       -0.4771
     24 H          57.4985   84.5393   13.6085 H       1  UNL1        0.2954
     25 C          61.3526   88.0871   10.0240 C.2     1  UNL1        0.2839
     26 O          60.3370   88.8233    9.9123 O.2     1  UNL1       -0.2665
     27 N          61.4794   86.9496    9.1606 N.am    1  UNL1       -0.2766
     28 H          61.1659   87.0618    8.1699 H       1  UNL1        0.1553
     29 C          63.7956   90.2242    9.7056 C.3     1  UNL1        0.0345
     30 C          63.4417   89.3617   10.8795 C.ar    1  UNL1        0.0202
     31 C          62.3825   88.4524   11.0192 C.ar    1  UNL1        0.1946
     32 O          62.3753   87.9588   12.2453 O.2     1  UNL1       -0.4492
     33 C          63.3766   88.4898   12.9026 C.ar    1  UNL1        0.1452
     34 C          63.7242   88.2745   14.2311 C.ar    1  UNL1        0.0375
     35 C          64.8164   88.9899   14.7522 C.ar    1  UNL1        0.0031
     36 C          65.5548   89.8924   13.9377 C.ar    1  UNL1        0.0002
     37 C          65.1762   90.0657   12.5831 C.ar    1  UNL1        0.0028
     38 C          64.0754   89.3536   12.1063 C.ar    1  UNL1        0.0337
     39 C          66.7070   90.6486   14.5006 C.ar    1  UNL1        0.0000
     40 C          67.9600   90.6327   13.8560 C.ar    1  UNL1        0.0000
     41 C          69.0474   91.3228   14.3997 C.ar    1  UNL1        0.0000
     42 C          68.8997   92.0392   15.5885 C.ar    1  UNL1        0.0000
     43 C          67.6628   92.0707   16.2347 C.ar    1  UNL1        0.0000
     44 C          66.5713   91.3835   15.6957 C.ar    1  UNL1        0.0000
@<TRIPOS>BOND
     1    29    30    1
     2    30    31   ar
     3    31    25    1
     4    25    26    2
     5    25    27   am
     6    27     1    1
     7     1     2   ar
     8     2     3   ar
     9     3     4   ar
    10     4     7    1
    11     7     8    1
    12     8     9    1
    13     9    10    1
    14    10    13    1
    15    13    14    1
    16    14    15    1
    17    15    16   ar
    18    16    17   ar
    19    17    18   ar
    20    18    19   ar
    21    19    21    1
    22    21    22    2
    23    21    23    1
    24    19    20   ar
    25    10    11    1
    26    11    12    1
    27     4     5   ar
    28     5     6   ar
    29    31    32   ar
    30    32    33   ar
    31    33    34   ar
    32    34    35   ar
    33    35    36   ar
    34    36    39    1
    35    39    40   ar
    36    40    41   ar
    37    41    42   ar
    38    42    43   ar
    39    43    44   ar
    40    36    37   ar
    41    37    38   ar
    42    38    30   ar
    43     6     1   ar
    44    38    33   ar
    45    12     7    1
    46    44    39   ar
    47    20    15   ar
    48    27    28    1
    49    23    24    1
@<TRIPOS>MOLECULE
*****
 44 49 0 0 0
SMALL
GASTEIGER

@<TRIPOS>ATOM
      1 C          62.3459   86.5121   15.5402 C.ar    1  UNL1        0.0702
      2 C          61.3386   85.6059   15.1734 C.ar    1  UNL1        0.0191
      3 C          61.6775   84.3781   14.6033 C.ar    1  UNL1        0.0356
      4 C          63.0292   84.0600   14.3985 C.ar    1  UNL1        0.1318
      5 N          63.9880   84.9576   14.7551 N.ar    1  UNL1       -0.2279
      6 C          63.6808   86.1649   15.2971 C.ar    1  UNL1        0.1149
      7 N          63.4192   82.7729   13.8890 N.pl3   1  UNL1       -0.2932
      8 C          64.6107   82.6081   13.0481 C.3     1  UNL1        0.0923
      9 C          64.2065   82.3227   11.5871 C.3     1  UNL1        0.0252
     10 C          62.7240   81.9018   11.4554 C.3     1  UNL1        0.0472
     11 C          62.3297   80.9506   12.6044 C.3     1  UNL1        0.0252
     12 C          62.4764   81.6481   13.9732 C.3     1  UNL1        0.0923
     13 C          62.4471   81.2727   10.0771 C.3     1  UNL1        0.2054
     14 O          61.7807   82.2017    9.2195 O.3     1  UNL1       -0.4755
     15 C          61.8210   83.6009    9.3543 C.ar    1  UNL1        0.1388
     16 C          62.5668   84.3334    8.4248 C.ar    1  UNL1        0.0369
     17 C          62.6376   85.7251    8.5117 C.ar    1  UNL1        0.0033
     18 C          61.9621   86.4004    9.5299 C.ar    1  UNL1        0.0066
     19 C          61.2033   85.6889   10.4732 C.ar    1  UNL1        0.0785
     20 C          61.1439   84.2865   10.3844 C.ar    1  UNL1        0.0433
     21 C          60.4785   86.4061   11.5459 C.2     1  UNL1        0.3381
     22 O          59.3001   86.0776   11.8511 O.2     1  UNL1       -0.2451
     23 O          61.0919   87.4504   12.2307 O.3     1  UNL1       -0.4771
     24 H          60.6033   87.9506   12.9636 H       1  UNL1        0.2954
     25 C          62.8766   88.9428   16.0431 C.2     1  UNL1        0.2839
     26 O          63.0950   89.6240   17.0795 O.2     1  UNL1       -0.2665
     27 N          62.0430   87.7807   16.1434 N.am    1  UNL1       -0.2766
     28 H          61.2113   87.8397   16.7736 H       1  UNL1        0.1553
     29 C          65.5034   90.8207   15.5848 C.3     1  UNL1        0.0345
     30 C          64.5864   90.2138   14.5660 C.ar    1  UNL1        0.0202
     31 C          63.4644   89.3955   14.7647 C.ar    1  UNL1        0.1946
     32 O          62.9842   89.0031   13.5975 O.2     1  UNL1       -0.4492
     33 C          63.7263   89.5306   12.6553 C.ar    1  UNL1        0.1452
     34 C          63.5968   89.3586   11.2820 C.ar    1  UNL1        0.0375
     35 C          64.5386   89.9839   10.4465 C.ar    1  UNL1        0.0031
     36 C          65.5811   90.7841   10.9905 C.ar    1  UNL1        0.0002
     37 C          65.6628   90.9473   12.3958 C.ar    1  UNL1        0.0028
     38 C          64.7223   90.2961   13.1943 C.ar    1  UNL1        0.0337
     39 C          66.5761   91.4382   10.0970 C.ar    1  UNL1        0.0000
     40 C          66.3477   92.7354    9.5960 C.ar    1  UNL1        0.0000
     41 C          67.2714   93.3379    8.7368 C.ar    1  UNL1        0.0000
     42 C          68.4340   92.6586    8.3694 C.ar    1  UNL1        0.0000
     43 C          68.6781   91.3761    8.8636 C.ar    1  UNL1        0.0000
     44 C          67.7589   90.7684    9.7239 C.ar    1  UNL1        0.0000
@<TRIPOS>BOND
     1    29    30    1
     2    30    31   ar
     3    31    25    1
     4    25    26    2
     5    25    27   am
     6    27     1    1
     7     1     2   ar
     8     2     3   ar
     9     3     4   ar
    10     4     7    1
    11     7     8    1
    12     8     9    1
    13     9    10    1
    14    10    13    1
    15    13    14    1
    16    14    15    1
    17    15    16   ar
    18    16    17   ar
    19    17    18   ar
    20    18    19   ar
    21    19    21    1
    22    21    22    2
    23    21    23    1
    24    19    20   ar
    25    10    11    1
    26    11    12    1
    27     4     5   ar
    28     5     6   ar
    29    31    32   ar
    30    32    33   ar
    31    33    34   ar
    32    34    35   ar
    33    35    36   ar
    34    36    39    1
    35    39    40   ar
    36    40    41   ar
    37    41    42   ar
    38    42    43   ar
    39    43    44   ar
    40    36    37   ar
    41    37    38   ar
    42    38    30   ar
    43     6     1   ar
    44    38    33   ar
    45    12     7    1
    46    44    39   ar
    47    20    15   ar
    48    27    28    1
    49    23    24    1
@<TRIPOS>MOLECULE
*****
 44 49 0 0 0
SMALL
GASTEIGER

@<TRIPOS>ATOM
      1 C          62.2760   86.4894   15.4029 C.ar    1  UNL1        0.0702
      2 C          61.2390   85.7094   14.8674 C.ar    1  UNL1        0.0191
      3 C          61.5277   84.4892   14.2550 C.ar    1  UNL1        0.0356
      4 C          62.8592   84.0520   14.1773 C.ar    1  UNL1        0.1318
      5 N          63.8486   84.8287   14.6968 N.ar    1  UNL1       -0.2279
      6 C          63.5926   86.0271   15.2835 C.ar    1  UNL1        0.1149
      7 N          63.1861   82.7643   13.6266 N.pl3   1  UNL1       -0.2932
      8 C          63.2120   82.5322   12.1776 C.3     1  UNL1        0.0923
      9 C          62.0078   81.6703   11.7461 C.3     1  UNL1        0.0252
     10 C          61.3287   80.9627   12.9420 C.3     1  UNL1        0.0472
     11 C          62.3902   80.4333   13.9287 C.3     1  UNL1        0.0252
     12 C          63.2279   81.5910   14.5114 C.3     1  UNL1        0.0923
     13 C          60.3903   79.8399   12.4613 C.3     1  UNL1        0.2054
     14 O          59.0233   80.2461   12.5537 O.3     1  UNL1       -0.4755
     15 C          58.5039   81.4582   12.0651 C.ar    1  UNL1        0.1388
     16 C          58.2510   81.5639   10.6934 C.ar    1  UNL1        0.0369
     17 C          57.7327   82.7443   10.1571 C.ar    1  UNL1        0.0033
     18 C          57.4609   83.8330   10.9877 C.ar    1  UNL1        0.0066
     19 C          57.7020   83.7513   12.3687 C.ar    1  UNL1        0.0785
     20 C          58.2324   82.5620   12.9003 C.ar    1  UNL1        0.0433
     21 C          57.4034   84.9018   13.2503 C.2     1  UNL1        0.3381
     22 O          56.7251   85.8751   12.8234 O.2     1  UNL1       -0.2451
     23 O          57.8673   84.9201   14.5620 O.3     1  UNL1       -0.4771
     24 H          57.6721   85.7044   15.1725 H       1  UNL1        0.2954
     25 C          62.8909   88.8833   15.9808 C.2     1  UNL1        0.2839
     26 O          63.1471   89.5204   17.0364 O.2     1  UNL1       -0.2665
     27 N          62.0228   87.7447   16.0549 N.am    1  UNL1       -0.2766
     28 H          61.2035   87.8071   16.7008 H       1  UNL1        0.1553
     29 C          65.5181   90.7666   15.5480 C.3     1  UNL1        0.0345
     30 C          64.5944   90.1831   14.5216 C.ar    1  UNL1        0.0202
     31 C          63.4722   89.3624   14.7092 C.ar    1  UNL1        0.1946
     32 O          62.9848   88.9958   13.5365 O.2     1  UNL1       -0.4492
     33 C          63.7225   89.5423   12.6016 C.ar    1  UNL1        0.1452
     34 C          63.5850   89.3999   11.2258 C.ar    1  UNL1        0.0375
     35 C          64.5231   90.0415   10.3985 C.ar    1  UNL1        0.0031
     36 C          65.5700   90.8283   10.9536 C.ar    1  UNL1        0.0002
     37 C          65.6598   90.9613   12.3616 C.ar    1  UNL1        0.0028
     38 C          64.7227   90.2945   13.1513 C.ar    1  UNL1        0.0337
     39 C          66.5610   91.4999   10.0687 C.ar    1  UNL1        0.0000
     40 C          67.7603   90.8518    9.7121 C.ar    1  UNL1        0.0000
     41 C          68.7011   91.4940    8.9016 C.ar    1  UNL1        0.0000
     42 C          68.4579   92.7865    8.4340 C.ar    1  UNL1        0.0000
     43 C          67.2710   93.4387    8.7723 C.ar    1  UNL1        0.0000
     44 C          66.3258   92.8016    9.5816 C.ar    1  UNL1        0.0000
@<TRIPOS>BOND
     1    29    30    1
     2    30    31   ar
     3    31    25    1
     4    25    26    2
     5    25    27   am
     6    27     1    1
     7     1     2   ar
     8     2     3   ar
     9     3     4   ar
    10     4     7    1
    11     7     8    1
    12     8     9    1
    13     9    10    1
    14    10    13    1
    15    13    14    1
    16    14    15    1
    17    15    16   ar
    18    16    17   ar
    19    17    18   ar
    20    18    19   ar
    21    19    21    1
    22    21    22    2
    23    21    23    1
    24    19    20   ar
    25    10    11    1
    26    11    12    1
    27     4     5   ar
    28     5     6   ar
    29    31    32   ar
    30    32    33   ar
    31    33    34   ar
    32    34    35   ar
    33    35    36   ar
    34    36    39    1
    35    39    40   ar
    36    40    41   ar
    37    41    42   ar
    38    42    43   ar
    39    43    44   ar
    40    36    37   ar
    41    37    38   ar
    42    38    30   ar
    43     6     1   ar
    44    38    33   ar
    45    12     7    1
    46    44    39   ar
    47    20    15   ar
    48    27    28    1
    49    23    24    1
@<TRIPOS>MOLECULE
*****
 44 49 0 0 0
SMALL
GASTEIGER

@<TRIPOS>ATOM
      1 C          62.4314   86.5187   15.5761 C.ar    1  UNL1        0.0702
      2 C          63.7553   86.1583   15.2795 C.ar    1  UNL1        0.0191
      3 C          64.0277   84.9217   14.6931 C.ar    1  UNL1        0.0356
      4 C          62.9704   84.0441   14.4060 C.ar    1  UNL1        0.1318
      5 N          61.6959   84.4122   14.7095 N.ar    1  UNL1       -0.2279
      6 C          61.4087   85.6042   15.2948 C.ar    1  UNL1        0.1149
      7 N          63.2046   82.7973   13.7287 N.pl3   1  UNL1       -0.2932
      8 C          63.0199   82.6637   12.2789 C.3     1  UNL1        0.0923
      9 C          61.7595   81.8305   11.9685 C.3     1  UNL1        0.0252
     10 C          61.2540   81.0424   13.1996 C.3     1  UNL1        0.0472
     11 C          62.4423   80.4497   13.9852 C.3     1  UNL1        0.0252
     12 C          63.3641   81.5670   14.5176 C.3     1  UNL1        0.0923
     13 C          60.2475   79.9528   12.7848 C.3     1  UNL1        0.2054
     14 O          58.9386   80.5043   12.6261 O.3     1  UNL1       -0.4755
     15 C          58.5067   81.2599   11.5216 C.ar    1  UNL1        0.1388
     16 C          57.9575   82.5243   11.7596 C.ar    1  UNL1        0.0369
     17 C          57.5158   83.3165   10.6980 C.ar    1  UNL1        0.0033
     18 C          57.6190   82.8526    9.3853 C.ar    1  UNL1        0.0066
     19 C          58.1701   81.5888    9.1191 C.ar    1  UNL1        0.0785
     20 C          58.6048   80.7929   10.1942 C.ar    1  UNL1        0.0433
     21 C          58.2894   81.1021    7.7266 C.2     1  UNL1        0.3381
     22 O          57.4353   80.3046    7.2528 O.2     1  UNL1       -0.2451
     23 O          59.3458   81.5219    6.9242 O.3     1  UNL1       -0.4771
     24 H          59.4392   81.1916    5.9712 H       1  UNL1        0.2954
     25 C          62.9177   88.9628   16.0583 C.2     1  UNL1        0.2839
     26 O          63.1201   89.6573   17.0892 O.2     1  UNL1       -0.2665
     27 N          62.1040   87.7874   16.1664 N.am    1  UNL1       -0.2766
     28 H          61.2689   87.8376   16.7928 H       1  UNL1        0.1553
     29 C          65.5455   90.8372   15.5916 C.3     1  UNL1        0.0345
     30 C          64.6250   90.2307   14.5757 C.ar    1  UNL1        0.0202
     31 C          63.5026   89.4138   14.7781 C.ar    1  UNL1        0.1946
     32 O          63.0188   89.0211   13.6124 O.2     1  UNL1       -0.4492
     33 C          63.7590   89.5470   12.6678 C.ar    1  UNL1        0.1452
     34 C          63.6257   89.3741   11.2951 C.ar    1  UNL1        0.0375
     35 C          64.5659   89.9976   10.4565 C.ar    1  UNL1        0.0031
     36 C          65.6109   90.7970   10.9971 C.ar    1  UNL1        0.0002
     37 C          65.6965   90.9612   12.4021 C.ar    1  UNL1        0.0028
     38 C          64.7573   90.3117   13.2036 C.ar    1  UNL1        0.0337
     39 C          66.6042   91.4493   10.1005 C.ar    1  UNL1        0.0000
     40 C          66.3599   92.7320    9.5708 C.ar    1  UNL1        0.0000
     41 C          67.2825   93.3323    8.7088 C.ar    1  UNL1        0.0000
     42 C          68.4598   92.6649    8.3670 C.ar    1  UNL1        0.0000
     43 C          68.7196   91.3969    8.8896 C.ar    1  UNL1        0.0000
     44 C          67.8016   90.7916    9.7529 C.ar    1  UNL1        0.0000
@<TRIPOS>BOND
     1    29    30    1
     2    30    31   ar
     3    31    25    1
     4    25    26    2
     5    25    27   am
     6    27     1    1
     7     1     2   ar
     8     2     3   ar
     9     3     4   ar
    10     4     7    1
    11     7     8    1
    12     8     9    1
    13     9    10    1
    14    10    13    1
    15    13    14    1
    16    14    15    1
    17    15    16   ar
    18    16    17   ar
    19    17    18   ar
    20    18    19   ar
    21    19    21    1
    22    21    22    2
    23    21    23    1
    24    19    20   ar
    25    10    11    1
    26    11    12    1
    27     4     5   ar
    28     5     6   ar
    29    31    32   ar
    30    32    33   ar
    31    33    34   ar
    32    34    35   ar
    33    35    36   ar
    34    36    39    1
    35    39    40   ar
    36    40    41   ar
    37    41    42   ar
    38    42    43   ar
    39    43    44   ar
    40    36    37   ar
    41    37    38   ar
    42    38    30   ar
    43     6     1   ar
    44    38    33   ar
    45    12     7    1
    46    44    39   ar
    47    20    15   ar
    48    27    28    1
    49    23    24    1
@<TRIPOS>MOLECULE
*****
 44 49 0 0 0
SMALL
GASTEIGER

@<TRIPOS>ATOM
      1 C          60.2777   86.2280   13.8914 C.ar    1  UNL1        0.0702
      2 C          61.0481   85.1398   13.4526 C.ar    1  UNL1        0.0191
      3 C          60.6273   84.3822   12.3588 C.ar    1  UNL1        0.0356
      4 C          59.4304   84.7154   11.7057 C.ar    1  UNL1        0.1318
      5 N          58.6964   85.7702   12.1539 N.ar    1  UNL1       -0.2279
      6 C          59.0784   86.5119   13.2261 C.ar    1  UNL1        0.1149
      7 N          59.0070   84.0087   10.5269 N.pl3   1  UNL1       -0.2932
      8 C          57.9872   82.9550   10.5873 C.3     1  UNL1        0.0923
      9 C          58.6293   81.5680   10.3790 C.3     1  UNL1        0.0252
     10 C          60.0549   81.6597    9.7862 C.3     1  UNL1        0.0472
     11 C          60.1168   82.7515    8.6977 C.3     1  UNL1        0.0252
     12 C          59.7884   84.1388    9.2885 C.3     1  UNL1        0.0923
     13 C          60.5197   80.2937    9.2473 C.3     1  UNL1        0.2054
     14 O          61.6495   79.8162    9.9807 O.3     1  UNL1       -0.4755
     15 C          62.4228   80.5854   10.8683 C.ar    1  UNL1        0.1388
     16 C          63.4896   81.3243   10.3459 C.ar    1  UNL1        0.0369
     17 C          64.2871   82.1069   11.1831 C.ar    1  UNL1        0.0033
     18 C          64.0259   82.1596   12.5536 C.ar    1  UNL1        0.0066
     19 C          62.9586   81.4305   13.1025 C.ar    1  UNL1        0.0785
     20 C          62.1651   80.6377   12.2541 C.ar    1  UNL1        0.0433
     21 C          62.6754   81.4954   14.5537 C.2     1  UNL1        0.3381
     22 O          62.0547   82.4791   15.0404 O.2     1  UNL1       -0.2451
     23 O          63.0903   80.4690   15.3965 O.3     1  UNL1       -0.4771
     24 H          62.9053   80.5055   16.3918 H       1  UNL1        0.2954
     25 C          61.9788   87.6353   15.1437 C.2     1  UNL1        0.2839
     26 O          62.5573   87.5716   16.2606 O.2     1  UNL1       -0.2665
     27 N          60.6804   87.0439   15.0038 N.am    1  UNL1       -0.2766
     28 H          60.0207   87.1382   15.8089 H       1  UNL1        0.1553
     29 C          64.4541   89.7511   15.3254 C.3     1  UNL1        0.0345
     30 C          63.7106   89.2683   14.1166 C.ar    1  UNL1        0.0202
     31 C          62.6545   88.3481   14.0392 C.ar    1  UNL1        0.1946
     32 O          62.3394   88.1340   12.7736 O.2     1  UNL1       -0.4492
     33 C          63.1252   88.8722   12.0291 C.ar    1  UNL1        0.1452
     34 C          63.1588   88.9362   10.6410 C.ar    1  UNL1        0.0375
     35 C          64.1219   89.7661   10.0413 C.ar    1  UNL1        0.0031
     36 C          65.0222   90.5316   10.8329 C.ar    1  UNL1        0.0002
     37 C          64.9387   90.4498   12.2452 C.ar    1  UNL1        0.0028
     38 C          63.9832   89.6010   12.8045 C.ar    1  UNL1        0.0337
     39 C          66.0415   91.4039   10.1877 C.ar    1  UNL1        0.0000
     40 C          65.7467   92.7476    9.8819 C.ar    1  UNL1        0.0000
     41 C          66.6966   93.5579    9.2532 C.ar    1  UNL1        0.0000
     42 C          67.9513   93.0420    8.9249 C.ar    1  UNL1        0.0000
     43 C          68.2610   91.7151    9.2283 C.ar    1  UNL1        0.0000
     44 C          67.3158   90.8999    9.8579 C.ar    1  UNL1        0.0000
@<TRIPOS>BOND
     1    29    30    1
     2    30    31   ar
     3    31    25    1
     4    25    26    2
     5    25    27   am
     6    27     1    1
     7     1     2   ar
     8     2     3   ar
     9     3     4   ar
    10     4     7    1
    11     7     8    1
    12     8     9    1
    13     9    10    1
    14    10    13    1
    15    13    14    1
    16    14    15    1
    17    15    16   ar
    18    16    17   ar
    19    17    18   ar
    20    18    19   ar
    21    19    21    1
    22    21    22    2
    23    21    23    1
    24    19    20   ar
    25    10    11    1
    26    11    12    1
    27     4     5   ar
    28     5     6   ar
    29    31    32   ar
    30    32    33   ar
    31    33    34   ar
    32    34    35   ar
    33    35    36   ar
    34    36    39    1
    35    39    40   ar
    36    40    41   ar
    37    41    42   ar
    38    42    43   ar
    39    43    44   ar
    40    36    37   ar
    41    37    38   ar
    42    38    30   ar
    43     6     1   ar
    44    38    33   ar
    45    12     7    1
    46    44    39   ar
    47    20    15   ar
    48    27    28    1
    49    23    24    1
@<TRIPOS>MOLECULE
*****
 44 49 0 0 0
SMALL
GASTEIGER

@<TRIPOS>ATOM
      1 C          61.2881   88.2661    9.6981 C.ar    1  UNL1        0.0702
      2 C          62.5283   88.9123    9.8195 C.ar    1  UNL1        0.0191
      3 C          63.2045   88.9021   11.0402 C.ar    1  UNL1        0.0356
      4 C          62.6343   88.2446   12.1415 C.ar    1  UNL1        0.1318
      5 N          61.4274   87.6315   12.0018 N.ar    1  UNL1       -0.2279
      6 C          60.7440   87.6420   10.8277 C.ar    1  UNL1        0.1149
      7 N          63.3387   88.1440   13.3913 N.pl3   1  UNL1       -0.2932
      8 C          64.1900   86.9899   13.7030 C.3     1  UNL1        0.0923
      9 C          63.5230   86.0981   14.7703 C.3     1  UNL1        0.0252
     10 C          62.3674   86.8182   15.5040 C.3     1  UNL1        0.0472
     11 C          62.7459   88.2849   15.7970 C.3     1  UNL1        0.0252
     12 C          62.9970   89.0621   14.4876 C.3     1  UNL1        0.0923
     13 C          61.9730   86.0660   16.7889 C.3     1  UNL1        0.2054
     14 O          60.8750   85.1845   16.5446 O.3     1  UNL1       -0.4755
     15 C          60.2089   85.0423   15.3144 C.ar    1  UNL1        0.1388
     16 C          60.6803   84.0805   14.4146 C.ar    1  UNL1        0.0369
     17 C          60.0534   83.8967   13.1806 C.ar    1  UNL1        0.0033
     18 C          58.9467   84.6733   12.8326 C.ar    1  UNL1        0.0066
     19 C          58.4513   85.6428   13.7195 C.ar    1  UNL1        0.0785
     20 C          59.0934   85.8282   14.9570 C.ar    1  UNL1        0.0433
     21 C          57.2714   86.4582   13.3546 C.2     1  UNL1        0.3381
     22 O          57.3183   87.7164   13.4221 O.2     1  UNL1       -0.2451
     23 O          56.0971   85.8436   12.9310 O.3     1  UNL1       -0.4771
     24 H          55.2824   86.3922   12.6829 H       1  UNL1        0.2954
     25 C          60.3032   87.0501    7.6996 C.2     1  UNL1        0.2839
     26 O          60.4750   87.0753    6.4522 O.2     1  UNL1       -0.2665
     27 N          60.5644   88.2390    8.4568 N.am    1  UNL1       -0.2766
     28 H          60.2901   89.1515    8.0274 H       1  UNL1        0.1553
     29 C          62.0406   84.6059    8.9819 C.3     1  UNL1        0.0345
     30 C          60.5531   84.7445    8.8583 C.ar    1  UNL1        0.0202
     31 C          59.8071   85.8027    8.3180 C.ar    1  UNL1        0.1946
     32 O          58.5163   85.5685    8.4795 O.2     1  UNL1       -0.4492
     33 C          58.3859   84.4134    9.0840 C.ar    1  UNL1        0.1452
     34 C          57.2051   83.7931    9.4752 C.ar    1  UNL1        0.0375
     35 C          57.2976   82.5681   10.1584 C.ar    1  UNL1        0.0031
     36 C          58.5618   81.9728   10.4241 C.ar    1  UNL1        0.0002
     37 C          59.7388   82.6318    9.9895 C.ar    1  UNL1        0.0028
     38 C          59.6088   83.8551    9.3316 C.ar    1  UNL1        0.0337
     39 C          58.6489   80.6774   11.1525 C.ar    1  UNL1        0.0000
     40 C          58.1789   79.4880   10.5608 C.ar    1  UNL1        0.0000
     41 C          58.2385   78.2768   11.2564 C.ar    1  UNL1        0.0000
     42 C          58.7694   78.2346   12.5466 C.ar    1  UNL1        0.0000
     43 C          59.2461   79.4030   13.1431 C.ar    1  UNL1        0.0000
     44 C          59.1903   80.6172   12.4525 C.ar    1  UNL1        0.0000
@<TRIPOS>BOND
     1    29    30    1
     2    30    31   ar
     3    31    25    1
     4    25    26    2
     5    25    27   am
     6    27     1    1
     7     1     2   ar
     8     2     3   ar
     9     3     4   ar
    10     4     7    1
    11     7     8    1
    12     8     9    1
    13     9    10    1
    14    10    13    1
    15    13    14    1
    16    14    15    1
    17    15    16   ar
    18    16    17   ar
    19    17    18   ar
    20    18    19   ar
    21    19    21    1
    22    21    22    2
    23    21    23    1
    24    19    20   ar
    25    10    11    1
    26    11    12    1
    27     4     5   ar
    28     5     6   ar
    29    31    32   ar
    30    32    33   ar
    31    33    34   ar
    32    34    35   ar
    33    35    36   ar
    34    36    39    1
    35    39    40   ar
    36    40    41   ar
    37    41    42   ar
    38    42    43   ar
    39    43    44   ar
    40    36    37   ar
    41    37    38   ar
    42    38    30   ar
    43     6     1   ar
    44    38    33   ar
    45    12     7    1
    46    44    39   ar
    47    20    15   ar
    48    27    28    1
    49    23    24    1
@<TRIPOS>MOLECULE
*****
 44 49 0 0 0
SMALL
GASTEIGER

@<TRIPOS>ATOM
      1 C          60.8402   80.5298   12.5262 C.ar    1  UNL1        0.0702
      2 C          61.5818   80.5992   11.3364 C.ar    1  UNL1        0.0191
      3 C          60.9847   81.0747   10.1681 C.ar    1  UNL1        0.0356
      4 C          59.6407   81.4786   10.1930 C.ar    1  UNL1        0.1318
      5 N          58.9397   81.3951   11.3565 N.ar    1  UNL1       -0.2279
      6 C          59.4957   80.9209   12.5018 C.ar    1  UNL1        0.1149
      7 N          59.0160   82.0490    9.0299 N.pl3   1  UNL1       -0.2932
      8 C          59.6883   82.0629    7.7254 C.3     1  UNL1        0.0923
      9 C          60.1394   83.4931    7.3644 C.3     1  UNL1        0.0252
     10 C          59.4493   84.5683    8.2361 C.3     1  UNL1        0.0472
     11 C          57.9614   84.2181    8.4462 C.3     1  UNL1        0.0252
     12 C          57.8105   82.8748    9.1907 C.3     1  UNL1        0.0923
     13 C          59.6215   85.9714    7.6247 C.3     1  UNL1        0.2054
     14 O          60.9221   86.4922    7.9070 O.3     1  UNL1       -0.4755
     15 C          61.4128   86.7937    9.1899 C.ar    1  UNL1        0.1388
     16 C          61.4202   85.7769   10.1506 C.ar    1  UNL1        0.0369
     17 C          61.8994   86.0225   11.4389 C.ar    1  UNL1        0.0033
     18 C          62.3774   87.2888   11.7807 C.ar    1  UNL1        0.0066
     19 C          62.3846   88.3256   10.8337 C.ar    1  UNL1        0.0785
     20 C          61.8922   88.0730    9.5406 C.ar    1  UNL1        0.0433
     21 C          62.9017   89.6648   11.1933 C.2     1  UNL1        0.3381
     22 O          63.7241   90.2554   10.4419 O.2     1  UNL1       -0.2451
     23 O          62.4834   90.2874   12.3652 O.3     1  UNL1       -0.4771
     24 H          62.8343   91.2021   12.6229 H       1  UNL1        0.2954
     25 C          62.5002   80.7086   14.4381 C.2     1  UNL1        0.2839
     26 O          63.4453   80.0050   14.8827 O.2     1  UNL1       -0.2665
     27 N          61.4189   80.0607   13.7551 N.am    1  UNL1       -0.2766
     28 H          61.0980   79.1393   14.1298 H       1  UNL1        0.1553
     29 C          65.0147   82.7505   14.0577 C.3     1  UNL1        0.0345
     30 C          63.6202   83.0451   14.5222 C.ar    1  UNL1        0.0202
     31 C          62.5362   82.1674   14.6728 C.ar    1  UNL1        0.1946
     32 O          61.4573   82.8450   15.0251 O.2     1  UNL1       -0.4492
     33 C          61.7858   84.1098   15.1211 C.ar    1  UNL1        0.1452
     34 C          60.9536   85.1770   15.4383 C.ar    1  UNL1        0.0375
     35 C          61.5077   86.4690   15.4388 C.ar    1  UNL1        0.0031
     36 C          62.8835   86.6745   15.1420 C.ar    1  UNL1        0.0002
     37 C          63.6988   85.5545   14.8431 C.ar    1  UNL1        0.0028
     38 C          63.1098   84.2899   14.8333 C.ar    1  UNL1        0.0337
     39 C          63.4593   88.0473   15.1407 C.ar    1  UNL1        0.0000
     40 C          64.5449   88.3697   14.3021 C.ar    1  UNL1        0.0000
     41 C          65.1005   89.6525   14.3207 C.ar    1  UNL1        0.0000
     42 C          64.5802   90.6296   15.1710 C.ar    1  UNL1        0.0000
     43 C          63.5001   90.3276   16.0020 C.ar    1  UNL1        0.0000
     44 C          62.9394   89.0471   15.9874 C.ar    1  UNL1        0.0000
@<TRIPOS>BOND
     1    29    30    1
     2    30    31   ar
     3    31    25    1
     4    25    26    2
     5    25    27   am
     6    27     1    1
     7     1     2   ar
     8     2     3   ar
     9     3     4   ar
    10     4     7    1
    11     7     8    1
    12     8     9    1
    13     9    10    1
    14    10    13    1
    15    13    14    1
    16    14    15    1
    17    15    16   ar
    18    16    17   ar
    19    17    18   ar
    20    18    19   ar
    21    19    21    1
    22    21    22    2
    23    21    23    1
    24    19    20   ar
    25    10    11    1
    26    11    12    1
    27     4     5   ar
    28     5     6   ar
    29    31    32   ar
    30    32    33   ar
    31    33    34   ar
    32    34    35   ar
    33    35    36   ar
    34    36    39    1
    35    39    40   ar
    36    40    41   ar
    37    41    42   ar
    38    42    43   ar
    39    43    44   ar
    40    36    37   ar
    41    37    38   ar
    42    38    30   ar
    43     6     1   ar
    44    38    33   ar
    45    12     7    1
    46    44    39   ar
    47    20    15   ar
    48    27    28    1
    49    23    24    1
@<TRIPOS>MOLECULE
*****
 44 49 0 0 0
SMALL
GASTEIGER

@<TRIPOS>ATOM
      1 C          61.4752   86.2411    9.0850 C.ar    1  UNL1        0.0702
      2 C          62.5761   85.6869    8.4132 C.ar    1  UNL1        0.0191
      3 C          62.9541   84.3669    8.6624 C.ar    1  UNL1        0.0356
      4 C          62.2278   83.6024    9.5889 C.ar    1  UNL1        0.1318
      5 N          61.1688   84.1636   10.2335 N.ar    1  UNL1       -0.2279
      6 C          60.7925   85.4512   10.0185 C.ar    1  UNL1        0.1149
      7 N          62.5376   82.2157    9.8111 N.pl3   1  UNL1       -0.2932
      8 C          61.4987   81.1799    9.7692 C.3     1  UNL1        0.0923
      9 C          61.2023   80.6532   11.1883 C.3     1  UNL1        0.0252
     10 C          62.3028   81.0398   12.2041 C.3     1  UNL1        0.0472
     11 C          63.6999   80.8995   11.5646 C.3     1  UNL1        0.0252
     12 C          63.8522   81.8491   10.3577 C.3     1  UNL1        0.0923
     13 C          62.1828   80.2074   13.4945 C.3     1  UNL1        0.2054
     14 O          62.3961   81.0244   14.6475 O.3     1  UNL1       -0.4755
     15 C          62.7238   82.3917   14.6218 C.ar    1  UNL1        0.1388
     16 C          64.0763   82.7467   14.5833 C.ar    1  UNL1        0.0369
     17 C          64.4560   84.0900   14.5537 C.ar    1  UNL1        0.0033
     18 C          63.4861   85.0942   14.5619 C.ar    1  UNL1        0.0066
     19 C          62.1215   84.7644   14.5963 C.ar    1  UNL1        0.0785
     20 C          61.7471   83.4093   14.6347 C.ar    1  UNL1        0.0433
     21 C          61.0936   85.8291   14.5938 C.2     1  UNL1        0.3381
     22 O          60.7589   86.3969   15.6686 O.2     1  UNL1       -0.2451
     23 O          60.4866   86.2161   13.4030 O.3     1  UNL1       -0.4771
     24 H          59.7789   86.9407   13.3908 H       1  UNL1        0.2954
     25 C          60.9368   88.5956    9.8656 C.2     1  UNL1        0.2839
     26 O          59.9112   89.3259    9.8928 O.2     1  UNL1       -0.2665
     27 N          61.0423   87.5909    8.8484 N.am    1  UNL1       -0.2766
     28 H          60.6920   87.8350    7.8945 H       1  UNL1        0.1553
     29 C          63.6385   90.3945    9.5477 C.3     1  UNL1        0.0345
     30 C          63.1680   89.5965   10.7262 C.ar    1  UNL1        0.0202
     31 C          61.9989   88.8337   10.8655 C.ar    1  UNL1        0.1946
     32 O          61.9195   88.3569   12.0957 O.2     1  UNL1       -0.4492
     33 C          62.9771   88.7597   12.7561 C.ar    1  UNL1        0.1452
     34 C          63.2850   88.5139   14.0891 C.ar    1  UNL1        0.0375
     35 C          64.4574   89.0864   14.6124 C.ar    1  UNL1        0.0031
     36 C          65.3120   89.8777   13.7959 C.ar    1  UNL1        0.0002
     37 C          64.9681   90.0858   12.4370 C.ar    1  UNL1        0.0028
     38 C          63.7872   89.5179   11.9579 C.ar    1  UNL1        0.0337
     39 C          66.5489   90.4833   14.3611 C.ar    1  UNL1        0.0000
     40 C          66.5226   91.1374   15.6090 C.ar    1  UNL1        0.0000
     41 C          67.6795   91.7274   16.1264 C.ar    1  UNL1        0.0000
     42 C          68.8762   91.6703   15.4102 C.ar    1  UNL1        0.0000
     43 C          68.9200   91.0193   14.1762 C.ar    1  UNL1        0.0000
     44 C          67.7668   90.4264   13.6538 C.ar    1  UNL1        0.0000
@<TRIPOS>BOND
     1    29    30    1
     2    30    31   ar
     3    31    25    1
     4    25    26    2
     5    25    27   am
     6    27     1    1
     7     1     2   ar
     8     2     3   ar
     9     3     4   ar
    10     4     7    1
    11     7     8    1
    12     8     9    1
    13     9    10    1
    14    10    13    1
    15    13    14    1
    16    14    15    1
    17    15    16   ar
    18    16    17   ar
    19    17    18   ar
    20    18    19   ar
    21    19    21    1
    22    21    22    2
    23    21    23    1
    24    19    20   ar
    25    10    11    1
    26    11    12    1
    27     4     5   ar
    28     5     6   ar
    29    31    32   ar
    30    32    33   ar
    31    33    34   ar
    32    34    35   ar
    33    35    36   ar
    34    36    39    1
    35    39    40   ar
    36    40    41   ar
    37    41    42   ar
    38    42    43   ar
    39    43    44   ar
    40    36    37   ar
    41    37    38   ar
    42    38    30   ar
    43     6     1   ar
    44    38    33   ar
    45    12     7    1
    46    44    39   ar
    47    20    15   ar
    48    27    28    1
    49    23    24    1
