@<TRIPOS>MOLECULE
*****
 46 51 0 0 0
SMALL
GASTEIGER

@<TRIPOS>ATOM
      1 O          -8.4894  -10.3921   31.9741 O.2     1  UNL1       -0.2701
      2 C          -9.3000  -10.7848   31.0905 C.2     1  UNL1        0.2483
      3 N         -10.5920  -10.1647   30.9908 N.am    1  UNL1       -0.2945
      4 H         -11.1319  -10.2774   30.1035 H       1  UNL1        0.1501
      5 C          -8.8909  -11.8705   30.1640 C.ar    1  UNL1        0.0808
      6 C          -9.8547  -12.7898   29.7138 C.ar    1  UNL1        0.0080
      7 C          -9.5085  -13.8072   28.8217 C.ar    1  UNL1        0.0148
      8 C          -8.1930  -13.9211   28.3487 C.ar    1  UNL1        0.0502
      9 C          -7.2277  -13.0049   28.7910 C.ar    1  UNL1        0.0443
     10 C          -7.5682  -11.9856   29.6856 C.ar    1  UNL1        0.1457
     11 F          -6.6097  -11.0916   30.0333 F       1  UNL1       -0.2040
     12 N          -7.8349  -14.9745   27.4341 N.pl3   1  UNL1       -0.3040
     13 C          -6.5251  -15.6353   27.5264 C.3     1  UNL1        0.1122
     14 C          -5.8123  -15.5643   26.1711 C.3     1  UNL1        0.1122
     15 N          -6.7374  -15.8504   25.0620 N.pl3   1  UNL1       -0.3041
     16 C          -8.1052  -16.3027   25.3542 C.3     1  UNL1        0.1122
     17 C          -8.7643  -15.3458   26.3543 C.3     1  UNL1        0.1122
     18 C          -6.3145  -15.6156   23.7051 C.ar    1  UNL1        0.0480
     19 C          -7.2582  -15.3259   22.7044 C.ar    1  UNL1        0.0154
     20 C          -6.8467  -15.1109   21.3855 C.ar    1  UNL1        0.0127
     21 C          -5.4912  -15.1886   21.0516 C.ar    1  UNL1        0.0578
     22 CL         -4.9775  -14.9200   19.3962 Cl      1  UNL1       -0.0822
     23 C          -4.5461  -15.4838   22.0389 C.ar    1  UNL1        0.0127
     24 C          -4.9542  -15.6984   23.3587 C.ar    1  UNL1        0.0154
     25 C         -11.1228   -9.2882   32.0438 C.3     1  UNL1        0.1535
     26 C         -11.7327   -8.0426   31.4292 C.2     1  UNL1        0.2443
     27 O         -12.9708   -7.8423   31.5488 O.2     1  UNL1       -0.2730
     28 N         -10.9698   -7.1450   30.6046 N.am    1  UNL1       -0.2825
     29 H         -11.4878   -6.6108   29.8707 H       1  UNL1        0.1549
     30 C          -9.5454   -6.9764   30.6699 C.ar    1  UNL1        0.0535
     31 C          -8.6975   -7.5757   29.7264 C.ar    1  UNL1        0.0353
     32 C          -7.3149   -7.4118   29.8412 C.ar    1  UNL1        0.1002
     33 N          -6.7967   -6.6923   30.8717 N.ar    1  UNL1       -0.2422
     34 C          -7.5942   -6.1208   31.8128 C.ar    1  UNL1        0.1002
     35 C          -8.9819   -6.2612   31.7343 C.ar    1  UNL1        0.0353
     36 C         -12.1245  -10.0399   32.9561 C.3     1  UNL1        0.0569
     37 C         -12.5186  -11.4010   32.4445 C.ar    1  UNL1       -0.0017
     38 C         -13.2301  -11.6791   31.2803 C.ar    1  UNL1        0.0681
     39 N         -13.3720  -13.0139   31.1182 N.ar    1  UNL1       -0.3523
     40 C         -12.7668  -13.5831   32.1743 C.ar    1  UNL1        0.0563
     41 C         -12.6485  -14.9457   32.4451 C.ar    1  UNL1        0.0170
     42 C         -11.9741  -15.3273   33.6188 C.ar    1  UNL1        0.0015
     43 C         -11.4489  -14.3495   34.4915 C.ar    1  UNL1        0.0001
     44 C         -11.5882  -12.9817   34.1958 C.ar    1  UNL1        0.0012
     45 C         -12.2432  -12.6322   33.0132 C.ar    1  UNL1        0.0131
     46 H         -13.8579  -13.4997   30.3320 H       1  UNL1        0.1660
@<TRIPOS>BOND
     1     1     2    2
     2     2     3   am
     3     3    25    1
     4    25    36    1
     5    36    37    1
     6    37    38   ar
     7    38    39   ar
     8    39    40   ar
     9    40    41   ar
    10    41    42   ar
    11    42    43   ar
    12    43    44   ar
    13    44    45   ar
    14    25    26    1
    15    26    27    2
    16    26    28   am
    17    28    30    1
    18    30    31   ar
    19    31    32   ar
    20    32    33   ar
    21    33    34   ar
    22    34    35   ar
    23     2     5    1
    24     5     6   ar
    25     6     7   ar
    26     7     8   ar
    27     8    12    1
    28    12    13    1
    29    13    14    1
    30    14    15    1
    31    15    18    1
    32    18    19   ar
    33    19    20   ar
    34    20    21   ar
    35    21    22    1
    36    21    23   ar
    37    23    24   ar
    38    15    16    1
    39    16    17    1
    40     8     9   ar
    41     9    10   ar
    42    10    11    1
    43    45    37   ar
    44    35    30   ar
    45    10     5   ar
    46    45    40   ar
    47    17    12    1
    48    24    18   ar
    49     3     4    1
    50    39    46    1
    51    28    29    1
@<TRIPOS>MOLECULE
*****
 46 51 0 0 0
SMALL
GASTEIGER

@<TRIPOS>ATOM
      1 O          -8.1796  -10.6510   31.8299 O.2     1  UNL1       -0.2701
      2 C          -8.9834  -10.9339   30.8993 C.2     1  UNL1        0.2483
      3 N         -10.1836  -10.1603   30.7423 N.am    1  UNL1       -0.2945
      4 H         -10.6850  -10.1982   29.8265 H       1  UNL1        0.1501
      5 C          -8.6598  -12.0527   29.9784 C.ar    1  UNL1        0.0808
      6 C          -9.6884  -12.9098   29.5495 C.ar    1  UNL1        0.0080
      7 C          -9.4226  -13.9559   28.6631 C.ar    1  UNL1        0.0148
      8 C          -8.1240  -14.1614   28.1745 C.ar    1  UNL1        0.0502
      9 C          -7.0942  -13.3076   28.5955 C.ar    1  UNL1        0.0443
     10 C          -7.3541  -12.2599   29.4843 C.ar    1  UNL1        0.1457
     11 F          -6.3338  -11.4286   29.8110 F       1  UNL1       -0.2040
     12 N          -7.8490  -15.2445   27.2658 N.pl3   1  UNL1       -0.3040
     13 C          -6.7348  -15.1581   26.3109 C.3     1  UNL1        0.1122
     14 C          -7.2507  -15.4071   24.8890 C.3     1  UNL1        0.1122
     15 N          -8.2049  -16.5278   24.8523 N.pl3   1  UNL1       -0.3041
     16 C          -8.4228  -17.3372   26.0599 C.3     1  UNL1        0.1122
     17 C          -8.7347  -16.4204   27.2483 C.3     1  UNL1        0.1122
     18 C          -8.9668  -16.7737   23.6547 C.ar    1  UNL1        0.0480
     19 C          -8.4425  -17.5798   22.6293 C.ar    1  UNL1        0.0154
     20 C          -9.1783  -17.8068   21.4623 C.ar    1  UNL1        0.0127
     21 C         -10.4411  -17.2273   21.3048 C.ar    1  UNL1        0.0578
     22 CL        -11.3617  -17.5122   19.8393 Cl      1  UNL1       -0.0822
     23 C         -10.9674  -16.4178   22.3161 C.ar    1  UNL1        0.0127
     24 C         -10.2345  -16.1897   23.4847 C.ar    1  UNL1        0.0154
     25 C         -10.6600   -9.2355   31.7800 C.3     1  UNL1        0.1535
     26 C         -11.4642   -8.1135   31.1512 C.2     1  UNL1        0.2443
     27 O         -12.7092   -8.0701   31.3399 O.2     1  UNL1       -0.2730
     28 N         -10.8757   -7.1680   30.2414 N.am    1  UNL1       -0.2825
     29 H         -11.5012   -6.7445   29.5190 H       1  UNL1        0.1549
     30 C          -9.4851   -6.8122   30.2091 C.ar    1  UNL1        0.0535
     31 C          -9.0603   -5.5084   30.5057 C.ar    1  UNL1        0.0353
     32 C          -7.7009   -5.1945   30.4348 C.ar    1  UNL1        0.1002
     33 N          -6.8005   -6.1425   30.0624 N.ar    1  UNL1       -0.2422
     34 C          -7.1876   -7.4070   29.7470 C.ar    1  UNL1        0.1002
     35 C          -8.5377   -7.7615   29.8050 C.ar    1  UNL1        0.0353
     36 C         -11.4572   -9.9798   32.8806 C.3     1  UNL1        0.0569
     37 C         -12.1219  -11.2460   32.4071 C.ar    1  UNL1       -0.0017
     38 C         -12.9612  -11.3838   31.3044 C.ar    1  UNL1        0.0681
     39 N         -13.3461  -12.6717   31.1590 N.ar    1  UNL1       -0.3523
     40 C         -12.7677  -13.3485   32.1654 C.ar    1  UNL1        0.0563
     41 C         -12.8679  -14.7136   32.4307 C.ar    1  UNL1        0.0170
     42 C         -12.1794  -15.2191   33.5482 C.ar    1  UNL1        0.0015
     43 C         -11.4242  -14.3569   34.3726 C.ar    1  UNL1        0.0001
     44 C         -11.3457  -12.9827   34.0840 C.ar    1  UNL1        0.0012
     45 C         -12.0214  -12.5122   32.9564 C.ar    1  UNL1        0.0131
     46 H         -13.9702  -13.0572   30.4159 H       1  UNL1        0.1660
@<TRIPOS>BOND
     1     1     2    2
     2     2     3   am
     3     3    25    1
     4    25    36    1
     5    36    37    1
     6    37    38   ar
     7    38    39   ar
     8    39    40   ar
     9    40    41   ar
    10    41    42   ar
    11    42    43   ar
    12    43    44   ar
    13    44    45   ar
    14    25    26    1
    15    26    27    2
    16    26    28   am
    17    28    30    1
    18    30    31   ar
    19    31    32   ar
    20    32    33   ar
    21    33    34   ar
    22    34    35   ar
    23     2     5    1
    24     5     6   ar
    25     6     7   ar
    26     7     8   ar
    27     8    12    1
    28    12    13    1
    29    13    14    1
    30    14    15    1
    31    15    18    1
    32    18    19   ar
    33    19    20   ar
    34    20    21   ar
    35    21    22    1
    36    21    23   ar
    37    23    24   ar
    38    15    16    1
    39    16    17    1
    40     8     9   ar
    41     9    10   ar
    42    10    11    1
    43    45    37   ar
    44    35    30   ar
    45    10     5   ar
    46    45    40   ar
    47    17    12    1
    48    24    18   ar
    49     3     4    1
    50    39    46    1
    51    28    29    1
@<TRIPOS>MOLECULE
*****
 46 51 0 0 0
SMALL
GASTEIGER

@<TRIPOS>ATOM
      1 O          -7.8495  -10.3727   31.5770 O.2     1  UNL1       -0.2701
      2 C          -8.7379  -10.7000   30.7429 C.2     1  UNL1        0.2483
      3 N          -9.9572   -9.9435   30.6755 N.am    1  UNL1       -0.2945
      4 H         -10.5464  -10.0230   29.8164 H       1  UNL1        0.1501
      5 C          -8.4931  -11.8525   29.8395 C.ar    1  UNL1        0.0808
      6 C          -7.1884  -12.0991   29.3774 C.ar    1  UNL1        0.0080
      7 C          -6.9195  -13.1898   28.5475 C.ar    1  UNL1        0.0148
      8 C          -7.9468  -14.0671   28.1707 C.ar    1  UNL1        0.0502
      9 C          -9.2499  -13.8289   28.6313 C.ar    1  UNL1        0.0443
     10 C          -9.5253  -12.7374   29.4608 C.ar    1  UNL1        0.1457
     11 F         -10.7905  -12.5890   29.9255 F       1  UNL1       -0.2040
     12 N          -7.6703  -15.1878   27.3093 N.pl3   1  UNL1       -0.3040
     13 C          -6.5256  -15.1610   26.3875 C.3     1  UNL1        0.1122
     14 C          -7.0034  -15.4483   24.9595 C.3     1  UNL1        0.1122
     15 N          -7.9829  -16.5473   24.9317 N.pl3   1  UNL1       -0.3041
     16 C          -8.2571  -17.3081   26.1592 C.3     1  UNL1        0.1122
     17 C          -8.5831  -16.3428   27.3046 C.3     1  UNL1        0.1122
     18 C          -8.7133  -16.8179   23.7200 C.ar    1  UNL1        0.0480
     19 C         -10.0124  -16.3109   23.5425 C.ar    1  UNL1        0.0154
     20 C         -10.7245  -16.5854   22.3710 C.ar    1  UNL1        0.0127
     21 C         -10.1499  -17.3727   21.3685 C.ar    1  UNL1        0.0578
     22 CL        -11.0457  -17.7170   19.9003 Cl      1  UNL1       -0.0822
     23 C          -8.8613  -17.8877   21.5395 C.ar    1  UNL1        0.0127
     24 C          -8.1462  -17.6142   22.7094 C.ar    1  UNL1        0.0154
     25 C         -10.3400   -8.9813   31.7179 C.3     1  UNL1        0.1535
     26 C         -10.7683   -7.6699   31.0872 C.2     1  UNL1        0.2443
     27 O         -11.9967   -7.4075   30.9906 O.2     1  UNL1       -0.2730
     28 N          -9.8255   -6.7703   30.4792 N.am    1  UNL1       -0.2825
     29 H         -10.1730   -6.1661   29.7003 H       1  UNL1        0.1549
     30 C          -8.4324   -6.6862   30.8162 C.ar    1  UNL1        0.0535
     31 C          -7.4385   -7.0792   29.9072 C.ar    1  UNL1        0.0353
     32 C          -6.0950   -7.0096   30.2835 C.ar    1  UNL1        0.1002
     33 N          -5.7569   -6.5820   31.5289 N.ar    1  UNL1       -0.2422
     34 C          -6.7006   -6.2177   32.4371 C.ar    1  UNL1        0.1002
     35 C          -8.0553   -6.2729   32.1003 C.ar    1  UNL1        0.0353
     36 C         -11.4294   -9.5626   32.6540 C.3     1  UNL1        0.0569
     37 C         -11.1397  -10.9585   33.1407 C.ar    1  UNL1       -0.0017
     38 C         -10.0453  -11.3654   33.8996 C.ar    1  UNL1        0.0681
     39 N         -10.1293  -12.6844   34.1842 N.ar    1  UNL1       -0.3523
     40 C         -11.2604  -13.1189   33.6035 C.ar    1  UNL1        0.0563
     41 C         -11.7750  -14.4145   33.6240 C.ar    1  UNL1        0.0170
     42 C         -12.9809  -14.6546   32.9411 C.ar    1  UNL1        0.0015
     43 C         -13.6321  -13.6089   32.2511 C.ar    1  UNL1        0.0001
     44 C         -13.0866  -12.3127   32.2426 C.ar    1  UNL1        0.0012
     45 C         -11.9002  -12.0983   32.9468 C.ar    1  UNL1        0.0131
     46 H          -9.4484  -13.2484   34.7399 H       1  UNL1        0.1660
@<TRIPOS>BOND
     1     1     2    2
     2     2     3   am
     3     3    25    1
     4    25    36    1
     5    36    37    1
     6    37    38   ar
     7    38    39   ar
     8    39    40   ar
     9    40    41   ar
    10    41    42   ar
    11    42    43   ar
    12    43    44   ar
    13    44    45   ar
    14    25    26    1
    15    26    27    2
    16    26    28   am
    17    28    30    1
    18    30    31   ar
    19    31    32   ar
    20    32    33   ar
    21    33    34   ar
    22    34    35   ar
    23     2     5    1
    24     5     6   ar
    25     6     7   ar
    26     7     8   ar
    27     8    12    1
    28    12    13    1
    29    13    14    1
    30    14    15    1
    31    15    18    1
    32    18    19   ar
    33    19    20   ar
    34    20    21   ar
    35    21    22    1
    36    21    23   ar
    37    23    24   ar
    38    15    16    1
    39    16    17    1
    40     8     9   ar
    41     9    10   ar
    42    10    11    1
    43    45    37   ar
    44    35    30   ar
    45    10     5   ar
    46    45    40   ar
    47    17    12    1
    48    24    18   ar
    49     3     4    1
    50    39    46    1
    51    28    29    1
@<TRIPOS>MOLECULE
*****
 46 51 0 0 0
SMALL
GASTEIGER

@<TRIPOS>ATOM
      1 O          -5.0733  -16.4163   26.0266 O.2     1  UNL1       -0.2701
      2 C          -6.1327  -15.7887   25.7512 C.2     1  UNL1        0.2483
      3 N          -6.7044  -15.9085   24.4388 N.am    1  UNL1       -0.2945
      4 H          -7.7048  -15.6392   24.3043 H       1  UNL1        0.1501
      5 C          -6.7716  -14.9523   26.7985 C.ar    1  UNL1        0.0808
      6 C          -6.0429  -13.8972   27.3752 C.ar    1  UNL1        0.0080
      7 C          -6.6229  -13.0753   28.3441 C.ar    1  UNL1        0.0148
      8 C          -7.9498  -13.2809   28.7494 C.ar    1  UNL1        0.0502
      9 C          -8.6833  -14.3293   28.1751 C.ar    1  UNL1        0.0443
     10 C          -8.1071  -15.1566   27.2063 C.ar    1  UNL1        0.1457
     11 F          -8.8805  -16.1163   26.6411 F       1  UNL1       -0.2040
     12 N          -8.5453  -12.4374   29.7535 N.pl3   1  UNL1       -0.3040
     13 C          -9.9901  -12.4920   30.0186 C.3     1  UNL1        0.1122
     14 C         -10.5928  -11.0878   29.8957 C.3     1  UNL1        0.1122
     15 N          -9.7348  -10.0770   30.5360 N.pl3   1  UNL1       -0.3041
     16 C          -8.5618  -10.5049   31.3117 C.3     1  UNL1        0.1122
     17 C          -7.7083  -11.4634   30.4733 C.3     1  UNL1        0.1122
     18 C         -10.0138   -8.6780   30.3356 C.ar    1  UNL1        0.0480
     19 C          -8.9983   -7.8020   29.9144 C.ar    1  UNL1        0.0154
     20 C          -9.2681   -6.4421   29.7328 C.ar    1  UNL1        0.0127
     21 C         -10.5514   -5.9427   29.9752 C.ar    1  UNL1        0.0578
     22 CL        -10.8872   -4.2361   29.7482 Cl      1  UNL1       -0.0822
     23 C         -11.5658   -6.8052   30.4019 C.ar    1  UNL1        0.0127
     24 C         -11.2995   -8.1656   30.5835 C.ar    1  UNL1        0.0154
     25 C          -5.9669  -16.5020   23.3151 C.3     1  UNL1        0.1535
     26 C          -6.5360  -16.0099   21.9979 C.2     1  UNL1        0.2443
     27 O          -6.8274  -14.7905   21.8725 O.2     1  UNL1       -0.2730
     28 N          -6.8748  -16.9089   20.9280 N.am    1  UNL1       -0.2825
     29 H          -7.6421  -16.6170   20.2811 H       1  UNL1        0.1549
     30 C          -6.2852  -18.2016   20.7208 C.ar    1  UNL1        0.0535
     31 C          -6.7734  -19.3387   21.3820 C.ar    1  UNL1        0.0353
     32 C          -6.1538  -20.5737   21.1760 C.ar    1  UNL1        0.1002
     33 N          -5.0741  -20.6666   20.3552 N.ar    1  UNL1       -0.2422
     34 C          -4.5663  -19.5767   19.7208 C.ar    1  UNL1        0.1002
     35 C          -5.1566  -18.3233   19.9002 C.ar    1  UNL1        0.0353
     36 C          -4.4452  -16.2339   23.4304 C.3     1  UNL1        0.0569
     37 C          -3.5831  -17.3769   22.9614 C.ar    1  UNL1       -0.0017
     38 C          -3.7184  -18.7187   23.3082 C.ar    1  UNL1        0.0681
     39 N          -2.7914  -19.4692   22.6715 N.ar    1  UNL1       -0.3523
     40 C          -2.0636  -18.6141   21.9336 C.ar    1  UNL1        0.0563
     41 C          -0.9906  -18.9228   21.0986 C.ar    1  UNL1        0.0170
     42 C          -0.3621  -17.8655   20.4165 C.ar    1  UNL1        0.0015
     43 C          -0.8075  -16.5372   20.5910 C.ar    1  UNL1        0.0001
     44 C          -1.8890  -16.2545   21.4444 C.ar    1  UNL1        0.0012
     45 C          -2.5077  -17.3257   22.0919 C.ar    1  UNL1        0.0131
     46 H          -2.6672  -20.5034   22.7445 H       1  UNL1        0.1660
@<TRIPOS>BOND
     1     1     2    2
     2     2     3   am
     3     3    25    1
     4    25    36    1
     5    36    37    1
     6    37    38   ar
     7    38    39   ar
     8    39    40   ar
     9    40    41   ar
    10    41    42   ar
    11    42    43   ar
    12    43    44   ar
    13    44    45   ar
    14    25    26    1
    15    26    27    2
    16    26    28   am
    17    28    30    1
    18    30    31   ar
    19    31    32   ar
    20    32    33   ar
    21    33    34   ar
    22    34    35   ar
    23     2     5    1
    24     5     6   ar
    25     6     7   ar
    26     7     8   ar
    27     8    12    1
    28    12    13    1
    29    13    14    1
    30    14    15    1
    31    15    18    1
    32    18    19   ar
    33    19    20   ar
    34    20    21   ar
    35    21    22    1
    36    21    23   ar
    37    23    24   ar
    38    15    16    1
    39    16    17    1
    40     8     9   ar
    41     9    10   ar
    42    10    11    1
    43    45    37   ar
    44    35    30   ar
    45    10     5   ar
    46    45    40   ar
    47    17    12    1
    48    24    18   ar
    49     3     4    1
    50    39    46    1
    51    28    29    1
@<TRIPOS>MOLECULE
*****
 46 51 0 0 0
SMALL
GASTEIGER

@<TRIPOS>ATOM
      1 O          -9.1348  -15.3003   28.8034 O.2     1  UNL1       -0.2701
      2 C          -8.5058  -14.4567   28.1071 C.2     1  UNL1        0.2483
      3 N          -8.3055  -13.1285   28.6163 N.am    1  UNL1       -0.2945
      4 H          -7.5561  -12.5387   28.1896 H       1  UNL1        0.1501
      5 C          -7.9741  -14.8642   26.7820 C.ar    1  UNL1        0.0808
      6 C          -6.6062  -15.1620   26.6520 C.ar    1  UNL1        0.0080
      7 C          -6.0788  -15.5733   25.4259 C.ar    1  UNL1        0.0148
      8 C          -6.9096  -15.7090   24.3040 C.ar    1  UNL1        0.0502
      9 C          -8.2757  -15.4172   24.4280 C.ar    1  UNL1        0.0443
     10 C          -8.8088  -15.0031   25.6526 C.ar    1  UNL1        0.1457
     11 F         -10.1460  -14.7923   25.7308 F       1  UNL1       -0.2040
     12 N          -6.3641  -16.1266   23.0381 N.pl3   1  UNL1       -0.3040
     13 C          -6.7252  -17.4281   22.4582 C.3     1  UNL1        0.1122
     14 C          -5.4545  -18.2275   22.1477 C.3     1  UNL1        0.1122
     15 N          -4.4210  -17.3766   21.5346 N.pl3   1  UNL1       -0.3041
     16 C          -4.7465  -15.9931   21.1596 C.3     1  UNL1        0.1122
     17 C          -5.3830  -15.2697   22.3520 C.3     1  UNL1        0.1122
     18 C          -3.0834  -17.8867   21.3747 C.ar    1  UNL1        0.0480
     19 C          -2.0552  -17.0543   20.8992 C.ar    1  UNL1        0.0154
     20 C          -0.7603  -17.5549   20.7327 C.ar    1  UNL1        0.0127
     21 C          -0.4804  -18.8914   21.0334 C.ar    1  UNL1        0.0578
     22 CL          1.1443  -19.5176   20.8222 Cl      1  UNL1       -0.0822
     23 C          -1.4985  -19.7288   21.4996 C.ar    1  UNL1        0.0127
     24 C          -2.7940  -19.2311   21.6681 C.ar    1  UNL1        0.0154
     25 C          -9.0368  -12.6197   29.7847 C.3     1  UNL1        0.1535
     26 C          -9.2978  -11.1332   29.6316 C.2     1  UNL1        0.2443
     27 O         -10.4863  -10.7245   29.5440 O.2     1  UNL1       -0.2730
     28 N          -8.2320  -10.1843   29.4547 N.am    1  UNL1       -0.2825
     29 H          -8.4490   -9.3140   28.9181 H       1  UNL1        0.1549
     30 C          -6.8804  -10.3711   29.9017 C.ar    1  UNL1        0.0535
     31 C          -5.7938  -10.1759   29.0358 C.ar    1  UNL1        0.0353
     32 C          -4.4950  -10.3962   29.5007 C.ar    1  UNL1        0.1002
     33 N          -4.2895  -10.8149   30.7777 N.ar    1  UNL1       -0.2422
     34 C          -5.3254  -11.0343   31.6303 C.ar    1  UNL1        0.1002
     35 C          -6.6396  -10.8260   31.2044 C.ar    1  UNL1        0.0353
     36 C         -10.3410  -13.4195   30.0301 C.3     1  UNL1        0.0569
     37 C         -10.8256  -13.3811   31.4560 C.ar    1  UNL1       -0.0017
     38 C         -10.5203  -12.4172   32.4136 C.ar    1  UNL1        0.0681
     39 N         -11.1601  -12.6826   33.5748 N.ar    1  UNL1       -0.3523
     40 C         -11.8586  -13.8111   33.3649 C.ar    1  UNL1        0.0563
     41 C         -12.6809  -14.4752   34.2742 C.ar    1  UNL1        0.0170
     42 C         -13.3199  -15.6525   33.8455 C.ar    1  UNL1        0.0015
     43 C         -13.1160  -16.1406   32.5365 C.ar    1  UNL1        0.0001
     44 C         -12.2762  -15.4528   31.6423 C.ar    1  UNL1        0.0012
     45 C         -11.6720  -14.2754   32.0876 C.ar    1  UNL1        0.0131
     46 H         -11.1144  -12.1233   34.4553 H       1  UNL1        0.1660
@<TRIPOS>BOND
     1     1     2    2
     2     2     3   am
     3     3    25    1
     4    25    36    1
     5    36    37    1
     6    37    38   ar
     7    38    39   ar
     8    39    40   ar
     9    40    41   ar
    10    41    42   ar
    11    42    43   ar
    12    43    44   ar
    13    44    45   ar
    14    25    26    1
    15    26    27    2
    16    26    28   am
    17    28    30    1
    18    30    31   ar
    19    31    32   ar
    20    32    33   ar
    21    33    34   ar
    22    34    35   ar
    23     2     5    1
    24     5     6   ar
    25     6     7   ar
    26     7     8   ar
    27     8    12    1
    28    12    13    1
    29    13    14    1
    30    14    15    1
    31    15    18    1
    32    18    19   ar
    33    19    20   ar
    34    20    21   ar
    35    21    22    1
    36    21    23   ar
    37    23    24   ar
    38    15    16    1
    39    16    17    1
    40     8     9   ar
    41     9    10   ar
    42    10    11    1
    43    45    37   ar
    44    35    30   ar
    45    10     5   ar
    46    45    40   ar
    47    17    12    1
    48    24    18   ar
    49     3     4    1
    50    39    46    1
    51    28    29    1
@<TRIPOS>MOLECULE
*****
 46 51 0 0 0
SMALL
GASTEIGER

@<TRIPOS>ATOM
      1 O          -5.3763  -16.2581   25.8256 O.2     1  UNL1       -0.2701
      2 C          -6.4758  -15.6613   25.6606 C.2     1  UNL1        0.2483
      3 N          -7.1744  -15.7987   24.4130 N.am    1  UNL1       -0.2945
      4 H          -8.1906  -15.5582   24.3814 H       1  UNL1        0.1501
      5 C          -7.0282  -14.8422   26.7689 C.ar    1  UNL1        0.0808
      6 C          -6.2292  -13.8410   27.3485 C.ar    1  UNL1        0.0080
      7 C          -6.7274  -13.0357   28.3751 C.ar    1  UNL1        0.0148
      8 C          -8.0408  -13.2040   28.8374 C.ar    1  UNL1        0.0502
      9 C          -8.8443  -14.1984   28.2608 C.ar    1  UNL1        0.0443
     10 C          -8.3502  -15.0090   27.2341 C.ar    1  UNL1        0.1457
     11 F          -9.1892  -15.9137   26.6720 F       1  UNL1       -0.2040
     12 N          -8.5518  -12.3779   29.9008 N.pl3   1  UNL1       -0.3040
     13 C          -9.9602  -12.4697   30.3115 C.3     1  UNL1        0.1122
     14 C         -10.6074  -11.0811   30.2571 C.3     1  UNL1        0.1122
     15 N          -9.7142  -10.0501   30.8113 N.pl3   1  UNL1       -0.3041
     16 C          -8.4578  -10.4495   31.4614 C.3     1  UNL1        0.1122
     17 C          -7.6704  -11.3843   30.5360 C.3     1  UNL1        0.1122
     18 C         -10.0471   -8.6582   30.6468 C.ar    1  UNL1        0.0480
     19 C         -11.3435   -8.1967   30.9339 C.ar    1  UNL1        0.0154
     20 C         -11.6681   -6.8477   30.7614 C.ar    1  UNL1        0.0127
     21 C         -10.7044   -5.9480   30.2955 C.ar    1  UNL1        0.0578
     22 CL        -11.1143   -4.2564   30.0784 Cl      1  UNL1       -0.0822
     23 C          -9.4145   -6.3994   30.0000 C.ar    1  UNL1        0.0127
     24 C          -9.0866   -7.7475   30.1724 C.ar    1  UNL1        0.0154
     25 C          -6.5385  -16.3722   23.2189 C.3     1  UNL1        0.1535
     26 C          -7.4888  -16.3074   22.0383 C.2     1  UNL1        0.2443
     27 O          -8.0850  -15.2259   21.7888 O.2     1  UNL1       -0.2730
     28 N          -7.8319  -17.4725   21.2684 N.am    1  UNL1       -0.2825
     29 H          -8.7715  -17.4851   20.8107 H       1  UNL1        0.1549
     30 C          -7.0108  -18.6427   21.1351 C.ar    1  UNL1        0.0535
     31 C          -6.2680  -18.8817   19.9691 C.ar    1  UNL1        0.0353
     32 C          -5.5039  -20.0467   19.8665 C.ar    1  UNL1        0.1002
     33 N          -5.4970  -20.9496   20.8828 N.ar    1  UNL1       -0.2422
     34 C          -6.2259  -20.7541   22.0136 C.ar    1  UNL1        0.1002
     35 C          -7.0035  -19.6021   22.1556 C.ar    1  UNL1        0.0353
     36 C          -5.1818  -15.6884   22.9149 C.3     1  UNL1        0.0569
     37 C          -4.5584  -16.1137   21.6111 C.ar    1  UNL1       -0.0017
     38 C          -4.8383  -15.5998   20.3475 C.ar    1  UNL1        0.0681
     39 N          -4.0645  -16.1940   19.4115 N.ar    1  UNL1       -0.3523
     40 C          -3.3053  -17.0868   20.0688 C.ar    1  UNL1        0.0563
     41 C          -2.3451  -17.9393   19.5255 C.ar    1  UNL1        0.0170
     42 C          -1.6636  -18.8050   20.3997 C.ar    1  UNL1        0.0015
     43 C          -1.9616  -18.8074   21.7798 C.ar    1  UNL1        0.0001
     44 C          -2.9394  -17.9403   22.2992 C.ar    1  UNL1        0.0012
     45 C          -3.5847  -17.0767   21.4118 C.ar    1  UNL1        0.0131
     46 H          -4.0633  -15.9984   18.3857 H       1  UNL1        0.1660
@<TRIPOS>BOND
     1     1     2    2
     2     2     3   am
     3     3    25    1
     4    25    36    1
     5    36    37    1
     6    37    38   ar
     7    38    39   ar
     8    39    40   ar
     9    40    41   ar
    10    41    42   ar
    11    42    43   ar
    12    43    44   ar
    13    44    45   ar
    14    25    26    1
    15    26    27    2
    16    26    28   am
    17    28    30    1
    18    30    31   ar
    19    31    32   ar
    20    32    33   ar
    21    33    34   ar
    22    34    35   ar
    23     2     5    1
    24     5     6   ar
    25     6     7   ar
    26     7     8   ar
    27     8    12    1
    28    12    13    1
    29    13    14    1
    30    14    15    1
    31    15    18    1
    32    18    19   ar
    33    19    20   ar
    34    20    21   ar
    35    21    22    1
    36    21    23   ar
    37    23    24   ar
    38    15    16    1
    39    16    17    1
    40     8     9   ar
    41     9    10   ar
    42    10    11    1
    43    45    37   ar
    44    35    30   ar
    45    10     5   ar
    46    45    40   ar
    47    17    12    1
    48    24    18   ar
    49     3     4    1
    50    39    46    1
    51    28    29    1
@<TRIPOS>MOLECULE
*****
 46 51 0 0 0
SMALL
GASTEIGER

@<TRIPOS>ATOM
      1 O          -9.8386  -10.2418   30.3425 O.2     1  UNL1       -0.2701
      2 C          -8.7211  -10.8212   30.4294 C.2     1  UNL1        0.2483
      3 N          -7.7303  -10.3133   31.3371 N.am    1  UNL1       -0.2945
      4 H          -6.9452  -10.9416   31.6207 H       1  UNL1        0.1501
      5 C          -8.4636  -12.0255   29.6000 C.ar    1  UNL1        0.0808
      6 C          -9.5418  -12.8477   29.2282 C.ar    1  UNL1        0.0080
      7 C          -9.3376  -13.9734   28.4271 C.ar    1  UNL1        0.0148
      8 C          -8.0521  -14.2959   27.9680 C.ar    1  UNL1        0.0502
      9 C          -6.9730  -13.4776   28.3321 C.ar    1  UNL1        0.0443
     10 C          -7.1711  -12.3505   29.1356 C.ar    1  UNL1        0.1457
     11 F          -6.1025  -11.5613   29.4073 F       1  UNL1       -0.2040
     12 N          -7.8410  -15.4607   27.1476 N.pl3   1  UNL1       -0.3040
     13 C          -6.6804  -15.5455   26.2495 C.3     1  UNL1        0.1122
     14 C          -7.1510  -15.8440   24.8214 C.3     1  UNL1        0.1122
     15 N          -8.2064  -16.8705   24.8072 N.pl3   1  UNL1       -0.3041
     16 C          -8.5575  -17.5698   26.0515 C.3     1  UNL1        0.1122
     17 C          -8.8345  -16.5472   27.1596 C.3     1  UNL1        0.1122
     18 C          -8.9318  -17.1273   23.5894 C.ar    1  UNL1        0.0480
     19 C          -8.4918  -18.1163   22.6926 C.ar    1  UNL1        0.0154
     20 C          -9.1900  -18.3552   21.5051 C.ar    1  UNL1        0.0127
     21 C         -10.3300  -17.6059   21.1984 C.ar    1  UNL1        0.0578
     22 CL        -11.2036  -17.9062   19.7073 Cl      1  UNL1       -0.0822
     23 C         -10.7708  -16.6148   22.0806 C.ar    1  UNL1        0.0127
     24 C         -10.0753  -16.3742   23.2693 C.ar    1  UNL1        0.0154
     25 C          -7.8484   -8.9897   31.9641 C.3     1  UNL1        0.1535
     26 C          -7.8226   -9.1227   33.4750 C.2     1  UNL1        0.2443
     27 O          -7.0654   -8.3705   34.1446 O.2     1  UNL1       -0.2730
     28 N          -8.5371  -10.1638   34.1630 N.am    1  UNL1       -0.2825
     29 H          -8.1465  -10.4909   35.0756 H       1  UNL1        0.1549
     30 C          -9.7057  -10.8304   33.6618 C.ar    1  UNL1        0.0535
     31 C         -10.8517  -10.1106   33.2914 C.ar    1  UNL1        0.0353
     32 C         -11.9791  -10.7983   32.8357 C.ar    1  UNL1        0.1002
     33 N         -11.9696  -12.1562   32.7706 N.ar    1  UNL1       -0.2422
     34 C         -10.8811  -12.8792   33.1454 C.ar    1  UNL1        0.1002
     35 C          -9.7336  -12.2297   33.6071 C.ar    1  UNL1        0.0353
     36 C          -6.7601   -8.0168   31.4447 C.3     1  UNL1        0.0569
     37 C          -7.3040   -6.7234   30.8963 C.ar    1  UNL1       -0.0017
     38 C          -6.5650   -5.6166   30.4862 C.ar    1  UNL1        0.0681
     39 N          -7.3826   -4.6478   30.0162 N.ar    1  UNL1       -0.3523
     40 C          -8.6326   -5.1262   30.1350 C.ar    1  UNL1        0.0563
     41 C          -9.8181   -4.4863   29.7755 C.ar    1  UNL1        0.0170
     42 C         -11.0273   -5.1712   29.9917 C.ar    1  UNL1        0.0015
     43 C         -11.0256   -6.4608   30.5664 C.ar    1  UNL1        0.0001
     44 C          -9.8146   -7.0797   30.9246 C.ar    1  UNL1        0.0012
     45 C          -8.6283   -6.3857   30.6788 C.ar    1  UNL1        0.0131
     46 H          -7.0964   -3.7161   29.6414 H       1  UNL1        0.1660
@<TRIPOS>BOND
     1     1     2    2
     2     2     3   am
     3     3    25    1
     4    25    36    1
     5    36    37    1
     6    37    38   ar
     7    38    39   ar
     8    39    40   ar
     9    40    41   ar
    10    41    42   ar
    11    42    43   ar
    12    43    44   ar
    13    44    45   ar
    14    25    26    1
    15    26    27    2
    16    26    28   am
    17    28    30    1
    18    30    31   ar
    19    31    32   ar
    20    32    33   ar
    21    33    34   ar
    22    34    35   ar
    23     2     5    1
    24     5     6   ar
    25     6     7   ar
    26     7     8   ar
    27     8    12    1
    28    12    13    1
    29    13    14    1
    30    14    15    1
    31    15    18    1
    32    18    19   ar
    33    19    20   ar
    34    20    21   ar
    35    21    22    1
    36    21    23   ar
    37    23    24   ar
    38    15    16    1
    39    16    17    1
    40     8     9   ar
    41     9    10   ar
    42    10    11    1
    43    45    37   ar
    44    35    30   ar
    45    10     5   ar
    46    45    40   ar
    47    17    12    1
    48    24    18   ar
    49     3     4    1
    50    39    46    1
    51    28    29    1
@<TRIPOS>MOLECULE
*****
 46 51 0 0 0
SMALL
GASTEIGER

@<TRIPOS>ATOM
      1 O          -8.2905  -14.4458   28.6653 O.2     1  UNL1       -0.2701
      2 C          -7.2979  -13.9628   28.0540 C.2     1  UNL1        0.2483
      3 N          -6.5633  -12.8786   28.6443 N.am    1  UNL1       -0.2945
      4 H          -5.5983  -12.6820   28.2955 H       1  UNL1        0.1501
      5 C          -6.9042  -14.5394   26.7436 C.ar    1  UNL1        0.0808
      6 C          -5.5448  -14.5692   26.3860 C.ar    1  UNL1        0.0080
      7 C          -5.1384  -15.1279   25.1722 C.ar    1  UNL1        0.0148
      8 C          -6.0807  -15.6818   24.2932 C.ar    1  UNL1        0.0502
      9 C          -7.4379  -15.6587   24.6458 C.ar    1  UNL1        0.0443
     10 C          -7.8508  -15.0988   25.8588 C.ar    1  UNL1        0.1457
     11 F          -9.1678  -15.1571   26.1761 F       1  UNL1       -0.2040
     12 N          -5.6618  -16.2517   23.0386 N.pl3   1  UNL1       -0.3040
     13 C          -6.0702  -17.6118   22.6588 C.3     1  UNL1        0.1122
     14 C          -4.8315  -18.4494   22.3210 C.3     1  UNL1        0.1122
     15 N          -3.8705  -17.6841   21.5095 N.pl3   1  UNL1       -0.3041
     16 C          -4.2414  -16.3541   21.0052 C.3     1  UNL1        0.1122
     17 C          -4.7603  -15.4889   22.1594 C.3     1  UNL1        0.1122
     18 C          -2.5520  -18.2167   21.2789 C.ar    1  UNL1        0.0480
     19 C          -2.2241  -19.5163   21.7028 C.ar    1  UNL1        0.0154
     20 C          -0.9400  -20.0266   21.4894 C.ar    1  UNL1        0.0127
     21 C           0.0303  -19.2435   20.8567 C.ar    1  UNL1        0.0578
     22 CL          1.6410  -19.8853   20.5914 Cl      1  UNL1       -0.0822
     23 C          -0.2845  -17.9470   20.4385 C.ar    1  UNL1        0.0127
     24 C          -1.5679  -17.4342   20.6495 C.ar    1  UNL1        0.0154
     25 C          -7.0770  -12.1184   29.7920 C.3     1  UNL1        0.1535
     26 C          -5.9344  -11.4392   30.5229 C.2     1  UNL1        0.2443
     27 O          -4.8244  -11.3097   29.9412 O.2     1  UNL1       -0.2730
     28 N          -6.0339  -11.0506   31.9038 N.am    1  UNL1       -0.2825
     29 H          -5.1496  -11.0283   32.4605 H       1  UNL1        0.1549
     30 C          -7.2601  -10.7551   32.5898 C.ar    1  UNL1        0.0535
     31 C          -7.7696   -9.4488   32.6397 C.ar    1  UNL1        0.0353
     32 C          -8.9506   -9.1970   33.3421 C.ar    1  UNL1        0.1002
     33 N          -9.5892  -10.2088   33.9876 N.ar    1  UNL1       -0.2422
     34 C          -9.1047  -11.4790   33.9751 C.ar    1  UNL1        0.1002
     35 C          -7.9263  -11.7726   33.2845 C.ar    1  UNL1        0.0353
     36 C          -8.1746  -11.1132   29.3612 C.3     1  UNL1        0.0569
     37 C          -9.4905  -11.2996   30.0705 C.ar    1  UNL1       -0.0017
     38 C         -10.0227  -12.4992   30.5363 C.ar    1  UNL1        0.0681
     39 N         -11.2059  -12.2850   31.1546 N.ar    1  UNL1       -0.3523
     40 C         -11.4331  -10.9630   31.0749 C.ar    1  UNL1        0.0563
     41 C         -12.5307  -10.2644   31.5759 C.ar    1  UNL1        0.0170
     42 C         -12.5720   -8.8728   31.3763 C.ar    1  UNL1        0.0015
     43 C         -11.5329   -8.2196   30.6783 C.ar    1  UNL1        0.0001
     44 C         -10.4405   -8.9509   30.1788 C.ar    1  UNL1        0.0012
     45 C         -10.4149  -10.3276   30.4103 C.ar    1  UNL1        0.0131
     46 H         -11.8179  -13.0048   31.5991 H       1  UNL1        0.1660
@<TRIPOS>BOND
     1     1     2    2
     2     2     3   am
     3     3    25    1
     4    25    36    1
     5    36    37    1
     6    37    38   ar
     7    38    39   ar
     8    39    40   ar
     9    40    41   ar
    10    41    42   ar
    11    42    43   ar
    12    43    44   ar
    13    44    45   ar
    14    25    26    1
    15    26    27    2
    16    26    28   am
    17    28    30    1
    18    30    31   ar
    19    31    32   ar
    20    32    33   ar
    21    33    34   ar
    22    34    35   ar
    23     2     5    1
    24     5     6   ar
    25     6     7   ar
    26     7     8   ar
    27     8    12    1
    28    12    13    1
    29    13    14    1
    30    14    15    1
    31    15    18    1
    32    18    19   ar
    33    19    20   ar
    34    20    21   ar
    35    21    22    1
    36    21    23   ar
    37    23    24   ar
    38    15    16    1
    39    16    17    1
    40     8     9   ar
    41     9    10   ar
    42    10    11    1
    43    45    37   ar
    44    35    30   ar
    45    10     5   ar
    46    45    40   ar
    47    17    12    1
    48    24    18   ar
    49     3     4    1
    50    39    46    1
    51    28    29    1
@<TRIPOS>MOLECULE
*****
 46 51 0 0 0
SMALL
GASTEIGER

@<TRIPOS>ATOM
      1 O          -5.1155  -16.3273   25.8918 O.2     1  UNL1       -0.2701
      2 C          -6.2310  -15.7787   25.6757 C.2     1  UNL1        0.2483
      3 N          -6.8816  -15.9744   24.4100 N.am    1  UNL1       -0.2945
      4 H          -7.9047  -15.7751   24.3392 H       1  UNL1        0.1501
      5 C          -6.8516  -14.9549   26.7438 C.ar    1  UNL1        0.0808
      6 C          -6.0977  -13.9356   27.3516 C.ar    1  UNL1        0.0080
      7 C          -6.6595  -13.1258   28.3411 C.ar    1  UNL1        0.0148
      8 C          -7.9928  -13.3076   28.7368 C.ar    1  UNL1        0.0502
      9 C          -8.7514  -14.3201   28.1316 C.ar    1  UNL1        0.0443
     10 C          -8.1935  -15.1352   27.1419 C.ar    1  UNL1        0.1457
     11 F          -8.9897  -16.0584   26.5482 F       1  UNL1       -0.2040
     12 N          -8.5697  -12.4767   29.7620 N.pl3   1  UNL1       -0.3040
     13 C         -10.0092  -12.5355   30.0537 C.3     1  UNL1        0.1122
     14 C         -10.6149  -11.1305   29.9592 C.3     1  UNL1        0.1122
     15 N          -9.7455  -10.1268   30.5953 N.pl3   1  UNL1       -0.3041
     16 C          -8.5578  -10.5631   31.3435 C.3     1  UNL1        0.1122
     17 C          -7.7197  -11.5108   30.4776 C.3     1  UNL1        0.1122
     18 C         -10.0289   -8.7257   30.4172 C.ar    1  UNL1        0.0480
     19 C         -11.3091   -8.2164   30.6957 C.ar    1  UNL1        0.0154
     20 C         -11.5857   -6.8585   30.5099 C.ar    1  UNL1        0.0127
     21 C         -10.5896   -5.9974   30.0393 C.ar    1  UNL1        0.0578
     22 CL        -10.9392   -4.2945   29.8056 Cl      1  UNL1       -0.0822
     23 C          -9.3154   -6.4964   29.7523 C.ar    1  UNL1        0.0127
     24 C          -9.0355   -7.8536   29.9379 C.ar    1  UNL1        0.0154
     25 C          -6.1844  -16.5517   23.2526 C.3     1  UNL1        0.1535
     26 C          -6.7228  -15.9542   21.9665 C.2     1  UNL1        0.2443
     27 O          -5.9460  -15.2992   21.2216 O.2     1  UNL1       -0.2730
     28 N          -8.1197  -16.0001   21.6284 N.am    1  UNL1       -0.2825
     29 H          -8.4936  -15.2298   21.0290 H       1  UNL1        0.1549
     30 C          -9.0501  -16.9850   22.1037 C.ar    1  UNL1        0.0535
     31 C          -9.0983  -18.2707   21.5442 C.ar    1  UNL1        0.0353
     32 C         -10.0377  -19.1914   22.0147 C.ar    1  UNL1        0.1002
     33 N         -10.9102  -18.8353   22.9945 N.ar    1  UNL1       -0.2422
     34 C         -10.9008  -17.5889   23.5375 C.ar    1  UNL1        0.1002
     35 C          -9.9774  -16.6387   23.0948 C.ar    1  UNL1        0.0353
     36 C          -4.6487  -16.3867   23.3753 C.3     1  UNL1        0.0569
     37 C          -3.8593  -17.5163   22.7667 C.ar    1  UNL1       -0.0017
     38 C          -4.1342  -18.8771   22.8746 C.ar    1  UNL1        0.0681
     39 N          -3.2346  -19.6003   22.1704 N.ar    1  UNL1       -0.3523
     40 C          -2.3865  -18.7111   21.6268 C.ar    1  UNL1        0.0563
     41 C          -1.2898  -18.9824   20.8097 C.ar    1  UNL1        0.0170
     42 C          -0.5266  -17.8943   20.3498 C.ar    1  UNL1        0.0015
     43 C          -0.8657  -16.5752   20.7219 C.ar    1  UNL1        0.0001
     44 C          -1.9743  -16.3317   21.5523 C.ar    1  UNL1        0.0012
     45 C          -2.7267  -17.4288   21.9763 C.ar    1  UNL1        0.0131
     46 H          -3.2061  -20.6397   22.0745 H       1  UNL1        0.1660
@<TRIPOS>BOND
     1     1     2    2
     2     2     3   am
     3     3    25    1
     4    25    36    1
     5    36    37    1
     6    37    38   ar
     7    38    39   ar
     8    39    40   ar
     9    40    41   ar
    10    41    42   ar
    11    42    43   ar
    12    43    44   ar
    13    44    45   ar
    14    25    26    1
    15    26    27    2
    16    26    28   am
    17    28    30    1
    18    30    31   ar
    19    31    32   ar
    20    32    33   ar
    21    33    34   ar
    22    34    35   ar
    23     2     5    1
    24     5     6   ar
    25     6     7   ar
    26     7     8   ar
    27     8    12    1
    28    12    13    1
    29    13    14    1
    30    14    15    1
    31    15    18    1
    32    18    19   ar
    33    19    20   ar
    34    20    21   ar
    35    21    22    1
    36    21    23   ar
    37    23    24   ar
    38    15    16    1
    39    16    17    1
    40     8     9   ar
    41     9    10   ar
    42    10    11    1
    43    45    37   ar
    44    35    30   ar
    45    10     5   ar
    46    45    40   ar
    47    17    12    1
    48    24    18   ar
    49     3     4    1
    50    39    46    1
    51    28    29    1
