@<TRIPOS>MOLECULE
*****
 28 31 0 0 0
SMALL
GASTEIGER

@<TRIPOS>ATOM
      1 N         -24.6938   -9.5452  -11.2725 N.ar    1  UNL1       -0.3246
      2 C         -25.2226   -8.4391  -11.8550 C.ar    1  UNL1        0.0600
      3 C         -26.0733   -7.4889  -11.2813 C.ar    1  UNL1        0.0177
      4 C         -26.5150   -6.4230  -12.0859 C.ar    1  UNL1        0.0082
      5 C         -26.1097   -6.3244  -13.4359 C.ar    1  UNL1        0.0347
      6 BR        -26.7268   -4.8707  -14.5091 Br      1  UNL1       -0.0490
      7 C         -25.2577   -7.2932  -13.9961 C.ar    1  UNL1        0.0082
      8 C         -24.8321   -8.3358  -13.1754 C.ar    1  UNL1        0.0177
      9 C         -24.0329   -9.4265  -13.4299 C.ar    1  UNL1        0.0177
     10 C         -23.3990   -9.8508  -14.5959 C.ar    1  UNL1        0.0082
     11 C         -22.6744  -11.0550  -14.5471 C.ar    1  UNL1        0.0347
     12 BR        -21.7917  -11.6946  -16.1145 Br      1  UNL1       -0.0490
     13 C         -22.6028  -11.7981  -13.3480 C.ar    1  UNL1        0.0082
     14 C         -23.2516  -11.3462  -12.1851 C.ar    1  UNL1        0.0177
     15 C         -23.9670  -10.1451  -12.2520 C.ar    1  UNL1        0.0600
     16 C         -24.9454  -10.0343   -9.9108 C.3     1  UNL1        0.1365
     17 O         -23.8947  -10.6449   -7.8534 O.3     1  UNL1       -0.3811
     18 C         -23.6990   -9.8875   -9.0202 C.3     1  UNL1        0.1486
     19 H         -22.9958  -10.8930   -7.5125 H       1  UNL1        0.2105
     20 C         -23.4431   -8.4166   -8.6490 C.3     1  UNL1        0.1001
     21 N         -22.0147   -8.1981   -8.3652 N.3     1  UNL1       -0.2965
     22 H         -21.5605   -9.1361   -8.2572 H       1  UNL1        0.1233
     23 C         -21.2802   -7.4521   -9.4114 C.3     1  UNL1        0.0540
     24 C         -20.2142   -8.3046  -10.1613 C.3     1  UNL1        0.0157
     25 C         -20.6951   -8.7436  -11.5509 C.3     1  UNL1        0.0014
     26 C         -21.0529   -7.5386  -12.4456 C.3     1  UNL1        0.0001
     27 C         -21.5396   -6.3028  -11.6607 C.3     1  UNL1        0.0014
     28 C         -22.2460   -6.6971  -10.3601 C.3     1  UNL1        0.0157
@<TRIPOS>BOND
     1    17    18    1
     2    18    20    1
     3    20    21    1
     4    21    23    1
     5    23    24    1
     6    24    25    1
     7    25    26    1
     8    26    27    1
     9    27    28    1
    10    18    16    1
    11    16     1    1
    12     1     2   ar
    13     2     3   ar
    14     3     4   ar
    15     4     5   ar
    16     5     6    1
    17     5     7   ar
    18     7     8   ar
    19     8     9   ar
    20     9    10   ar
    21    10    11   ar
    22    11    12    1
    23    11    13   ar
    24    13    14   ar
    25    14    15   ar
    26    28    23    1
    27    15     1   ar
    28     8     2   ar
    29    15     9   ar
    30    17    19    1
    31    21    22    1
@<TRIPOS>MOLECULE
*****
 28 31 0 0 0
SMALL
GASTEIGER

@<TRIPOS>ATOM
      1 N         -24.8907   -9.6534  -11.1939 N.ar    1  UNL1       -0.3246
      2 C         -24.1317  -10.2417  -12.1533 C.ar    1  UNL1        0.0600
      3 C         -23.3614  -11.4040  -12.0472 C.ar    1  UNL1        0.0177
      4 C         -22.6356  -11.8237  -13.1767 C.ar    1  UNL1        0.0082
      5 C         -22.6852  -11.0840  -14.3796 C.ar    1  UNL1        0.0347
      6 BR        -21.6872  -11.6714  -15.8977 Br      1  UNL1       -0.0490
      7 C         -23.4618   -9.9144  -14.4647 C.ar    1  UNL1        0.0082
      8 C         -24.1738   -9.5242  -13.3322 C.ar    1  UNL1        0.0177
      9 C         -24.9863   -8.4390  -13.0969 C.ar    1  UNL1        0.0177
     10 C         -25.3516   -7.3691  -13.9114 C.ar    1  UNL1        0.0082
     11 C         -26.1776   -6.3752  -13.3568 C.ar    1  UNL1        0.0347
     12 BR        -26.7047   -4.8790  -14.4191 Br      1  UNL1       -0.0490
     13 C         -26.6125   -6.4731  -12.0165 C.ar    1  UNL1        0.0082
     14 C         -26.2294   -7.5645  -11.2167 C.ar    1  UNL1        0.0177
     15 C         -25.4082   -8.5446  -11.7857 C.ar    1  UNL1        0.0600
     16 C         -25.0296  -10.0740   -9.7938 C.3     1  UNL1        0.1365
     17 O         -23.7924  -10.6159   -7.8225 O.3     1  UNL1       -0.3811
     18 C         -23.7193   -9.8724   -9.0123 C.3     1  UNL1        0.1486
     19 H         -22.8607  -10.8294   -7.5543 H       1  UNL1        0.2105
     20 C         -23.4825   -8.3881   -8.6846 C.3     1  UNL1        0.1001
     21 N         -22.0544   -8.1395   -8.4252 N.3     1  UNL1       -0.2965
     22 H         -21.5840   -9.0669   -8.2968 H       1  UNL1        0.1233
     23 C         -21.3447   -7.4118   -9.5011 C.3     1  UNL1        0.0540
     24 C         -20.2811   -8.2710  -10.2466 C.3     1  UNL1        0.0157
     25 C         -20.7787   -8.7497  -11.6171 C.3     1  UNL1        0.0014
     26 C         -21.1639   -7.5712  -12.5354 C.3     1  UNL1        0.0001
     27 C         -21.6521   -6.3216  -11.7736 C.3     1  UNL1        0.0014
     28 C         -22.3337   -6.6911  -10.4526 C.3     1  UNL1        0.0157
@<TRIPOS>BOND
     1    17    18    1
     2    18    20    1
     3    20    21    1
     4    21    23    1
     5    23    24    1
     6    24    25    1
     7    25    26    1
     8    26    27    1
     9    27    28    1
    10    18    16    1
    11    16     1    1
    12     1     2   ar
    13     2     3   ar
    14     3     4   ar
    15     4     5   ar
    16     5     6    1
    17     5     7   ar
    18     7     8   ar
    19     8     9   ar
    20     9    10   ar
    21    10    11   ar
    22    11    12    1
    23    11    13   ar
    24    13    14   ar
    25    14    15   ar
    26    28    23    1
    27    15     1   ar
    28     8     2   ar
    29    15     9   ar
    30    17    19    1
    31    21    22    1
@<TRIPOS>MOLECULE
*****
 28 31 0 0 0
SMALL
GASTEIGER

@<TRIPOS>ATOM
      1 N         -21.6891  -12.5027  -15.0866 N.ar    1  UNL1       -0.3246
      2 C         -21.3450  -12.0736  -13.8456 C.ar    1  UNL1        0.0600
      3 C         -20.8943  -12.8392  -12.7657 C.ar    1  UNL1        0.0177
      4 C         -20.6100  -12.1779  -11.5572 C.ar    1  UNL1        0.0082
      5 C         -20.7815  -10.7800  -11.4441 C.ar    1  UNL1        0.0347
      6 BR        -20.3934   -9.9060   -9.7915 Br      1  UNL1       -0.0490
      7 C         -21.2410  -10.0281  -12.5404 C.ar    1  UNL1        0.0082
      8 C         -21.5108  -10.7081  -13.7264 C.ar    1  UNL1        0.0177
      9 C         -21.9855  -10.2676  -14.9405 C.ar    1  UNL1        0.0177
     10 C         -22.3633   -8.9989  -15.3754 C.ar    1  UNL1        0.0082
     11 C         -22.8595   -8.8759  -16.6855 C.ar    1  UNL1        0.0347
     12 BR        -23.4030   -7.1654  -17.3367 Br      1  UNL1       -0.0490
     13 C         -22.9660  -10.0111  -17.5191 C.ar    1  UNL1        0.0082
     14 C         -22.5766  -11.2801  -17.0548 C.ar    1  UNL1        0.0177
     15 C         -22.0839  -11.3834  -15.7489 C.ar    1  UNL1        0.0600
     16 C         -21.7247  -13.8908  -15.5646 C.3     1  UNL1        0.1365
     17 O         -22.6187  -16.0128  -14.9259 O.3     1  UNL1       -0.3811
     18 C         -22.9424  -14.6481  -15.0059 C.3     1  UNL1        0.1486
     19 H         -23.1864  -16.4058  -14.2125 H       1  UNL1        0.2105
     20 C         -24.1808  -14.4584  -15.8986 C.3     1  UNL1        0.1001
     21 N         -25.4134  -14.6683  -15.1206 N.3     1  UNL1       -0.2965
     22 H         -25.1979  -15.3476  -14.3526 H       1  UNL1        0.1233
     23 C         -25.9757  -13.4453  -14.5052 C.3     1  UNL1        0.0540
     24 C         -25.7975  -13.3795  -12.9595 C.3     1  UNL1        0.0157
     25 C         -24.6623  -12.4335  -12.5459 C.3     1  UNL1        0.0014
     26 C         -24.8927  -10.9964  -13.0577 C.3     1  UNL1        0.0001
     27 C         -25.7093  -10.9240  -14.3647 C.3     1  UNL1        0.0014
     28 C         -25.4976  -12.1652  -15.2370 C.3     1  UNL1        0.0157
@<TRIPOS>BOND
     1    17    18    1
     2    18    20    1
     3    20    21    1
     4    21    23    1
     5    23    24    1
     6    24    25    1
     7    25    26    1
     8    26    27    1
     9    27    28    1
    10    18    16    1
    11    16     1    1
    12     1     2   ar
    13     2     3   ar
    14     3     4   ar
    15     4     5   ar
    16     5     6    1
    17     5     7   ar
    18     7     8   ar
    19     8     9   ar
    20     9    10   ar
    21    10    11   ar
    22    11    12    1
    23    11    13   ar
    24    13    14   ar
    25    14    15   ar
    26    28    23    1
    27    15     1   ar
    28     8     2   ar
    29    15     9   ar
    30    17    19    1
    31    21    22    1
@<TRIPOS>MOLECULE
*****
 28 31 0 0 0
SMALL
GASTEIGER

@<TRIPOS>ATOM
      1 N         -23.6627  -10.1723  -12.5930 N.ar    1  UNL1       -0.3246
      2 C         -24.0996  -11.1559  -13.4201 C.ar    1  UNL1        0.0600
      3 C         -25.2753  -11.1838  -14.1765 C.ar    1  UNL1        0.0177
      4 C         -25.5345  -12.3249  -14.9572 C.ar    1  UNL1        0.0082
      5 C         -24.6297  -13.4100  -14.9680 C.ar    1  UNL1        0.0347
      6 BR        -25.0061  -14.9501  -16.0321 Br      1  UNL1       -0.0490
      7 C         -23.4547  -13.3651  -14.1960 C.ar    1  UNL1        0.0082
      8 C         -23.2211  -12.2211  -13.4356 C.ar    1  UNL1        0.0177
      9 C         -22.1976  -11.8922  -12.5768 C.ar    1  UNL1        0.0177
     10 C         -21.0670  -12.6023  -12.1779 C.ar    1  UNL1        0.0082
     11 C         -20.2149  -12.0015  -11.2342 C.ar    1  UNL1        0.0347
     12 BR        -18.6549  -12.9282  -10.6403 Br      1  UNL1       -0.0490
     13 C         -20.5106  -10.7208  -10.7172 C.ar    1  UNL1        0.0082
     14 C         -21.6583  -10.0257  -11.1379 C.ar    1  UNL1        0.0177
     15 C         -22.4942  -10.6384  -12.0785 C.ar    1  UNL1        0.0600
     16 C         -24.3617   -8.9261  -12.2536 C.3     1  UNL1        0.1365
     17 O         -24.2574   -6.5411  -12.3561 O.3     1  UNL1       -0.3811
     18 C         -23.6730   -7.7037  -12.8857 C.3     1  UNL1        0.1486
     19 H         -23.5776   -5.8199  -12.4158 H       1  UNL1        0.2105
     20 C         -23.8165   -7.7069  -14.4174 C.3     1  UNL1        0.1001
     21 N         -22.5025   -7.5288  -15.0580 N.3     1  UNL1       -0.2965
     22 H         -21.7653   -7.7692  -14.3533 H       1  UNL1        0.1233
     23 C         -22.2778   -8.3651  -16.2584 C.3     1  UNL1        0.0540
     24 C         -20.9525   -9.1819  -16.2173 C.3     1  UNL1        0.0157
     25 C         -21.1914  -10.6590  -15.8770 C.3     1  UNL1        0.0014
     26 C         -22.1360  -11.3395  -16.8895 C.3     1  UNL1        0.0001
     27 C         -23.1532  -10.3769  -17.5367 C.3     1  UNL1        0.0014
     28 C         -23.5225   -9.2245  -16.5977 C.3     1  UNL1        0.0157
@<TRIPOS>BOND
     1    17    18    1
     2    18    20    1
     3    20    21    1
     4    21    23    1
     5    23    24    1
     6    24    25    1
     7    25    26    1
     8    26    27    1
     9    27    28    1
    10    18    16    1
    11    16     1    1
    12     1     2   ar
    13     2     3   ar
    14     3     4   ar
    15     4     5   ar
    16     5     6    1
    17     5     7   ar
    18     7     8   ar
    19     8     9   ar
    20     9    10   ar
    21    10    11   ar
    22    11    12    1
    23    11    13   ar
    24    13    14   ar
    25    14    15   ar
    26    28    23    1
    27    15     1   ar
    28     8     2   ar
    29    15     9   ar
    30    17    19    1
    31    21    22    1
@<TRIPOS>MOLECULE
*****
 28 31 0 0 0
SMALL
GASTEIGER

@<TRIPOS>ATOM
      1 N         -24.0540  -11.1318  -13.0397 N.ar    1  UNL1       -0.3246
      2 C         -22.8597  -10.8968  -12.4390 C.ar    1  UNL1        0.0600
      3 C         -21.8577  -11.8211  -12.1274 C.ar    1  UNL1        0.0177
      4 C         -20.6989  -11.3508  -11.4835 C.ar    1  UNL1        0.0082
      5 C         -20.5605   -9.9823  -11.1602 C.ar    1  UNL1        0.0347
      6 BR        -18.9800   -9.3690  -10.2817 Br      1  UNL1       -0.0490
      7 C         -21.5820   -9.0689  -11.4773 C.ar    1  UNL1        0.0082
      8 C         -22.7168   -9.5613  -12.1187 C.ar    1  UNL1        0.0177
      9 C         -23.8729   -8.9382  -12.5292 C.ar    1  UNL1        0.0177
     10 C         -24.2907   -7.6130  -12.4255 C.ar    1  UNL1        0.0082
     11 C         -25.5703   -7.2893  -12.9108 C.ar    1  UNL1        0.0347
     12 BR        -26.2041   -5.4925  -12.7883 Br      1  UNL1       -0.0490
     13 C         -26.3923   -8.2868  -13.4804 C.ar    1  UNL1        0.0082
     14 C         -25.9452   -9.6168  -13.5734 C.ar    1  UNL1        0.0177
     15 C         -24.6686   -9.9203  -13.0865 C.ar    1  UNL1        0.0600
     16 C         -24.5979  -12.4331  -13.4490 C.3     1  UNL1        0.1365
     17 O         -25.7489  -13.6098  -15.1812 O.3     1  UNL1       -0.3811
     18 C         -25.0612  -12.4138  -14.9164 C.3     1  UNL1        0.1486
     19 H         -26.3798  -13.4248  -15.9251 H       1  UNL1        0.2105
     20 C         -23.8704  -12.2739  -15.8804 C.3     1  UNL1        0.1001
     21 N         -24.1084  -11.1802  -16.8374 N.3     1  UNL1       -0.2965
     22 H         -24.8884  -10.5890  -16.4636 H       1  UNL1        0.1233
     23 C         -22.9427  -10.3004  -17.0783 C.3     1  UNL1        0.0540
     24 C         -23.3076   -8.7913  -17.1990 C.3     1  UNL1        0.0157
     25 C         -22.9710   -8.0089  -15.9225 C.3     1  UNL1        0.0014
     26 C         -21.4739   -8.1070  -15.5629 C.3     1  UNL1        0.0001
     27 C         -20.8044   -9.4147  -16.0339 C.3     1  UNL1        0.0014
     28 C         -21.7975  -10.5803  -16.0718 C.3     1  UNL1        0.0157
@<TRIPOS>BOND
     1    17    18    1
     2    18    20    1
     3    20    21    1
     4    21    23    1
     5    23    24    1
     6    24    25    1
     7    25    26    1
     8    26    27    1
     9    27    28    1
    10    18    16    1
    11    16     1    1
    12     1     2   ar
    13     2     3   ar
    14     3     4   ar
    15     4     5   ar
    16     5     6    1
    17     5     7   ar
    18     7     8   ar
    19     8     9   ar
    20     9    10   ar
    21    10    11   ar
    22    11    12    1
    23    11    13   ar
    24    13    14   ar
    25    14    15   ar
    26    28    23    1
    27    15     1   ar
    28     8     2   ar
    29    15     9   ar
    30    17    19    1
    31    21    22    1
@<TRIPOS>MOLECULE
*****
 28 31 0 0 0
SMALL
GASTEIGER

@<TRIPOS>ATOM
      1 N         -22.9308   -6.2129  -12.1818 N.ar    1  UNL1       -0.3246
      2 C         -22.4408   -7.1655  -13.0154 C.ar    1  UNL1        0.0600
      3 C         -21.1171   -7.5985  -13.1421 C.ar    1  UNL1        0.0177
      4 C         -20.8341   -8.5959  -14.0927 C.ar    1  UNL1        0.0082
      5 C         -21.8627   -9.1371  -14.8960 C.ar    1  UNL1        0.0347
      6 BR        -21.4525  -10.4868  -16.1828 Br      1  UNL1       -0.0490
      7 C         -23.1872   -8.6845  -14.7572 C.ar    1  UNL1        0.0082
      8 C         -23.4399   -7.6989  -13.8052 C.ar    1  UNL1        0.0177
      9 C         -24.6001   -7.0470  -13.4557 C.ar    1  UNL1        0.0177
     10 C         -25.8988   -7.1513  -13.9495 C.ar    1  UNL1        0.0082
     11 C         -26.8774   -6.3006  -13.4052 C.ar    1  UNL1        0.0347
     12 BR        -28.6734   -6.3887  -14.0469 Br      1  UNL1       -0.0490
     13 C         -26.5379   -5.3761  -12.3928 C.ar    1  UNL1        0.0082
     14 C         -25.2190   -5.2923  -11.9119 C.ar    1  UNL1        0.0177
     15 C         -24.2587   -6.1475  -12.4644 C.ar    1  UNL1        0.0600
     16 C         -22.1652   -5.3684  -11.2559 C.3     1  UNL1        0.1365
     17 O         -22.1315   -4.7293   -8.9536 O.3     1  UNL1       -0.3811
     18 C         -22.3341   -5.8332   -9.7986 C.3     1  UNL1        0.1486
     19 H         -22.6349   -4.9066   -8.1165 H       1  UNL1        0.2105
     20 C         -21.3362   -6.9493   -9.4450 C.3     1  UNL1        0.1001
     21 N         -21.9069   -7.8465   -8.4262 N.3     1  UNL1       -0.2965
     22 H         -22.7710   -7.3929   -8.0450 H       1  UNL1        0.1233
     23 C         -22.2766   -9.1920   -8.9198 C.3     1  UNL1        0.0540
     24 C         -23.8130   -9.4362   -8.9908 C.3     1  UNL1        0.0157
     25 C         -24.3508   -9.3370  -10.4246 C.3     1  UNL1        0.0014
     26 C         -23.6665  -10.3469  -11.3692 C.3     1  UNL1        0.0001
     27 C         -22.2224  -10.7032  -10.9597 C.3     1  UNL1        0.0014
     28 C         -21.5342   -9.5426  -10.2347 C.3     1  UNL1        0.0157
@<TRIPOS>BOND
     1    17    18    1
     2    18    20    1
     3    20    21    1
     4    21    23    1
     5    23    24    1
     6    24    25    1
     7    25    26    1
     8    26    27    1
     9    27    28    1
    10    18    16    1
    11    16     1    1
    12     1     2   ar
    13     2     3   ar
    14     3     4   ar
    15     4     5   ar
    16     5     6    1
    17     5     7   ar
    18     7     8   ar
    19     8     9   ar
    20     9    10   ar
    21    10    11   ar
    22    11    12    1
    23    11    13   ar
    24    13    14   ar
    25    14    15   ar
    26    28    23    1
    27    15     1   ar
    28     8     2   ar
    29    15     9   ar
    30    17    19    1
    31    21    22    1
@<TRIPOS>MOLECULE
*****
 28 31 0 0 0
SMALL
GASTEIGER

@<TRIPOS>ATOM
      1 N         -23.8077  -11.2161  -12.9115 N.ar    1  UNL1       -0.3246
      2 C         -24.4300  -10.0101  -12.9373 C.ar    1  UNL1        0.0600
      3 C         -25.6495   -9.6849  -13.5394 C.ar    1  UNL1        0.0177
      4 C         -26.0973   -8.3542  -13.4533 C.ar    1  UNL1        0.0082
      5 C         -25.3289   -7.3785  -12.7796 C.ar    1  UNL1        0.0347
      6 BR        -25.9557   -5.5777  -12.6805 Br      1  UNL1       -0.0490
      7 C         -24.1020   -7.7243  -12.1849 C.ar    1  UNL1        0.0082
      8 C         -23.6848   -9.0503  -12.2817 C.ar    1  UNL1        0.0177
      9 C         -22.5466   -9.6813  -11.8349 C.ar    1  UNL1        0.0177
     10 C         -21.4338   -9.1964  -11.1507 C.ar    1  UNL1        0.0082
     11 C         -20.3929  -10.0991  -10.8689 C.ar    1  UNL1        0.0347
     12 BR        -18.8373   -9.4931   -9.9428 Br      1  UNL1       -0.0490
     13 C         -20.4879  -11.4488  -11.2742 C.ar    1  UNL1        0.0082
     14 C         -21.6232  -11.9120  -11.9629 C.ar    1  UNL1        0.0177
     15 C         -22.6496  -10.9999  -12.2336 C.ar    1  UNL1        0.0600
     16 C         -24.2483  -12.4535  -13.5685 C.3     1  UNL1        0.1365
     17 O         -26.0341  -13.0902  -15.0229 O.3     1  UNL1       -0.3811
     18 C         -24.9911  -12.1594  -14.8838 C.3     1  UNL1        0.1486
     19 H         -26.7299  -12.6659  -15.5900 H       1  UNL1        0.2105
     20 C         -24.0473  -12.2503  -16.0952 C.3     1  UNL1        0.1001
     21 N         -24.1965  -11.0637  -16.9544 N.3     1  UNL1       -0.2965
     22 H         -24.9549  -10.4654  -16.5487 H       1  UNL1        0.1233
     23 C         -22.9784  -10.2329  -17.0838 C.3     1  UNL1        0.0540
     24 C         -23.2634   -8.7029  -17.1414 C.3     1  UNL1        0.0157
     25 C         -22.9625   -8.0059  -15.8078 C.3     1  UNL1        0.0014
     26 C         -21.4944   -8.1983  -15.3740 C.3     1  UNL1        0.0001
     27 C         -20.8627   -9.5121  -15.8790 C.3     1  UNL1        0.0014
     28 C         -21.9065  -10.6223  -16.0339 C.3     1  UNL1        0.0157
@<TRIPOS>BOND
     1    17    18    1
     2    18    20    1
     3    20    21    1
     4    21    23    1
     5    23    24    1
     6    24    25    1
     7    25    26    1
     8    26    27    1
     9    27    28    1
    10    18    16    1
    11    16     1    1
    12     1     2   ar
    13     2     3   ar
    14     3     4   ar
    15     4     5   ar
    16     5     6    1
    17     5     7   ar
    18     7     8   ar
    19     8     9   ar
    20     9    10   ar
    21    10    11   ar
    22    11    12    1
    23    11    13   ar
    24    13    14   ar
    25    14    15   ar
    26    28    23    1
    27    15     1   ar
    28     8     2   ar
    29    15     9   ar
    30    17    19    1
    31    21    22    1
@<TRIPOS>MOLECULE
*****
 28 31 0 0 0
SMALL
GASTEIGER

@<TRIPOS>ATOM
      1 N         -23.6803   -8.8616  -12.0412 N.ar    1  UNL1       -0.3246
      2 C         -23.9158  -10.0587  -12.6361 C.ar    1  UNL1        0.0600
      3 C         -23.1487  -11.2250  -12.5539 C.ar    1  UNL1        0.0177
      4 C         -23.5790  -12.3537  -13.2748 C.ar    1  UNL1        0.0082
      5 C         -24.7519  -12.3013  -14.0610 C.ar    1  UNL1        0.0347
      6 BR        -25.3127  -13.8451  -15.0344 Br      1  UNL1       -0.0490
      7 C         -25.5071  -11.1169  -14.1349 C.ar    1  UNL1        0.0082
      8 C         -25.0602  -10.0157  -13.4074 C.ar    1  UNL1        0.0177
      9 C         -25.5552   -8.7367  -13.2958 C.ar    1  UNL1        0.0177
     10 C         -26.6585   -8.1223  -13.8848 C.ar    1  UNL1        0.0082
     11 C         -26.8806   -6.7629  -13.6013 C.ar    1  UNL1        0.0347
     12 BR        -28.3700   -5.8620  -14.3856 Br      1  UNL1       -0.0490
     13 C         -26.0041   -6.0584  -12.7467 C.ar    1  UNL1        0.0082
     14 C         -24.8982   -6.7034  -12.1648 C.ar    1  UNL1        0.0177
     15 C         -24.6935   -8.0567  -12.4572 C.ar    1  UNL1        0.0600
     16 C         -22.5219   -8.4963  -11.2158 C.3     1  UNL1        0.1365
     17 O         -20.1896   -7.9764  -11.2294 O.3     1  UNL1       -0.3811
     18 C         -21.2297   -8.4437  -12.0500 C.3     1  UNL1        0.1486
     19 H         -19.3415   -8.3341  -11.6015 H       1  UNL1        0.2105
     20 C         -21.3852   -7.5197  -13.2701 C.3     1  UNL1        0.1001
     21 N         -20.4516   -7.9153  -14.3379 N.3     1  UNL1       -0.2965
     22 H         -19.9723   -8.7969  -14.0366 H       1  UNL1        0.1233
     23 C         -21.0817   -8.1642  -15.6539 C.3     1  UNL1        0.0540
     24 C         -20.6796   -9.5243  -16.2971 C.3     1  UNL1        0.0157
     25 C         -21.7829  -10.5816  -16.1563 C.3     1  UNL1        0.0014
     26 C         -23.1068  -10.1245  -16.8035 C.3     1  UNL1        0.0001
     27 C         -23.3048   -8.5945  -16.8029 C.3     1  UNL1        0.0014
     28 C         -22.6137   -7.9321  -15.6073 C.3     1  UNL1        0.0157
@<TRIPOS>BOND
     1    17    18    1
     2    18    20    1
     3    20    21    1
     4    21    23    1
     5    23    24    1
     6    24    25    1
     7    25    26    1
     8    26    27    1
     9    27    28    1
    10    18    16    1
    11    16     1    1
    12     1     2   ar
    13     2     3   ar
    14     3     4   ar
    15     4     5   ar
    16     5     6    1
    17     5     7   ar
    18     7     8   ar
    19     8     9   ar
    20     9    10   ar
    21    10    11   ar
    22    11    12    1
    23    11    13   ar
    24    13    14   ar
    25    14    15   ar
    26    28    23    1
    27    15     1   ar
    28     8     2   ar
    29    15     9   ar
    30    17    19    1
    31    21    22    1
@<TRIPOS>MOLECULE
*****
 28 31 0 0 0
SMALL
GASTEIGER

@<TRIPOS>ATOM
      1 N         -22.7625   -9.5217  -11.7229 N.ar    1  UNL1       -0.3246
      2 C         -21.6508  -10.1766  -11.3013 C.ar    1  UNL1        0.0600
      3 C         -20.6179   -9.6863  -10.4962 C.ar    1  UNL1        0.0177
      4 C         -19.5456  -10.5461  -10.1969 C.ar    1  UNL1        0.0082
      5 C         -19.5181  -11.8652  -10.7026 C.ar    1  UNL1        0.0347
      6 BR        -18.0492  -13.0117  -10.2862 Br      1  UNL1       -0.0490
      7 C         -20.5642  -12.3381  -11.5152 C.ar    1  UNL1        0.0082
      8 C         -21.6156  -11.4666  -11.7922 C.ar    1  UNL1        0.0177
      9 C         -22.7482  -11.6210  -12.5583 C.ar    1  UNL1        0.0177
     10 C         -23.2062  -12.6959  -13.3174 C.ar    1  UNL1        0.0082
     11 C         -24.4021  -12.5272  -14.0378 C.ar    1  UNL1        0.0347
     12 BR        -25.0764  -13.9599  -15.1045 Br      1  UNL1       -0.0490
     13 C         -25.1026  -11.3019  -13.9836 C.ar    1  UNL1        0.0082
     14 C         -24.6181  -10.2333  -13.2084 C.ar    1  UNL1        0.0177
     15 C         -23.4272  -10.4196  -12.4972 C.ar    1  UNL1        0.0600
     16 C         -23.1079   -8.1157  -11.4771 C.3     1  UNL1        0.1365
     17 O         -22.4562   -5.8468  -11.8476 O.3     1  UNL1       -0.3811
     18 C         -22.1783   -7.1637  -12.2503 C.3     1  UNL1        0.1486
     19 H         -21.6303   -5.3161  -11.9957 H       1  UNL1        0.2105
     20 C         -22.3760   -7.2958  -13.7702 C.3     1  UNL1        0.1001
     21 N         -21.2954   -8.1026  -14.3618 N.3     1  UNL1       -0.2965
     22 H         -21.1828   -8.9666  -13.7799 H       1  UNL1        0.1233
     23 C         -21.5279   -8.5215  -15.7623 C.3     1  UNL1        0.0540
     24 C         -20.8141   -9.8507  -16.1484 C.3     1  UNL1        0.0157
     25 C         -21.7827  -11.0404  -16.1838 C.3     1  UNL1        0.0014
     26 C         -22.9374  -10.8155  -17.1820 C.3     1  UNL1        0.0001
     27 C         -23.3087   -9.3314  -17.3810 C.3     1  UNL1        0.0014
     28 C         -23.0356   -8.5031  -16.1219 C.3     1  UNL1        0.0157
@<TRIPOS>BOND
     1    17    18    1
     2    18    20    1
     3    20    21    1
     4    21    23    1
     5    23    24    1
     6    24    25    1
     7    25    26    1
     8    26    27    1
     9    27    28    1
    10    18    16    1
    11    16     1    1
    12     1     2   ar
    13     2     3   ar
    14     3     4   ar
    15     4     5   ar
    16     5     6    1
    17     5     7   ar
    18     7     8   ar
    19     8     9   ar
    20     9    10   ar
    21    10    11   ar
    22    11    12    1
    23    11    13   ar
    24    13    14   ar
    25    14    15   ar
    26    28    23    1
    27    15     1   ar
    28     8     2   ar
    29    15     9   ar
    30    17    19    1
    31    21    22    1
