@<TRIPOS>MOLECULE
*****
 48 53 0 0 0
SMALL
GASTEIGER

@<TRIPOS>ATOM
      1 O          59.1696   85.7655    7.1347 O.2     1  UNL1       -0.2701
      2 C          59.9865   85.4666    8.0487 C.2     1  UNL1        0.2483
      3 N          60.2417   84.0841    8.3426 N.am    1  UNL1       -0.2945
      4 H          61.1353   83.8428    8.8260 H       1  UNL1        0.1501
      5 C          60.6728   86.5535    8.7928 C.ar    1  UNL1        0.0808
      6 C          59.9341   87.6727    9.2138 C.ar    1  UNL1        0.0080
      7 C          60.5414   88.6953    9.9461 C.ar    1  UNL1        0.0148
      8 C          61.9025   88.6210   10.2838 C.ar    1  UNL1        0.0502
      9 C          62.6410   87.4992    9.8743 C.ar    1  UNL1        0.0443
     10 C          62.0389   86.4754    9.1370 C.ar    1  UNL1        0.1457
     11 F          62.7906   85.3948    8.8107 F       1  UNL1       -0.2040
     12 N          62.5273   89.6673   11.0585 N.pl3   1  UNL1       -0.3040
     13 C          63.1272   90.8298   10.3829 C.3     1  UNL1        0.1122
     14 C          64.3615   91.3299   11.1472 C.3     1  UNL1        0.1122
     15 N          64.1252   91.3786   12.5977 N.pl3   1  UNL1       -0.3040
     16 C          62.8170   90.9904   13.1362 C.3     1  UNL1        0.1122
     17 C          62.3936   89.6540   12.5258 C.3     1  UNL1        0.1122
     18 C          65.2094   91.7186   13.4818 C.ar    1  UNL1        0.0493
     19 C          64.9567   92.0300   14.8263 C.ar    1  UNL1        0.0268
     20 C          66.0075   92.3493   15.6926 C.ar    1  UNL1        0.0699
     21 CL         65.6337   92.7292   17.3691 Cl      1  UNL1       -0.0813
     22 C          67.3317   92.3574   15.2197 C.ar    1  UNL1        0.0745
     23 CL         68.6584   92.7598   16.3090 Cl      1  UNL1       -0.0808
     24 C          67.5895   92.0408   13.8738 C.ar    1  UNL1        0.0472
     25 BR         69.3716   92.0356   13.1676 Br      1  UNL1       -0.0481
     26 C          66.5322   91.7220   13.0151 C.ar    1  UNL1        0.0221
     27 C          59.3460   83.0105    7.8849 C.3     1  UNL1        0.1535
     28 C          59.9139   81.6428    8.1933 C.2     1  UNL1        0.2443
     29 O          59.8378   80.7188    7.3376 O.2     1  UNL1       -0.2730
     30 N          60.5592   81.4090    9.4562 N.am    1  UNL1       -0.2825
     31 H          60.3918   82.0965   10.2254 H       1  UNL1        0.1549
     32 C          61.3310   80.2354    9.7636 C.ar    1  UNL1        0.0535
     33 C          62.4640   79.8805    9.0115 C.ar    1  UNL1        0.0353
     34 C          63.1980   78.7455    9.3652 C.ar    1  UNL1        0.1002
     35 N          62.8262   77.9990   10.4386 N.ar    1  UNL1       -0.2422
     36 C          61.7466   78.3293   11.1953 C.ar    1  UNL1        0.1002
     37 C          60.9860   79.4569   10.8770 C.ar    1  UNL1        0.0353
     38 C          57.9282   83.1628    8.4797 C.3     1  UNL1        0.0569
     39 C          57.8969   83.0258    9.9784 C.ar    1  UNL1       -0.0017
     40 C          57.9792   81.8411   10.7049 C.ar    1  UNL1        0.0681
     41 N          57.9892   82.0990   12.0321 N.ar    1  UNL1       -0.3523
     42 C          57.9106   83.4353   12.1519 C.ar    1  UNL1        0.0563
     43 C          57.9081   84.1776   13.3322 C.ar    1  UNL1        0.0170
     44 C          57.8307   85.5783   13.2285 C.ar    1  UNL1        0.0015
     45 C          57.7502   86.1983   11.9626 C.ar    1  UNL1        0.0001
     46 C          57.7507   85.4240   10.7885 C.ar    1  UNL1        0.0012
     47 C          57.8444   84.0371   10.9208 C.ar    1  UNL1        0.0131
     48 H          58.0535   81.3988   12.8041 H       1  UNL1        0.1660
@<TRIPOS>BOND
     1     1     2    2
     2     2     3   am
     3     3    27    1
     4    27    38    1
     5    38    39    1
     6    39    40   ar
     7    40    41   ar
     8    41    42   ar
     9    42    43   ar
    10    43    44   ar
    11    44    45   ar
    12    45    46   ar
    13    46    47   ar
    14    27    28    1
    15    28    29    2
    16    28    30   am
    17    30    32    1
    18    32    33   ar
    19    33    34   ar
    20    34    35   ar
    21    35    36   ar
    22    36    37   ar
    23     2     5    1
    24     5     6   ar
    25     6     7   ar
    26     7     8   ar
    27     8    12    1
    28    12    13    1
    29    13    14    1
    30    14    15    1
    31    15    18    1
    32    18    19   ar
    33    19    20   ar
    34    20    21    1
    35    20    22   ar
    36    22    23    1
    37    22    24   ar
    38    24    25    1
    39    24    26   ar
    40    15    16    1
    41    16    17    1
    42     8     9   ar
    43     9    10   ar
    44    10    11    1
    45    47    39   ar
    46    37    32   ar
    47    10     5   ar
    48    47    42   ar
    49    17    12    1
    50    26    18   ar
    51     3     4    1
    52    41    48    1
    53    30    31    1
@<TRIPOS>MOLECULE
*****
 48 53 0 0 0
SMALL
GASTEIGER

@<TRIPOS>ATOM
      1 O          58.1241   86.1296   10.4514 O.2     1  UNL1       -0.2701
      2 C          59.1614   86.1573    9.7336 C.2     1  UNL1        0.2483
      3 N          60.1440   85.1192    9.8734 N.am    1  UNL1       -0.2945
      4 H          60.7950   84.9500    9.0747 H       1  UNL1        0.1501
      5 C          59.3363   87.2590    8.7530 C.ar    1  UNL1        0.0808
      6 C          58.6998   87.1755    7.5026 C.ar    1  UNL1        0.0080
      7 C          58.8149   88.2104    6.5718 C.ar    1  UNL1        0.0148
      8 C          59.5634   89.3605    6.8710 C.ar    1  UNL1        0.0502
      9 C          60.1915   89.4522    8.1234 C.ar    1  UNL1        0.0443
     10 C          60.0834   88.4168    9.0565 C.ar    1  UNL1        0.1457
     11 F          60.6720   88.5825   10.2670 F       1  UNL1       -0.2040
     12 N          59.6665   90.4405    5.9181 N.pl3   1  UNL1       -0.3040
     13 C          58.5341   91.3597    5.7167 C.3     1  UNL1        0.1122
     14 C          58.4594   91.8238    4.2550 C.3     1  UNL1        0.1122
     15 N          59.7838   92.1807    3.7251 N.pl3   1  UNL1       -0.3040
     16 C          60.9648   92.0846    4.5902 C.3     1  UNL1        0.1122
     17 C          60.9697   90.7264    5.2926 C.3     1  UNL1        0.1122
     18 C          59.9205   92.5325    2.3358 C.ar    1  UNL1        0.0493
     19 C          58.8040   92.5129    1.4864 C.ar    1  UNL1        0.0268
     20 C          58.9287   92.8653    0.1385 C.ar    1  UNL1        0.0699
     21 CL         57.4953   92.8256   -0.8806 Cl      1  UNL1       -0.0813
     22 C          60.1804   93.2466   -0.3762 C.ar    1  UNL1        0.0745
     23 CL         60.3412   93.6910   -2.0748 Cl      1  UNL1       -0.0808
     24 C          61.3011   93.2724    0.4733 C.ar    1  UNL1        0.0472
     25 BR         63.0346   93.7814   -0.1673 Br      1  UNL1       -0.0481
     26 C          61.1664   92.9190    1.8201 C.ar    1  UNL1        0.0221
     27 C          60.1793   84.2303   11.0453 C.3     1  UNL1        0.1535
     28 C          60.9141   84.8666   12.2044 C.2     1  UNL1        0.2443
     29 O          60.4580   84.7622   13.3761 O.2     1  UNL1       -0.2730
     30 N          62.1441   85.5709   11.9660 N.am    1  UNL1       -0.2825
     31 H          62.3642   85.8519   10.9836 H       1  UNL1        0.1549
     32 C          63.0378   86.0092   13.0037 C.ar    1  UNL1        0.0535
     33 C          63.8309   85.1008   13.7255 C.ar    1  UNL1        0.0353
     34 C          64.7045   85.5770   14.7065 C.ar    1  UNL1        0.1002
     35 N          64.7964   86.9112   14.9495 N.ar    1  UNL1       -0.2422
     36 C          64.0559   87.8138   14.2538 C.ar    1  UNL1        0.1002
     37 C          63.1711   87.3801   13.2636 C.ar    1  UNL1        0.0353
     38 C          58.7590   83.7940   11.4689 C.3     1  UNL1        0.0569
     39 C          58.4177   82.3919   11.0408 C.ar    1  UNL1       -0.0017
     40 C          57.9452   81.9978    9.7920 C.ar    1  UNL1        0.0681
     41 N          57.8121   80.6534    9.7385 N.ar    1  UNL1       -0.3523
     42 C          58.1928   80.1938   10.9427 C.ar    1  UNL1        0.0563
     43 C          58.2458   78.8644   11.3599 C.ar    1  UNL1        0.0170
     44 C          58.6897   78.6026   12.6688 C.ar    1  UNL1        0.0015
     45 C          59.0587   79.6635   13.5243 C.ar    1  UNL1        0.0001
     46 C          58.9913   80.9954   13.0779 C.ar    1  UNL1        0.0012
     47 C          58.5622   81.2247   11.7691 C.ar    1  UNL1        0.0131
     48 H          57.4869   80.0897    8.9218 H       1  UNL1        0.1660
@<TRIPOS>BOND
     1     1     2    2
     2     2     3   am
     3     3    27    1
     4    27    38    1
     5    38    39    1
     6    39    40   ar
     7    40    41   ar
     8    41    42   ar
     9    42    43   ar
    10    43    44   ar
    11    44    45   ar
    12    45    46   ar
    13    46    47   ar
    14    27    28    1
    15    28    29    2
    16    28    30   am
    17    30    32    1
    18    32    33   ar
    19    33    34   ar
    20    34    35   ar
    21    35    36   ar
    22    36    37   ar
    23     2     5    1
    24     5     6   ar
    25     6     7   ar
    26     7     8   ar
    27     8    12    1
    28    12    13    1
    29    13    14    1
    30    14    15    1
    31    15    18    1
    32    18    19   ar
    33    19    20   ar
    34    20    21    1
    35    20    22   ar
    36    22    23    1
    37    22    24   ar
    38    24    25    1
    39    24    26   ar
    40    15    16    1
    41    16    17    1
    42     8     9   ar
    43     9    10   ar
    44    10    11    1
    45    47    39   ar
    46    37    32   ar
    47    10     5   ar
    48    47    42   ar
    49    17    12    1
    50    26    18   ar
    51     3     4    1
    52    41    48    1
    53    30    31    1
@<TRIPOS>MOLECULE
*****
 48 53 0 0 0
SMALL
GASTEIGER

@<TRIPOS>ATOM
      1 O          57.4541   84.5504   13.2539 O.2     1  UNL1       -0.2701
      2 C          58.6723   84.4793   12.9331 C.2     1  UNL1        0.2483
      3 N          59.1751   83.2745   12.3344 N.am    1  UNL1       -0.2945
      4 H          60.0510   83.3367   11.7693 H       1  UNL1        0.1501
      5 C          59.5557   85.6489   13.1734 C.ar    1  UNL1        0.0808
      6 C          60.9440   85.5097   13.0036 C.ar    1  UNL1        0.0080
      7 C          61.7989   86.5988   13.1871 C.ar    1  UNL1        0.0148
      8 C          61.2862   87.8585   13.5373 C.ar    1  UNL1        0.0502
      9 C          59.8988   88.0038   13.6971 C.ar    1  UNL1        0.0443
     10 C          59.0394   86.9156   13.5193 C.ar    1  UNL1        0.1457
     11 F          57.7054   87.1276   13.6403 F       1  UNL1       -0.2040
     12 N          62.1665   88.9906   13.7073 N.pl3   1  UNL1       -0.3040
     13 C          62.1442   90.0969   12.7360 C.3     1  UNL1        0.1122
     14 C          63.5454   90.7000   12.5615 C.3     1  UNL1        0.1122
     15 N          64.2275   90.8833   13.8512 N.pl3   1  UNL1       -0.3040
     16 C          63.5433   90.5162   15.0959 C.3     1  UNL1        0.1122
     17 C          62.9449   89.1165   14.9519 C.3     1  UNL1        0.1122
     18 C          65.5944   91.3349   13.8727 C.ar    1  UNL1        0.0493
     19 C          66.2634   91.5116   15.0932 C.ar    1  UNL1        0.0268
     20 C          67.5952   91.9386   15.1196 C.ar    1  UNL1        0.0699
     21 CL         68.3861   92.1410   16.6779 Cl      1  UNL1       -0.0813
     22 C          68.2768   92.1922   13.9162 C.ar    1  UNL1        0.0745
     23 CL         69.9553   92.7309   13.9460 Cl      1  UNL1       -0.0808
     24 C          67.6111   92.0114   12.6905 C.ar    1  UNL1        0.0472
     25 BR         68.4839   92.3414   11.0161 Br      1  UNL1       -0.0481
     26 C          66.2794   91.5832   12.6742 C.ar    1  UNL1        0.0221
     27 C          58.4378   82.0031   12.4011 C.3     1  UNL1        0.1535
     28 C          58.3473   81.3405   11.0442 C.2     1  UNL1        0.2443
     29 O          57.6873   80.2745   10.9037 O.2     1  UNL1       -0.2730
     30 N          58.9984   81.9436    9.9136 N.am    1  UNL1       -0.2825
     31 H          59.7276   82.6692   10.0990 H       1  UNL1        0.1549
     32 C          58.7904   81.5367    8.5502 C.ar    1  UNL1        0.0535
     33 C          57.5897   81.8125    7.8739 C.ar    1  UNL1        0.0353
     34 C          57.4443   81.4210    6.5406 C.ar    1  UNL1        0.1002
     35 N          58.4635   80.7909    5.8990 N.ar    1  UNL1       -0.2422
     36 C          59.6425   80.5286    6.5221 C.ar    1  UNL1        0.1002
     37 C          59.8299   80.9043    7.8545 C.ar    1  UNL1        0.0353
     38 C          59.0572   81.0424   13.4407 C.3     1  UNL1        0.0569
     39 C          60.5263   80.7993   13.2209 C.ar    1  UNL1       -0.0017
     40 C          61.0924   79.8447   12.3805 C.ar    1  UNL1        0.0681
     41 N          62.4399   79.9552   12.3778 N.ar    1  UNL1       -0.3523
     42 C          62.7316   80.9685   13.2113 C.ar    1  UNL1        0.0563
     43 C          63.9955   81.4704   13.5188 C.ar    1  UNL1        0.0170
     44 C          64.0738   82.5530   14.4136 C.ar    1  UNL1        0.0015
     45 C          62.9014   83.0983   14.9807 C.ar    1  UNL1        0.0001
     46 C          61.6397   82.5691   14.6553 C.ar    1  UNL1        0.0012
     47 C          61.5908   81.5050   13.7524 C.ar    1  UNL1        0.0131
     48 H          63.1134   79.3741   11.8310 H       1  UNL1        0.1660
@<TRIPOS>BOND
     1     1     2    2
     2     2     3   am
     3     3    27    1
     4    27    38    1
     5    38    39    1
     6    39    40   ar
     7    40    41   ar
     8    41    42   ar
     9    42    43   ar
    10    43    44   ar
    11    44    45   ar
    12    45    46   ar
    13    46    47   ar
    14    27    28    1
    15    28    29    2
    16    28    30   am
    17    30    32    1
    18    32    33   ar
    19    33    34   ar
    20    34    35   ar
    21    35    36   ar
    22    36    37   ar
    23     2     5    1
    24     5     6   ar
    25     6     7   ar
    26     7     8   ar
    27     8    12    1
    28    12    13    1
    29    13    14    1
    30    14    15    1
    31    15    18    1
    32    18    19   ar
    33    19    20   ar
    34    20    21    1
    35    20    22   ar
    36    22    23    1
    37    22    24   ar
    38    24    25    1
    39    24    26   ar
    40    15    16    1
    41    16    17    1
    42     8     9   ar
    43     9    10   ar
    44    10    11    1
    45    47    39   ar
    46    37    32   ar
    47    10     5   ar
    48    47    42   ar
    49    17    12    1
    50    26    18   ar
    51     3     4    1
    52    41    48    1
    53    30    31    1
@<TRIPOS>MOLECULE
*****
 48 53 0 0 0
SMALL
GASTEIGER

@<TRIPOS>ATOM
      1 O          58.1138   86.2920   10.6260 O.2     1  UNL1       -0.2701
      2 C          59.1244   86.2608    9.8712 C.2     1  UNL1        0.2483
      3 N          60.0597   85.1772    9.9888 N.am    1  UNL1       -0.2945
      4 H          60.6721   84.9674    9.1695 H       1  UNL1        0.1501
      5 C          59.3171   87.3418    8.8711 C.ar    1  UNL1        0.0808
      6 C          58.6625   87.2566    7.6301 C.ar    1  UNL1        0.0080
      7 C          58.7942   88.2733    6.6817 C.ar    1  UNL1        0.0148
      8 C          59.5779   89.4066    6.9532 C.ar    1  UNL1        0.0502
      9 C          60.2244   89.5003    8.1961 C.ar    1  UNL1        0.0443
     10 C          60.0997   88.4830    9.1468 C.ar    1  UNL1        0.1457
     11 F          60.7082   88.6511   10.3471 F       1  UNL1       -0.2040
     12 N          59.6986   90.4685    5.9820 N.pl3   1  UNL1       -0.3040
     13 C          58.5744   91.3907    5.7512 C.3     1  UNL1        0.1122
     14 C          58.5190   91.8286    4.2805 C.3     1  UNL1        0.1122
     15 N          59.8515   92.1676    3.7592 N.pl3   1  UNL1       -0.3040
     16 C          61.0221   92.0799    4.6392 C.3     1  UNL1        0.1122
     17 C          61.0105   90.7348    5.3662 C.3     1  UNL1        0.1122
     18 C          60.0060   92.4931    2.3654 C.ar    1  UNL1        0.0493
     19 C          61.2705   92.8116    1.8477 C.ar    1  UNL1        0.0268
     20 C          61.4284   93.1169    0.4918 C.ar    1  UNL1        0.0699
     21 CL         63.0370   93.5065   -0.1042 Cl      1  UNL1       -0.0813
     22 C          60.3148   93.1038   -0.3667 C.ar    1  UNL1        0.0745
     23 CL         60.5102   93.4886   -2.0762 Cl      1  UNL1       -0.0808
     24 C          59.0464   92.7800    0.1474 C.ar    1  UNL1        0.0472
     25 BR         57.4893   92.7460   -0.9701 Br      1  UNL1       -0.0481
     26 C          58.8985   92.4752    1.5047 C.ar    1  UNL1        0.0221
     27 C          60.0941   84.3004   11.1698 C.3     1  UNL1        0.1535
     28 C          60.7620   84.9775   12.3461 C.2     1  UNL1        0.2443
     29 O          62.0160   85.1140   12.3688 O.2     1  UNL1       -0.2730
     30 N          59.9588   85.4832   13.4255 N.am    1  UNL1       -0.2825
     31 H          58.9730   85.1444   13.5017 H       1  UNL1        0.1549
     32 C          60.4549   86.3393   14.4689 C.ar    1  UNL1        0.0535
     33 C          61.2868   85.8498   15.4904 C.ar    1  UNL1        0.0353
     34 C          61.7662   86.7259   16.4676 C.ar    1  UNL1        0.1002
     35 N          61.4414   88.0449   16.4208 N.ar    1  UNL1       -0.2422
     36 C          60.6547   88.5494   15.4339 C.ar    1  UNL1        0.1002
     37 C          60.1554   87.7082   14.4367 C.ar    1  UNL1        0.0353
     38 C          58.6806   83.8067   11.5508 C.3     1  UNL1        0.0569
     39 C          58.3919   82.4095   11.0710 C.ar    1  UNL1       -0.0017
     40 C          57.9888   82.0387    9.7912 C.ar    1  UNL1        0.0681
     41 N          57.8888   80.6936    9.6970 N.ar    1  UNL1       -0.3523
     42 C          58.2217   80.2104   10.9062 C.ar    1  UNL1        0.0563
     43 C          58.2847   78.8719   11.2914 C.ar    1  UNL1        0.0170
     44 C          58.6712   78.5850   12.6131 C.ar    1  UNL1        0.0015
     45 C          58.9747   79.6303   13.5123 C.ar    1  UNL1        0.0001
     46 C          58.8987   80.9719   13.0973 C.ar    1  UNL1        0.0012
     47 C          58.5277   81.2267   11.7755 C.ar    1  UNL1        0.0131
     48 H          57.6159   80.1451    8.8514 H       1  UNL1        0.1660
@<TRIPOS>BOND
     1     1     2    2
     2     2     3   am
     3     3    27    1
     4    27    38    1
     5    38    39    1
     6    39    40   ar
     7    40    41   ar
     8    41    42   ar
     9    42    43   ar
    10    43    44   ar
    11    44    45   ar
    12    45    46   ar
    13    46    47   ar
    14    27    28    1
    15    28    29    2
    16    28    30   am
    17    30    32    1
    18    32    33   ar
    19    33    34   ar
    20    34    35   ar
    21    35    36   ar
    22    36    37   ar
    23     2     5    1
    24     5     6   ar
    25     6     7   ar
    26     7     8   ar
    27     8    12    1
    28    12    13    1
    29    13    14    1
    30    14    15    1
    31    15    18    1
    32    18    19   ar
    33    19    20   ar
    34    20    21    1
    35    20    22   ar
    36    22    23    1
    37    22    24   ar
    38    24    25    1
    39    24    26   ar
    40    15    16    1
    41    16    17    1
    42     8     9   ar
    43     9    10   ar
    44    10    11    1
    45    47    39   ar
    46    37    32   ar
    47    10     5   ar
    48    47    42   ar
    49    17    12    1
    50    26    18   ar
    51     3     4    1
    52    41    48    1
    53    30    31    1
@<TRIPOS>MOLECULE
*****
 48 53 0 0 0
SMALL
GASTEIGER

@<TRIPOS>ATOM
      1 O          58.4321   85.2960    9.6395 O.2     1  UNL1       -0.2701
      2 C          59.1876   86.2695    9.9109 C.2     1  UNL1        0.2483
      3 N          59.8562   86.3108   11.1813 N.am    1  UNL1       -0.2945
      4 H          60.7150   86.8991   11.2641 H       1  UNL1        0.1501
      5 C          59.3752   87.3454    8.9043 C.ar    1  UNL1        0.0808
      6 C          58.7098   87.2566    7.6694 C.ar    1  UNL1        0.0080
      7 C          58.8367   88.2686    6.7152 C.ar    1  UNL1        0.0148
      8 C          59.6263   89.4005    6.9748 C.ar    1  UNL1        0.0502
      9 C          60.2837   89.4977    8.2117 C.ar    1  UNL1        0.0443
     10 C          60.1638   88.4852    9.1681 C.ar    1  UNL1        0.1457
     11 F          60.7831   88.6567   10.3624 F       1  UNL1       -0.2040
     12 N          59.7422   90.4575    5.9978 N.pl3   1  UNL1       -0.3040
     13 C          58.6432   91.4204    5.8163 C.3     1  UNL1        0.1122
     14 C          58.5381   91.8604    4.3490 C.3     1  UNL1        0.1122
     15 N          59.8575   92.1506    3.7681 N.pl3   1  UNL1       -0.3040
     16 C          61.0622   92.0199    4.5949 C.3     1  UNL1        0.1122
     17 C          61.0340   90.6759    5.3236 C.3     1  UNL1        0.1122
     18 C          59.9612   92.4707    2.3683 C.ar    1  UNL1        0.0493
     19 C          58.8237   92.4385    1.5476 C.ar    1  UNL1        0.0268
     20 C          58.9165   92.7602    0.1895 C.ar    1  UNL1        0.0699
     21 CL         57.4579   92.7060   -0.7925 Cl      1  UNL1       -0.0813
     22 C          60.1569   93.1228   -0.3646 C.ar    1  UNL1        0.0745
     23 CL         60.2774   93.5285   -2.0762 Cl      1  UNL1       -0.0808
     24 C          61.2986   93.1611    0.4559 C.ar    1  UNL1        0.0472
     25 BR         63.0181   93.6459   -0.2388 Br      1  UNL1       -0.0481
     26 C          61.1957   92.8385    1.8133 C.ar    1  UNL1        0.0221
     27 C          59.4346   85.4707   12.3132 C.3     1  UNL1        0.1535
     28 C          59.5991   83.9988   12.0051 C.2     1  UNL1        0.2443
     29 O          60.7486   83.4789   11.9980 O.2     1  UNL1       -0.2730
     30 N          58.4381   83.1932   11.7428 N.am    1  UNL1       -0.2825
     31 H          57.5444   83.6838   11.5124 H       1  UNL1        0.1549
     32 C          58.4515   81.7572   11.6694 C.ar    1  UNL1        0.0535
     33 C          58.8491   80.9672   12.7617 C.ar    1  UNL1        0.0353
     34 C          58.8197   79.5747   12.6518 C.ar    1  UNL1        0.1002
     35 N          58.3951   78.9894   11.5008 N.ar    1  UNL1       -0.2422
     36 C          57.9867   79.7281   10.4356 C.ar    1  UNL1        0.1002
     37 C          57.9992   81.1232   10.5040 C.ar    1  UNL1        0.0353
     38 C          60.1859   85.8474   13.6096 C.3     1  UNL1        0.0569
     39 C          60.6725   87.2718   13.6195 C.ar    1  UNL1       -0.0017
     40 C          59.9008   88.4133   13.4211 C.ar    1  UNL1        0.0681
     41 N          60.6547   89.5262   13.5670 N.ar    1  UNL1       -0.3523
     42 C          61.8967   89.0991   13.8525 C.ar    1  UNL1        0.0563
     43 C          63.0206   89.8839   14.1075 C.ar    1  UNL1        0.0170
     44 C          64.2295   89.2268   14.3999 C.ar    1  UNL1        0.0015
     45 C          64.2894   87.8163   14.4225 C.ar    1  UNL1        0.0001
     46 C          63.1404   87.0499   14.1573 C.ar    1  UNL1        0.0012
     47 C          61.9508   87.7287   13.8858 C.ar    1  UNL1        0.0131
     48 H          60.3313   90.5154   13.4823 H       1  UNL1        0.1660
@<TRIPOS>BOND
     1     1     2    2
     2     2     3   am
     3     3    27    1
     4    27    38    1
     5    38    39    1
     6    39    40   ar
     7    40    41   ar
     8    41    42   ar
     9    42    43   ar
    10    43    44   ar
    11    44    45   ar
    12    45    46   ar
    13    46    47   ar
    14    27    28    1
    15    28    29    2
    16    28    30   am
    17    30    32    1
    18    32    33   ar
    19    33    34   ar
    20    34    35   ar
    21    35    36   ar
    22    36    37   ar
    23     2     5    1
    24     5     6   ar
    25     6     7   ar
    26     7     8   ar
    27     8    12    1
    28    12    13    1
    29    13    14    1
    30    14    15    1
    31    15    18    1
    32    18    19   ar
    33    19    20   ar
    34    20    21    1
    35    20    22   ar
    36    22    23    1
    37    22    24   ar
    38    24    25    1
    39    24    26   ar
    40    15    16    1
    41    16    17    1
    42     8     9   ar
    43     9    10   ar
    44    10    11    1
    45    47    39   ar
    46    37    32   ar
    47    10     5   ar
    48    47    42   ar
    49    17    12    1
    50    26    18   ar
    51     3     4    1
    52    41    48    1
    53    30    31    1
@<TRIPOS>MOLECULE
*****
 48 53 0 0 0
SMALL
GASTEIGER

@<TRIPOS>ATOM
      1 O          59.1383   85.6073    7.1719 O.2     1  UNL1       -0.2701
      2 C          59.9110   85.3419    8.1335 C.2     1  UNL1        0.2483
      3 N          60.1809   83.9706    8.4638 N.am    1  UNL1       -0.2945
      4 H          61.0522   83.7578    8.9986 H       1  UNL1        0.1501
      5 C          60.5314   86.4561    8.8949 C.ar    1  UNL1        0.0808
      6 C          61.4169   86.1626    9.9463 C.ar    1  UNL1        0.0080
      7 C          62.0444   87.1868   10.6588 C.ar    1  UNL1        0.0148
      8 C          61.8089   88.5323   10.3326 C.ar    1  UNL1        0.0502
      9 C          60.9334   88.8291    9.2757 C.ar    1  UNL1        0.0443
     10 C          60.2991   87.8076    8.5627 C.ar    1  UNL1        0.1457
     11 F          59.5016   88.1538    7.5218 F       1  UNL1       -0.2040
     12 N          62.4727   89.5922   11.0545 N.pl3   1  UNL1       -0.3040
     13 C          63.0646   90.7259   10.3250 C.3     1  UNL1        0.1122
     14 C          64.3301   91.2312   11.0327 C.3     1  UNL1        0.1122
     15 N          64.1430   91.3260   12.4882 N.pl3   1  UNL1       -0.3040
     16 C          62.8485   90.9721   13.0809 C.3     1  UNL1        0.1122
     17 C          62.3878   89.6242   12.5252 C.3     1  UNL1        0.1122
     18 C          65.2604   91.6768   13.3254 C.ar    1  UNL1        0.0493
     19 C          66.5573   91.7265   12.7926 C.ar    1  UNL1        0.0268
     20 C          67.6450   92.0784   13.5986 C.ar    1  UNL1        0.0699
     21 CL         69.2490   92.1273   12.8779 Cl      1  UNL1       -0.0813
     22 C          67.4441   92.3893   14.9551 C.ar    1  UNL1        0.0745
     23 CL         68.8130   92.8329   15.9739 Cl      1  UNL1       -0.0808
     24 C          66.1448   92.3456   15.4917 C.ar    1  UNL1        0.0472
     25 BR         65.8049   92.7568   17.3329 Br      1  UNL1       -0.0481
     26 C          65.0631   91.9933   14.6776 C.ar    1  UNL1        0.0221
     27 C          59.3357   82.8692    7.9768 C.3     1  UNL1        0.1535
     28 C          59.9593   81.5210    8.2625 C.2     1  UNL1        0.2443
     29 O          59.9713   80.6281    7.3712 O.2     1  UNL1       -0.2730
     30 N          60.5564   81.2714    9.5459 N.am    1  UNL1       -0.2825
     31 H          60.3178   81.9193   10.3305 H       1  UNL1        0.1549
     32 C          61.3733   80.1271    9.8476 C.ar    1  UNL1        0.0535
     33 C          61.0402   79.2361   10.8822 C.ar    1  UNL1        0.0353
     34 C          61.8504   78.1229   11.1203 C.ar    1  UNL1        0.1002
     35 N          62.9445   77.8966   10.3462 N.ar    1  UNL1       -0.2422
     36 C          63.2796   78.7306    9.3267 C.ar    1  UNL1        0.1002
     37 C          62.4960   79.8544    9.0540 C.ar    1  UNL1        0.0353
     38 C          57.9080   82.9487    8.5622 C.3     1  UNL1        0.0569
     39 C          57.8812   82.8999   10.0664 C.ar    1  UNL1       -0.0017
     40 C          57.9776   81.7609   10.8611 C.ar    1  UNL1        0.0681
     41 N          57.9875   82.0966   12.1708 N.ar    1  UNL1       -0.3523
     42 C          57.8948   83.4368   12.2120 C.ar    1  UNL1        0.0563
     43 C          57.8866   84.2471   13.3465 C.ar    1  UNL1        0.0170
     44 C          57.7940   85.6384   13.1608 C.ar    1  UNL1        0.0015
     45 C          57.7043   86.1819   11.8608 C.ar    1  UNL1        0.0001
     46 C          57.7108   85.3399   10.7344 C.ar    1  UNL1        0.0012
     47 C          57.8197   83.9643   10.9478 C.ar    1  UNL1        0.0131
     48 H          58.0608   81.4438   12.9825 H       1  UNL1        0.1660
@<TRIPOS>BOND
     1     1     2    2
     2     2     3   am
     3     3    27    1
     4    27    38    1
     5    38    39    1
     6    39    40   ar
     7    40    41   ar
     8    41    42   ar
     9    42    43   ar
    10    43    44   ar
    11    44    45   ar
    12    45    46   ar
    13    46    47   ar
    14    27    28    1
    15    28    29    2
    16    28    30   am
    17    30    32    1
    18    32    33   ar
    19    33    34   ar
    20    34    35   ar
    21    35    36   ar
    22    36    37   ar
    23     2     5    1
    24     5     6   ar
    25     6     7   ar
    26     7     8   ar
    27     8    12    1
    28    12    13    1
    29    13    14    1
    30    14    15    1
    31    15    18    1
    32    18    19   ar
    33    19    20   ar
    34    20    21    1
    35    20    22   ar
    36    22    23    1
    37    22    24   ar
    38    24    25    1
    39    24    26   ar
    40    15    16    1
    41    16    17    1
    42     8     9   ar
    43     9    10   ar
    44    10    11    1
    45    47    39   ar
    46    37    32   ar
    47    10     5   ar
    48    47    42   ar
    49    17    12    1
    50    26    18   ar
    51     3     4    1
    52    41    48    1
    53    30    31    1
@<TRIPOS>MOLECULE
*****
 48 53 0 0 0
SMALL
GASTEIGER

@<TRIPOS>ATOM
      1 O          58.4312   85.7624   10.3069 O.2     1  UNL1       -0.2701
      2 C          59.5160   86.3321   10.0055 C.2     1  UNL1        0.2483
      3 N          60.7316   85.9215   10.6507 N.am    1  UNL1       -0.2945
      4 H          61.6354   86.1303   10.1713 H       1  UNL1        0.1501
      5 C          59.5106   87.4082    8.9817 C.ar    1  UNL1        0.0808
      6 C          60.1873   88.6118    9.2443 C.ar    1  UNL1        0.0080
      7 C          60.2315   89.6296    8.2889 C.ar    1  UNL1        0.0148
      8 C          59.6067   89.4666    7.0418 C.ar    1  UNL1        0.0502
      9 C          58.9391   88.2612    6.7719 C.ar    1  UNL1        0.0443
     10 C          58.8879   87.2414    7.7267 C.ar    1  UNL1        0.1457
     11 F          58.2698   86.0818    7.3915 F       1  UNL1       -0.2040
     12 N          59.6689   90.5096    6.0450 N.pl3   1  UNL1       -0.3040
     13 C          58.5029   91.3771    5.8088 C.3     1  UNL1        0.1122
     14 C          58.4096   91.7775    4.3294 C.3     1  UNL1        0.1122
     15 N          59.7194   92.1610    3.7820 N.pl3   1  UNL1       -0.3040
     16 C          60.9039   92.1444    4.6473 C.3     1  UNL1        0.1122
     17 C          60.9599   90.8175    5.4051 C.3     1  UNL1        0.1122
     18 C          59.8416   92.4601    2.3790 C.ar    1  UNL1        0.0493
     19 C          58.7159   92.4113    1.5431 C.ar    1  UNL1        0.0268
     20 C          58.8265   92.7126    0.1817 C.ar    1  UNL1        0.0699
     21 CL         57.3820   92.6383   -0.8196 Cl      1  UNL1       -0.0813
     22 C          60.0734   93.0711   -0.3606 C.ar    1  UNL1        0.0745
     23 CL         60.2164   93.4510   -2.0763 Cl      1  UNL1       -0.0808
     24 C          61.2033   93.1260    0.4751 C.ar    1  UNL1        0.0472
     25 BR         62.9308   93.6061   -0.2030 Br      1  UNL1       -0.0481
     26 C          61.0826   92.8237    1.8357 C.ar    1  UNL1        0.0221
     27 C          60.7283   85.1277   11.8895 C.3     1  UNL1        0.1535
     28 C          60.4621   83.6647   11.6121 C.2     1  UNL1        0.2443
     29 O          61.3998   82.9130   11.2280 O.2     1  UNL1       -0.2730
     30 N          59.1417   83.1322   11.8095 N.am    1  UNL1       -0.2825
     31 H          58.3479   83.8082   11.8833 H       1  UNL1        0.1549
     32 C          58.8275   81.7291   11.8028 C.ar    1  UNL1        0.0535
     33 C          58.2417   81.1104   10.6851 C.ar    1  UNL1        0.0353
     34 C          57.9796   79.7384   10.7156 C.ar    1  UNL1        0.1002
     35 N          58.3031   79.0056   11.8138 N.ar    1  UNL1       -0.2422
     36 C          58.8878   79.5737   12.9012 C.ar    1  UNL1        0.1002
     37 C          59.1682   80.9422   12.9116 C.ar    1  UNL1        0.0353
     38 C          62.0434   85.3059   12.6805 C.3     1  UNL1        0.0569
     39 C          61.8750   86.1232   13.9332 C.ar    1  UNL1       -0.0017
     40 C          61.0184   85.8465   14.9951 C.ar    1  UNL1        0.0681
     41 N          61.1788   86.7560   15.9826 N.ar    1  UNL1       -0.3523
     42 C          62.1264   87.6073   15.5538 C.ar    1  UNL1        0.0563
     43 C          62.6464   88.7049   16.2386 C.ar    1  UNL1        0.0170
     44 C          63.6498   89.4605   15.6052 C.ar    1  UNL1        0.0015
     45 C          64.0999   89.1112   14.3134 C.ar    1  UNL1        0.0001
     46 C          63.5543   88.0009   13.6446 C.ar    1  UNL1        0.0012
     47 C          62.5712   87.2598   14.3034 C.ar    1  UNL1        0.0131
     48 H          60.6725   86.7829   16.8955 H       1  UNL1        0.1660
@<TRIPOS>BOND
     1     1     2    2
     2     2     3   am
     3     3    27    1
     4    27    38    1
     5    38    39    1
     6    39    40   ar
     7    40    41   ar
     8    41    42   ar
     9    42    43   ar
    10    43    44   ar
    11    44    45   ar
    12    45    46   ar
    13    46    47   ar
    14    27    28    1
    15    28    29    2
    16    28    30   am
    17    30    32    1
    18    32    33   ar
    19    33    34   ar
    20    34    35   ar
    21    35    36   ar
    22    36    37   ar
    23     2     5    1
    24     5     6   ar
    25     6     7   ar
    26     7     8   ar
    27     8    12    1
    28    12    13    1
    29    13    14    1
    30    14    15    1
    31    15    18    1
    32    18    19   ar
    33    19    20   ar
    34    20    21    1
    35    20    22   ar
    36    22    23    1
    37    22    24   ar
    38    24    25    1
    39    24    26   ar
    40    15    16    1
    41    16    17    1
    42     8     9   ar
    43     9    10   ar
    44    10    11    1
    45    47    39   ar
    46    37    32   ar
    47    10     5   ar
    48    47    42   ar
    49    17    12    1
    50    26    18   ar
    51     3     4    1
    52    41    48    1
    53    30    31    1
@<TRIPOS>MOLECULE
*****
 48 53 0 0 0
SMALL
GASTEIGER

@<TRIPOS>ATOM
      1 O          60.0063   85.2074    9.5998 O.2     1  UNL1       -0.2701
      2 C          59.7434   86.3853    9.9680 C.2     1  UNL1        0.2483
      3 N          59.5503   86.6617   11.3640 N.am    1  UNL1       -0.2945
      4 H          59.6809   87.6445   11.6916 H       1  UNL1        0.1501
      5 C          59.6498   87.4608    8.9478 C.ar    1  UNL1        0.0808
      6 C          60.2463   88.7074    9.2047 C.ar    1  UNL1        0.0080
      7 C          60.2071   89.7279    8.2520 C.ar    1  UNL1        0.0148
      8 C          59.5772   89.5253    7.0133 C.ar    1  UNL1        0.0502
      9 C          58.9898   88.2776    6.7490 C.ar    1  UNL1        0.0443
     10 C          59.0221   87.2546    7.7011 C.ar    1  UNL1        0.1457
     11 F          58.4800   86.0561    7.3710 F       1  UNL1       -0.2040
     12 N          59.5536   90.5722    6.0190 N.pl3   1  UNL1       -0.3040
     13 C          58.3028   91.2957    5.7365 C.3     1  UNL1        0.1122
     14 C          58.2205   91.6881    4.2544 C.3     1  UNL1        0.1122
     15 N          59.4956   92.2271    3.7587 N.pl3   1  UNL1       -0.3040
     16 C          60.6389   92.3482    4.6700 C.3     1  UNL1        0.1122
     17 C          60.8228   91.0343    5.4302 C.3     1  UNL1        0.1122
     18 C          59.6362   92.5443    2.3614 C.ar    1  UNL1        0.0493
     19 C          58.5252   92.4880    1.5065 C.ar    1  UNL1        0.0268
     20 C          58.6535   92.8068    0.1506 C.ar    1  UNL1        0.0699
     21 CL         57.2270   92.7220   -0.8753 Cl      1  UNL1       -0.0813
     22 C          59.9034   93.1906   -0.3668 C.ar    1  UNL1        0.0745
     23 CL         60.0687   93.5925   -2.0755 Cl      1  UNL1       -0.0808
     24 C          61.0185   93.2530    0.4881 C.ar    1  UNL1        0.0472
     25 BR         62.7492   93.7674   -0.1557 Br      1  UNL1       -0.0481
     26 C          60.8801   92.9332    1.8429 C.ar    1  UNL1        0.0221
     27 C          59.2913   85.5940   12.3427 C.3     1  UNL1        0.1535
     28 C          60.4573   84.6354   12.4417 C.2     1  UNL1        0.2443
     29 O          60.2916   83.4872   12.9376 O.2     1  UNL1       -0.2730
     30 N          61.7478   85.0318   11.9483 N.am    1  UNL1       -0.2825
     31 H          61.9144   86.0494   11.7775 H       1  UNL1        0.1549
     32 C          62.8580   84.1340   11.7783 C.ar    1  UNL1        0.0535
     33 C          63.2151   83.6347   10.5140 C.ar    1  UNL1        0.0353
     34 C          64.3187   82.7862   10.3950 C.ar    1  UNL1        0.1002
     35 N          65.0498   82.4586   11.4931 N.ar    1  UNL1       -0.2422
     36 C          64.7392   82.9419   12.7248 C.ar    1  UNL1        0.1002
     37 C          63.6445   83.7942   12.8877 C.ar    1  UNL1        0.0353
     38 C          58.9362   86.1715   13.7310 C.3     1  UNL1        0.0569
     39 C          59.9433   87.1719   14.2316 C.ar    1  UNL1       -0.0017
     40 C          60.0558   88.5029   13.8395 C.ar    1  UNL1        0.0681
     41 N          61.0273   89.1243   14.5453 N.ar    1  UNL1       -0.3523
     42 C          61.5325   88.1979   15.3778 C.ar    1  UNL1        0.0563
     43 C          62.5464   88.3729   16.3189 C.ar    1  UNL1        0.0170
     44 C          62.9159   87.2642   17.1018 C.ar    1  UNL1        0.0015
     45 C          62.2771   86.0178   16.9232 C.ar    1  UNL1        0.0001
     46 C          61.2601   85.8693   15.9633 C.ar    1  UNL1        0.0012
     47 C          60.9029   86.9904   15.2114 C.ar    1  UNL1        0.0131
     48 H          61.3174   90.1240   14.4628 H       1  UNL1        0.1660
@<TRIPOS>BOND
     1     1     2    2
     2     2     3   am
     3     3    27    1
     4    27    38    1
     5    38    39    1
     6    39    40   ar
     7    40    41   ar
     8    41    42   ar
     9    42    43   ar
    10    43    44   ar
    11    44    45   ar
    12    45    46   ar
    13    46    47   ar
    14    27    28    1
    15    28    29    2
    16    28    30   am
    17    30    32    1
    18    32    33   ar
    19    33    34   ar
    20    34    35   ar
    21    35    36   ar
    22    36    37   ar
    23     2     5    1
    24     5     6   ar
    25     6     7   ar
    26     7     8   ar
    27     8    12    1
    28    12    13    1
    29    13    14    1
    30    14    15    1
    31    15    18    1
    32    18    19   ar
    33    19    20   ar
    34    20    21    1
    35    20    22   ar
    36    22    23    1
    37    22    24   ar
    38    24    25    1
    39    24    26   ar
    40    15    16    1
    41    16    17    1
    42     8     9   ar
    43     9    10   ar
    44    10    11    1
    45    47    39   ar
    46    37    32   ar
    47    10     5   ar
    48    47    42   ar
    49    17    12    1
    50    26    18   ar
    51     3     4    1
    52    41    48    1
    53    30    31    1
@<TRIPOS>MOLECULE
*****
 48 53 0 0 0
SMALL
GASTEIGER

@<TRIPOS>ATOM
      1 O          58.8930   85.9581   10.5843 O.2     1  UNL1       -0.2701
      2 C          59.9183   86.3808    9.9824 C.2     1  UNL1        0.2483
      3 N          61.2018   85.8163   10.2932 N.am    1  UNL1       -0.2945
      4 H          61.9611   85.9044    9.5818 H       1  UNL1        0.1501
      5 C          59.7710   87.4465    8.9583 C.ar    1  UNL1        0.0808
      6 C          60.3749   88.6972    9.1743 C.ar    1  UNL1        0.0080
      7 C          60.2855   89.7088    8.2154 C.ar    1  UNL1        0.0148
      8 C          59.5963   89.4927    7.0110 C.ar    1  UNL1        0.0502
      9 C          59.0012   88.2408    6.7871 C.ar    1  UNL1        0.0443
     10 C          59.0837   87.2267    7.7459 C.ar    1  UNL1        0.1457
     11 F          58.5304   86.0236    7.4537 F       1  UNL1       -0.2040
     12 N          59.5203   90.5303    6.0096 N.pl3   1  UNL1       -0.3040
     13 C          58.2185   91.1161    5.6491 C.3     1  UNL1        0.1122
     14 C          58.1826   91.4963    4.1619 C.3     1  UNL1        0.1122
     15 N          59.4202   92.1676    3.7379 N.pl3   1  UNL1       -0.3040
     16 C          60.4884   92.4106    4.7138 C.3     1  UNL1        0.1122
     17 C          60.7657   91.1244    5.4929 C.3     1  UNL1        0.1122
     18 C          59.6085   92.4967    2.3491 C.ar    1  UNL1        0.0493
     19 C          60.8790   92.8505    1.8703 C.ar    1  UNL1        0.0268
     20 C          61.0700   93.1595    0.5196 C.ar    1  UNL1        0.0699
     21 CL         62.6848   93.5938   -0.0270 Cl      1  UNL1       -0.0813
     22 C          59.9844   93.1146   -0.3729 C.ar    1  UNL1        0.0745
     23 CL         60.2217   93.5040   -2.0760 Cl      1  UNL1       -0.0808
     24 C          58.7102   92.7556    0.1022 C.ar    1  UNL1        0.0472
     25 BR         57.1900   92.6773   -1.0628 Br      1  UNL1       -0.0481
     26 C          58.5291   92.4474    1.4547 C.ar    1  UNL1        0.0221
     27 C          61.4343   85.0320   11.5161 C.3     1  UNL1        0.1535
     28 C          61.0236   83.5872   11.3370 C.2     1  UNL1        0.2443
     29 O          61.8877   82.6707   11.4082 O.2     1  UNL1       -0.2730
     30 N          59.6420   83.2639   11.1075 N.am    1  UNL1       -0.2825
     31 H          59.0024   84.0350   10.8099 H       1  UNL1        0.1549
     32 C          59.1063   81.9303   11.1545 C.ar    1  UNL1        0.0535
     33 C          59.3054   81.0950   12.2671 C.ar    1  UNL1        0.0353
     34 C          58.7421   79.8164   12.2782 C.ar    1  UNL1        0.1002
     35 N          57.9947   79.3903   11.2259 N.ar    1  UNL1       -0.2422
     36 C          57.7696   80.1836   10.1456 C.ar    1  UNL1        0.1002
     37 C          58.3133   81.4693   10.0946 C.ar    1  UNL1        0.0353
     38 C          62.9040   85.1311   11.9823 C.3     1  UNL1        0.0569
     39 C          63.1313   86.2192   12.9972 C.ar    1  UNL1       -0.0017
     40 C          63.4624   86.0465   14.3383 C.ar    1  UNL1        0.0681
     41 N          63.6584   87.2434   14.9359 N.ar    1  UNL1       -0.3523
     42 C          63.4510   88.1716   13.9861 C.ar    1  UNL1        0.0563
     43 C          63.5565   89.5553   14.1218 C.ar    1  UNL1        0.0170
     44 C          63.3069   90.3486   12.9874 C.ar    1  UNL1        0.0015
     45 C          62.9535   89.7489   11.7590 C.ar    1  UNL1        0.0001
     46 C          62.8506   88.3503   11.6523 C.ar    1  UNL1        0.0012
     47 C          63.1193   87.5869   12.7902 C.ar    1  UNL1        0.0131
     48 H          63.9249   87.4083   15.9319 H       1  UNL1        0.1660
@<TRIPOS>BOND
     1     1     2    2
     2     2     3   am
     3     3    27    1
     4    27    38    1
     5    38    39    1
     6    39    40   ar
     7    40    41   ar
     8    41    42   ar
     9    42    43   ar
    10    43    44   ar
    11    44    45   ar
    12    45    46   ar
    13    46    47   ar
    14    27    28    1
    15    28    29    2
    16    28    30   am
    17    30    32    1
    18    32    33   ar
    19    33    34   ar
    20    34    35   ar
    21    35    36   ar
    22    36    37   ar
    23     2     5    1
    24     5     6   ar
    25     6     7   ar
    26     7     8   ar
    27     8    12    1
    28    12    13    1
    29    13    14    1
    30    14    15    1
    31    15    18    1
    32    18    19   ar
    33    19    20   ar
    34    20    21    1
    35    20    22   ar
    36    22    23    1
    37    22    24   ar
    38    24    25    1
    39    24    26   ar
    40    15    16    1
    41    16    17    1
    42     8     9   ar
    43     9    10   ar
    44    10    11    1
    45    47    39   ar
    46    37    32   ar
    47    10     5   ar
    48    47    42   ar
    49    17    12    1
    50    26    18   ar
    51     3     4    1
    52    41    48    1
    53    30    31    1
