@<TRIPOS>MOLECULE
*****
 50 55 0 0 0
SMALL
GASTEIGER

@<TRIPOS>ATOM
      1 N           7.5837   77.5476   28.3942 N.am    1  UNL1       -0.2945
      2 C           8.3454   77.2717   27.2027 C.2     1  UNL1        0.2483
      3 O           9.5974   77.4203   27.1999 O.2     1  UNL1       -0.2701
      4 H           6.5423   77.5801   28.3160 H       1  UNL1        0.1501
      5 C           7.6726   76.8340   25.9595 C.ar    1  UNL1        0.0808
      6 C           8.4394   76.3180   24.9015 C.ar    1  UNL1        0.0080
      7 C           7.8267   75.8998   23.7175 C.ar    1  UNL1        0.0148
      8 C           6.4341   75.9840   23.5704 C.ar    1  UNL1        0.0502
      9 C           5.6632   76.4771   24.6346 C.ar    1  UNL1        0.0443
     10 C           6.2725   76.8966   25.8213 C.ar    1  UNL1        0.1457
     11 F           5.4863   77.3085   26.8479 F       1  UNL1       -0.2040
     12 N           5.8000   75.5419   22.3556 N.pl3   1  UNL1       -0.3040
     13 C           5.4683   76.5001   21.2960 C.3     1  UNL1        0.1123
     14 C           3.9937   76.3532   20.9210 C.3     1  UNL1        0.1136
     15 N           3.6387   74.9460   20.6746 N.pl3   1  UNL1       -0.2897
     16 C           4.6255   73.8792   20.9156 C.3     1  UNL1        0.1136
     17 C           5.4029   74.1332   22.2161 C.3     1  UNL1        0.1123
     18 C           2.3465   74.6543   20.1030 C.ar    1  UNL1        0.1318
     19 C           1.6653   75.5940   19.3110 C.ar    1  UNL1        0.0343
     20 C           0.4114   75.2754   18.7874 C.ar    1  UNL1        0.0083
     21 C          -0.1795   74.0353   19.0713 C.ar    1  UNL1        0.0906
     22 C           0.5381   73.1196   19.8561 C.ar    1  UNL1        0.1041
     23 N           1.7590   73.4508   20.3526 N.ar    1  UNL1       -0.2292
     24 C          -1.5107   73.6601   18.4716 C.3     1  UNL1        0.4200
     25 F          -1.5474   72.3095   18.1709 F       1  UNL1       -0.1658
     26 F          -2.5149   73.9476   19.3770 F       1  UNL1       -0.1658
     27 F          -1.7382   74.3697   17.3050 F       1  UNL1       -0.1658
     28 C           8.1581   77.8581   29.7121 C.3     1  UNL1        0.1535
     29 C           8.3232   79.3506   29.9186 C.2     1  UNL1        0.2443
     30 O           7.5345   80.1627   29.3646 O.2     1  UNL1       -0.2730
     31 N           9.4173   79.8342   30.7174 N.am    1  UNL1       -0.2825
     32 H          10.2269   79.1876   30.8555 H       1  UNL1        0.1549
     33 C           9.4851   81.1233   31.3581 C.ar    1  UNL1        0.0535
     34 C           9.9307   82.2763   30.6855 C.ar    1  UNL1        0.0353
     35 C           9.9187   83.5086   31.3435 C.ar    1  UNL1        0.1002
     36 N           9.4724   83.5957   32.6236 N.ar    1  UNL1       -0.2422
     37 C           9.0261   82.5030   33.2962 C.ar    1  UNL1        0.1002
     38 C           9.0185   81.2526   32.6747 C.ar    1  UNL1        0.0353
     39 C           7.3644   77.1673   30.8457 C.3     1  UNL1        0.0569
     40 C           8.4947   74.3160   29.6350 C.3     1  UNL1        0.0311
     41 C           7.0755   74.3046   29.1440 C.ar    1  UNL1       -0.0207
     42 C           6.6497   73.2701   28.2798 C.ar    1  UNL1       -0.0042
     43 C           5.3125   73.1914   27.8472 C.ar    1  UNL1        0.0012
     44 C           4.3705   74.1344   28.2775 C.ar    1  UNL1        0.0169
     45 C           4.7994   75.1495   29.1281 C.ar    1  UNL1        0.0560
     46 N           4.0461   76.1522   29.6066 N.ar    1  UNL1       -0.3523
     47 C           4.8743   76.9319   30.3290 C.ar    1  UNL1        0.0681
     48 C           6.1672   76.4186   30.3192 C.ar    1  UNL1       -0.0020
     49 C           6.1107   75.2563   29.5441 C.ar    1  UNL1        0.0092
     50 H           3.0315   76.3207   29.4254 H       1  UNL1        0.1660
@<TRIPOS>BOND
     1    40    41    1
     2    41    42   ar
     3    42    43   ar
     4    43    44   ar
     5    44    45   ar
     6    45    46   ar
     7    46    47   ar
     8    47    48   ar
     9    48    39    1
    10    39    28    1
    11    28     1    1
    12     1     2   am
    13     2     3    2
    14     2     5    1
    15     5     6   ar
    16     6     7   ar
    17     7     8   ar
    18     8    12    1
    19    12    13    1
    20    13    14    1
    21    14    15    1
    22    15    18    1
    23    18    19   ar
    24    19    20   ar
    25    20    21   ar
    26    21    24    1
    27    24    25    1
    28    24    26    1
    29    24    27    1
    30    21    22   ar
    31    22    23   ar
    32    15    16    1
    33    16    17    1
    34     8     9   ar
    35     9    10   ar
    36    10    11    1
    37    28    29    1
    38    29    30    2
    39    29    31   am
    40    31    33    1
    41    33    34   ar
    42    34    35   ar
    43    35    36   ar
    44    36    37   ar
    45    37    38   ar
    46    48    49   ar
    47    49    41   ar
    48    49    45   ar
    49    10     5   ar
    50    38    33   ar
    51    17    12    1
    52    23    18   ar
    53    46    50    1
    54     1     4    1
    55    31    32    1
@<TRIPOS>MOLECULE
*****
 50 55 0 0 0
SMALL
GASTEIGER

@<TRIPOS>ATOM
      1 N           8.9111   77.2724   27.2918 N.am    1  UNL1       -0.2945
      2 C           9.4937   76.8938   26.0295 C.2     1  UNL1        0.2483
      3 O          10.7439   76.9289   25.8702 O.2     1  UNL1       -0.2701
      4 H           7.8747   77.3961   27.3380 H       1  UNL1        0.1501
      5 C           8.6377   76.4817   24.8949 C.ar    1  UNL1        0.0808
      6 C           9.2024   76.3418   23.6162 C.ar    1  UNL1        0.0080
      7 C           8.4139   75.9553   22.5294 C.ar    1  UNL1        0.0148
      8 C           7.0460   75.6955   22.7011 C.ar    1  UNL1        0.0502
      9 C           6.4841   75.8115   23.9821 C.ar    1  UNL1        0.0443
     10 C           7.2698   76.1980   25.0725 C.ar    1  UNL1        0.1457
     11 F           6.7015   76.2380   26.3042 F       1  UNL1       -0.2040
     12 N           6.2347   75.2851   21.5846 N.pl3   1  UNL1       -0.3040
     13 C           5.8440   76.2504   20.5519 C.3     1  UNL1        0.1123
     14 C           4.3273   76.2094   20.3655 C.3     1  UNL1        0.1136
     15 N           3.8429   74.8295   20.1977 N.pl3   1  UNL1       -0.2897
     16 C           4.7717   73.6950   20.3399 C.3     1  UNL1        0.1136
     17 C           5.7218   73.9083   21.5282 C.3     1  UNL1        0.1123
     18 C           2.4716   74.6276   19.7970 C.ar    1  UNL1        0.1318
     19 C           1.7668   75.6049   19.0743 C.ar    1  UNL1        0.0343
     20 C           0.4375   75.3740   18.7171 C.ar    1  UNL1        0.0083
     21 C          -0.2017   74.1855   19.0998 C.ar    1  UNL1        0.0906
     22 C           0.5399   73.2293   19.8103 C.ar    1  UNL1        0.1041
     23 N           1.8341   73.4749   20.1445 N.ar    1  UNL1       -0.2292
     24 C          -1.6211   73.9030   18.6779 C.3     1  UNL1        0.4200
     25 F          -1.9776   74.6967   17.6014 F       1  UNL1       -0.1658
     26 F          -1.7315   72.5740   18.3138 F       1  UNL1       -0.1658
     27 F          -2.4998   74.1610   19.7158 F       1  UNL1       -0.1658
     28 C           9.6682   77.5689   28.5175 C.3     1  UNL1        0.1535
     29 C           9.5882   79.0361   28.8894 C.2     1  UNL1        0.2443
     30 O           9.0121   79.8575   28.1266 O.2     1  UNL1       -0.2730
     31 N          10.2160   79.4906   30.1011 N.am    1  UNL1       -0.2825
     32 H          10.9617   78.8810   30.5074 H       1  UNL1        0.1549
     33 C           9.8933   80.7019   30.8121 C.ar    1  UNL1        0.0535
     34 C          10.2200   81.9772   30.3148 C.ar    1  UNL1        0.0353
     35 C           9.8288   83.1163   31.0226 C.ar    1  UNL1        0.1002
     36 N           9.1299   82.9948   32.1813 N.ar    1  UNL1       -0.2422
     37 C           8.7903   81.7784   32.6817 C.ar    1  UNL1        0.1002
     38 C           9.1591   80.6143   32.0043 C.ar    1  UNL1        0.0353
     39 C           9.2605   76.6219   29.6703 C.3     1  UNL1        0.0569
     40 C           6.4600   77.9109   30.8407 C.3     1  UNL1        0.0311
     41 C           5.9973   76.5543   30.3930 C.ar    1  UNL1       -0.0207
     42 C           4.6695   76.1512   30.6625 C.ar    1  UNL1       -0.0042
     43 C           4.1811   74.9126   30.2061 C.ar    1  UNL1        0.0012
     44 C           5.0021   74.0567   29.4610 C.ar    1  UNL1        0.0169
     45 C           6.3082   74.4621   29.2008 C.ar    1  UNL1        0.0560
     46 N           7.2386   73.7571   28.5380 N.ar    1  UNL1       -0.3523
     47 C           8.3660   74.4940   28.5770 C.ar    1  UNL1        0.0681
     48 C           8.1524   75.6848   29.2638 C.ar    1  UNL1       -0.0020
     49 C           6.8116   75.6620   29.6597 C.ar    1  UNL1        0.0092
     50 H           7.1273   72.8104   28.1115 H       1  UNL1        0.1660
@<TRIPOS>BOND
     1    40    41    1
     2    41    42   ar
     3    42    43   ar
     4    43    44   ar
     5    44    45   ar
     6    45    46   ar
     7    46    47   ar
     8    47    48   ar
     9    48    39    1
    10    39    28    1
    11    28     1    1
    12     1     2   am
    13     2     3    2
    14     2     5    1
    15     5     6   ar
    16     6     7   ar
    17     7     8   ar
    18     8    12    1
    19    12    13    1
    20    13    14    1
    21    14    15    1
    22    15    18    1
    23    18    19   ar
    24    19    20   ar
    25    20    21   ar
    26    21    24    1
    27    24    25    1
    28    24    26    1
    29    24    27    1
    30    21    22   ar
    31    22    23   ar
    32    15    16    1
    33    16    17    1
    34     8     9   ar
    35     9    10   ar
    36    10    11    1
    37    28    29    1
    38    29    30    2
    39    29    31   am
    40    31    33    1
    41    33    34   ar
    42    34    35   ar
    43    35    36   ar
    44    36    37   ar
    45    37    38   ar
    46    48    49   ar
    47    49    41   ar
    48    49    45   ar
    49    10     5   ar
    50    38    33   ar
    51    17    12    1
    52    23    18   ar
    53    46    50    1
    54     1     4    1
    55    31    32    1
@<TRIPOS>MOLECULE
*****
 50 55 0 0 0
SMALL
GASTEIGER

@<TRIPOS>ATOM
      1 N           7.3586   75.7673   23.3055 N.am    1  UNL1       -0.2945
      2 C           8.2277   75.7638   24.4546 C.2     1  UNL1        0.2483
      3 O           8.1720   74.8221   25.2911 O.2     1  UNL1       -0.2701
      4 H           7.3089   76.6371   22.7287 H       1  UNL1        0.1501
      5 C           9.1805   76.8724   24.6855 C.ar    1  UNL1        0.0808
      6 C           8.6941   78.1783   24.8626 C.ar    1  UNL1        0.0080
      7 C           9.5744   79.2413   25.0805 C.ar    1  UNL1        0.0148
      8 C          10.9584   79.0181   25.1314 C.ar    1  UNL1        0.0502
      9 C          11.4459   77.7108   24.9785 C.ar    1  UNL1        0.0443
     10 C          10.5681   76.6442   24.7602 C.ar    1  UNL1        0.1457
     11 F          11.0756   75.3881   24.6794 F       1  UNL1       -0.2040
     12 N          11.8661   80.1105   25.3683 N.pl3   1  UNL1       -0.3040
     13 C          11.3901   81.3573   25.9763 C.3     1  UNL1        0.1123
     14 C          11.7996   82.5398   25.0984 C.3     1  UNL1        0.1136
     15 N          13.2275   82.4794   24.7460 N.pl3   1  UNL1       -0.2897
     16 C          14.0384   81.3124   25.1343 C.3     1  UNL1        0.1136
     17 C          13.2609   80.0056   24.9151 C.3     1  UNL1        0.1123
     18 C          13.8252   83.6254   24.1050 C.ar    1  UNL1        0.1318
     19 C          13.6317   84.9265   24.5991 C.ar    1  UNL1        0.0343
     20 C          14.2183   86.0087   23.9413 C.ar    1  UNL1        0.0083
     21 C          14.9748   85.8039   22.7779 C.ar    1  UNL1        0.0906
     22 C          15.1548   84.4885   22.3234 C.ar    1  UNL1        0.1041
     23 N          14.5763   83.4500   22.9821 N.ar    1  UNL1       -0.2292
     24 C          15.6543   86.9585   22.0868 C.3     1  UNL1        0.4200
     25 F          16.8755   87.2314   22.6785 F       1  UNL1       -0.1658
     26 F          15.8592   86.6366   20.7582 F       1  UNL1       -0.1658
     27 F          14.8735   88.0992   22.1594 F       1  UNL1       -0.1658
     28 C           6.4740   74.6605   22.9109 C.3     1  UNL1        0.1535
     29 C           5.1061   75.1553   22.4848 C.2     1  UNL1        0.2443
     30 O           4.2959   74.3778   21.9125 O.2     1  UNL1       -0.2730
     31 N           4.7578   76.5342   22.6993 N.am    1  UNL1       -0.2825
     32 H           5.5457   77.2074   22.8364 H       1  UNL1        0.1549
     33 C           3.4188   77.0636   22.7604 C.ar    1  UNL1        0.0535
     34 C           2.5693   77.0949   21.6389 C.ar    1  UNL1        0.0353
     35 C           1.2616   77.5671   21.7752 C.ar    1  UNL1        0.1002
     36 N           0.8090   77.9872   22.9853 N.ar    1  UNL1       -0.2422
     37 C           1.6011   77.9595   24.0886 C.ar    1  UNL1        0.1002
     38 C           2.9139   77.4923   23.9970 C.ar    1  UNL1        0.0353
     39 C           7.1508   73.7505   21.8593 C.3     1  UNL1        0.0569
     40 C           9.0478   71.1055   22.3874 C.3     1  UNL1        0.0311
     41 C          10.0805   72.1848   22.2334 C.ar    1  UNL1       -0.0207
     42 C          11.4426   71.8767   22.4522 C.ar    1  UNL1       -0.0042
     43 C          12.4452   72.8455   22.2587 C.ar    1  UNL1        0.0012
     44 C          12.1114   74.1367   21.8309 C.ar    1  UNL1        0.0169
     45 C          10.7674   74.4308   21.6183 C.ar    1  UNL1        0.0560
     46 N          10.2666   75.6190   21.2450 N.ar    1  UNL1       -0.3523
     47 C           8.9274   75.4714   21.2228 C.ar    1  UNL1        0.0681
     48 C           8.5690   74.1747   21.5771 C.ar    1  UNL1       -0.0020
     49 C           9.7689   73.5012   21.8250 C.ar    1  UNL1        0.0092
     50 H          10.8003   76.4950   21.0495 H       1  UNL1        0.1660
@<TRIPOS>BOND
     1    40    41    1
     2    41    42   ar
     3    42    43   ar
     4    43    44   ar
     5    44    45   ar
     6    45    46   ar
     7    46    47   ar
     8    47    48   ar
     9    48    39    1
    10    39    28    1
    11    28     1    1
    12     1     2   am
    13     2     3    2
    14     2     5    1
    15     5     6   ar
    16     6     7   ar
    17     7     8   ar
    18     8    12    1
    19    12    13    1
    20    13    14    1
    21    14    15    1
    22    15    18    1
    23    18    19   ar
    24    19    20   ar
    25    20    21   ar
    26    21    24    1
    27    24    25    1
    28    24    26    1
    29    24    27    1
    30    21    22   ar
    31    22    23   ar
    32    15    16    1
    33    16    17    1
    34     8     9   ar
    35     9    10   ar
    36    10    11    1
    37    28    29    1
    38    29    30    2
    39    29    31   am
    40    31    33    1
    41    33    34   ar
    42    34    35   ar
    43    35    36   ar
    44    36    37   ar
    45    37    38   ar
    46    48    49   ar
    47    49    41   ar
    48    49    45   ar
    49    10     5   ar
    50    38    33   ar
    51    17    12    1
    52    23    18   ar
    53    46    50    1
    54     1     4    1
    55    31    32    1
@<TRIPOS>MOLECULE
*****
 50 55 0 0 0
SMALL
GASTEIGER

@<TRIPOS>ATOM
      1 N           7.2357   75.6934   23.2837 N.am    1  UNL1       -0.2945
      2 C           8.0991   75.6863   24.4372 C.2     1  UNL1        0.2483
      3 O           8.0417   74.7401   25.2685 O.2     1  UNL1       -0.2701
      4 H           7.1866   76.5660   22.7112 H       1  UNL1        0.1501
      5 C           9.0477   76.7962   24.6786 C.ar    1  UNL1        0.0808
      6 C           8.5568   78.0997   24.8613 C.ar    1  UNL1        0.0080
      7 C           9.4331   79.1638   25.0892 C.ar    1  UNL1        0.0148
      8 C          10.8175   78.9443   25.1446 C.ar    1  UNL1        0.0502
      9 C          11.3094   77.6394   24.9860 C.ar    1  UNL1        0.0443
     10 C          10.4356   76.5715   24.7578 C.ar    1  UNL1        0.1457
     11 F          10.9470   75.3174   24.6717 F       1  UNL1       -0.2040
     12 N          11.7210   80.0379   25.3917 N.pl3   1  UNL1       -0.3040
     13 C          11.2323   81.2922   25.9737 C.3     1  UNL1        0.1123
     14 C          11.6657   82.4641   25.0931 C.3     1  UNL1        0.1136
     15 N          13.1019   82.3975   24.7770 N.pl3   1  UNL1       -0.2897
     16 C          13.9006   81.2337   25.1984 C.3     1  UNL1        0.1136
     17 C          13.1265   79.9257   24.9747 C.3     1  UNL1        0.1123
     18 C          13.7174   83.5353   24.1383 C.ar    1  UNL1        0.1318
     19 C          13.5097   84.8427   24.6095 C.ar    1  UNL1        0.0343
     20 C          14.1147   85.9164   23.9545 C.ar    1  UNL1        0.0083
     21 C          14.9040   85.6967   22.8160 C.ar    1  UNL1        0.0906
     22 C          15.0971   84.3756   22.3841 C.ar    1  UNL1        0.1041
     23 N          14.5003   83.3455   23.0397 N.ar    1  UNL1       -0.2292
     24 C          15.6028   86.8425   22.1293 C.3     1  UNL1        0.4200
     25 F          15.9492   86.4975   20.8344 F       1  UNL1       -0.1658
     26 F          14.7571   87.9354   22.0936 F       1  UNL1       -0.1658
     27 F          16.7580   87.1880   22.8091 F       1  UNL1       -0.1658
     28 C           6.3561   74.5863   22.8790 C.3     1  UNL1        0.1535
     29 C           5.0869   75.0861   22.2181 C.2     1  UNL1        0.2443
     30 O           4.4271   76.0280   22.7338 O.2     1  UNL1       -0.2730
     31 N           4.6174   74.4445   21.0195 N.am    1  UNL1       -0.2825
     32 H           4.9692   73.4788   20.8285 H       1  UNL1        0.1549
     33 C           3.7206   75.0239   20.0516 C.ar    1  UNL1        0.0535
     34 C           2.3214   74.9534   20.1841 C.ar    1  UNL1        0.0353
     35 C           1.5051   75.5851   19.2427 C.ar    1  UNL1        0.1002
     36 N           2.0583   76.2705   18.2084 N.ar    1  UNL1       -0.2422
     37 C           3.4051   76.3658   18.0589 C.ar    1  UNL1        0.1002
     38 C           4.2573   75.7516   18.9790 C.ar    1  UNL1        0.0353
     39 C           7.1210   73.5461   22.0274 C.3     1  UNL1        0.0569
     40 C           9.1420   70.9773   22.4635 C.3     1  UNL1        0.0311
     41 C          10.1235   72.0936   22.2498 C.ar    1  UNL1       -0.0207
     42 C          11.5061   71.8380   22.3964 C.ar    1  UNL1       -0.0042
     43 C          12.4596   72.8426   22.1453 C.ar    1  UNL1        0.0012
     44 C          12.0549   74.1177   21.7308 C.ar    1  UNL1        0.0169
     45 C          10.6913   74.3600   21.5896 C.ar    1  UNL1        0.0560
     46 N          10.1268   75.5263   21.2389 N.ar    1  UNL1       -0.3523
     47 C           8.7948   75.3285   21.2893 C.ar    1  UNL1        0.0681
     48 C           8.5051   74.0215   21.6676 C.ar    1  UNL1       -0.0020
     49 C           9.7411   73.3949   21.8534 C.ar    1  UNL1        0.0092
     50 H          10.6158   76.4205   21.0114 H       1  UNL1        0.1660
@<TRIPOS>BOND
     1    40    41    1
     2    41    42   ar
     3    42    43   ar
     4    43    44   ar
     5    44    45   ar
     6    45    46   ar
     7    46    47   ar
     8    47    48   ar
     9    48    39    1
    10    39    28    1
    11    28     1    1
    12     1     2   am
    13     2     3    2
    14     2     5    1
    15     5     6   ar
    16     6     7   ar
    17     7     8   ar
    18     8    12    1
    19    12    13    1
    20    13    14    1
    21    14    15    1
    22    15    18    1
    23    18    19   ar
    24    19    20   ar
    25    20    21   ar
    26    21    24    1
    27    24    25    1
    28    24    26    1
    29    24    27    1
    30    21    22   ar
    31    22    23   ar
    32    15    16    1
    33    16    17    1
    34     8     9   ar
    35     9    10   ar
    36    10    11    1
    37    28    29    1
    38    29    30    2
    39    29    31   am
    40    31    33    1
    41    33    34   ar
    42    34    35   ar
    43    35    36   ar
    44    36    37   ar
    45    37    38   ar
    46    48    49   ar
    47    49    41   ar
    48    49    45   ar
    49    10     5   ar
    50    38    33   ar
    51    17    12    1
    52    23    18   ar
    53    46    50    1
    54     1     4    1
    55    31    32    1
@<TRIPOS>MOLECULE
*****
 50 55 0 0 0
SMALL
GASTEIGER

@<TRIPOS>ATOM
      1 N          10.1283   76.6045   25.8407 N.am    1  UNL1       -0.2945
      2 C          10.0982   75.5765   24.8315 C.2     1  UNL1        0.2483
      3 O          10.9807   74.6762   24.8146 O.2     1  UNL1       -0.2701
      4 H           9.4911   77.4247   25.7268 H       1  UNL1        0.1501
      5 C           9.0498   75.5726   23.7871 C.ar    1  UNL1        0.0808
      6 C           9.3100   76.1688   22.5421 C.ar    1  UNL1        0.0080
      7 C           8.3353   76.1787   21.5411 C.ar    1  UNL1        0.0148
      8 C           7.0828   75.5873   21.7636 C.ar    1  UNL1        0.0502
      9 C           6.8283   74.9701   22.9982 C.ar    1  UNL1        0.0443
     10 C           7.8013   74.9579   24.0027 C.ar    1  UNL1        0.1457
     11 F           7.5374   74.2971   25.1583 F       1  UNL1       -0.2040
     12 N           6.0816   75.5857   20.7287 N.pl3   1  UNL1       -0.3040
     13 C           5.3268   76.8046   20.4195 C.3     1  UNL1        0.1123
     14 C           3.8295   76.4998   20.4620 C.3     1  UNL1        0.1136
     15 N           3.5016   75.3012   19.6730 N.pl3   1  UNL1       -0.2897
     16 C           4.5757   74.4957   19.0668 C.3     1  UNL1        0.1136
     17 C           5.7534   74.3293   20.0392 C.3     1  UNL1        0.1123
     18 C           2.1120   74.9982   19.4305 C.ar    1  UNL1        0.1318
     19 C           1.2142   75.9813   18.9814 C.ar    1  UNL1        0.0343
     20 C          -0.1249   75.6484   18.7709 C.ar    1  UNL1        0.0083
     21 C          -0.5798   74.3474   19.0315 C.ar    1  UNL1        0.0906
     22 C           0.3504   73.3913   19.4673 C.ar    1  UNL1        0.1041
     23 N           1.6499   73.7378   19.6624 N.ar    1  UNL1       -0.2292
     24 C          -2.0121   73.9627   18.7611 C.3     1  UNL1        0.4200
     25 F          -2.0740   72.7604   18.0781 F       1  UNL1       -0.1658
     26 F          -2.6830   73.8334   19.9627 F       1  UNL1       -0.1658
     27 F          -2.6409   74.9288   17.9949 F       1  UNL1       -0.1658
     28 C          11.0393   76.6298   26.9951 C.3     1  UNL1        0.1535
     29 C          12.3652   77.2803   26.6539 C.2     1  UNL1        0.2443
     30 O          13.3529   77.1603   27.4275 O.2     1  UNL1       -0.2730
     31 N          12.4731   78.0747   25.4597 N.am    1  UNL1       -0.2825
     32 H          11.5832   78.4385   25.0491 H       1  UNL1        0.1549
     33 C          13.6977   78.3958   24.7712 C.ar    1  UNL1        0.0535
     34 C          14.3857   79.6052   24.9821 C.ar    1  UNL1        0.0353
     35 C          15.5987   79.8336   24.3281 C.ar    1  UNL1        0.1002
     36 N          16.1162   78.8906   23.4982 N.ar    1  UNL1       -0.2422
     37 C          15.4815   77.7091   23.2822 C.ar    1  UNL1        0.1002
     38 C          14.2680   77.4392   23.9183 C.ar    1  UNL1        0.0353
     39 C          10.3544   77.2498   28.2354 C.3     1  UNL1        0.0569
     40 C           8.3529   79.2614   29.9151 C.3     1  UNL1        0.0311
     41 C           7.7743   77.9176   30.2534 C.ar    1  UNL1       -0.0207
     42 C           6.7234   77.8329   31.1950 C.ar    1  UNL1       -0.0042
     43 C           6.1147   76.5992   31.4929 C.ar    1  UNL1        0.0012
     44 C           6.5325   75.4277   30.8490 C.ar    1  UNL1        0.0169
     45 C           7.5683   75.5210   29.9235 C.ar    1  UNL1        0.0560
     46 N           8.1167   74.5016   29.2439 N.ar    1  UNL1       -0.3523
     47 C           9.1196   75.0319   28.5168 C.ar    1  UNL1        0.0681
     48 C           9.2080   76.4042   28.7270 C.ar    1  UNL1       -0.0020
     49 C           8.1924   76.7174   29.6356 C.ar    1  UNL1        0.0092
     50 H           7.8499   73.4933   29.2954 H       1  UNL1        0.1660
@<TRIPOS>BOND
     1    40    41    1
     2    41    42   ar
     3    42    43   ar
     4    43    44   ar
     5    44    45   ar
     6    45    46   ar
     7    46    47   ar
     8    47    48   ar
     9    48    39    1
    10    39    28    1
    11    28     1    1
    12     1     2   am
    13     2     3    2
    14     2     5    1
    15     5     6   ar
    16     6     7   ar
    17     7     8   ar
    18     8    12    1
    19    12    13    1
    20    13    14    1
    21    14    15    1
    22    15    18    1
    23    18    19   ar
    24    19    20   ar
    25    20    21   ar
    26    21    24    1
    27    24    25    1
    28    24    26    1
    29    24    27    1
    30    21    22   ar
    31    22    23   ar
    32    15    16    1
    33    16    17    1
    34     8     9   ar
    35     9    10   ar
    36    10    11    1
    37    28    29    1
    38    29    30    2
    39    29    31   am
    40    31    33    1
    41    33    34   ar
    42    34    35   ar
    43    35    36   ar
    44    36    37   ar
    45    37    38   ar
    46    48    49   ar
    47    49    41   ar
    48    49    45   ar
    49    10     5   ar
    50    38    33   ar
    51    17    12    1
    52    23    18   ar
    53    46    50    1
    54     1     4    1
    55    31    32    1
@<TRIPOS>MOLECULE
*****
 50 55 0 0 0
SMALL
GASTEIGER

@<TRIPOS>ATOM
      1 N          10.1656   76.7502   25.8342 N.am    1  UNL1       -0.2945
      2 C          10.0984   75.6611   24.8932 C.2     1  UNL1        0.2483
      3 O          10.9372   74.7214   24.9474 O.2     1  UNL1       -0.2701
      4 H           9.5696   77.5900   25.6581 H       1  UNL1        0.1501
      5 C           9.0632   75.6379   23.8360 C.ar    1  UNL1        0.0808
      6 C           9.3681   76.1320   22.5568 C.ar    1  UNL1        0.0080
      7 C           8.4066   76.1220   21.5431 C.ar    1  UNL1        0.0148
      8 C           7.1227   75.6121   21.7871 C.ar    1  UNL1        0.0502
      9 C           6.8225   75.0960   23.0574 C.ar    1  UNL1        0.0443
     10 C           7.7820   75.1042   24.0747 C.ar    1  UNL1        0.1457
     11 F           7.4710   74.5397   25.2690 F       1  UNL1       -0.2040
     12 N           6.1346   75.5896   20.7399 N.pl3   1  UNL1       -0.3040
     13 C           5.3917   76.8045   20.3893 C.3     1  UNL1        0.1123
     14 C           3.8920   76.5103   20.4207 C.3     1  UNL1        0.1136
     15 N           3.5663   75.2934   19.6592 N.pl3   1  UNL1       -0.2897
     16 C           4.6427   74.4657   19.0880 C.3     1  UNL1        0.1136
     17 C           5.8070   74.3176   20.0793 C.3     1  UNL1        0.1123
     18 C           2.1779   74.9928   19.4070 C.ar    1  UNL1        0.1318
     19 C           1.2805   75.9819   18.9703 C.ar    1  UNL1        0.0343
     20 C          -0.0573   75.6509   18.7499 C.ar    1  UNL1        0.0083
     21 C          -0.5117   74.3454   18.9882 C.ar    1  UNL1        0.0906
     22 C           0.4181   73.3835   19.4121 C.ar    1  UNL1        0.1041
     23 N           1.7165   73.7283   19.6172 N.ar    1  UNL1       -0.2292
     24 C          -1.9425   73.9635   18.7067 C.3     1  UNL1        0.4200
     25 F          -2.5052   74.8263   17.7821 F       1  UNL1       -0.1658
     26 F          -1.9793   72.6768   18.2029 F       1  UNL1       -0.1658
     27 F          -2.6991   74.0164   19.8646 F       1  UNL1       -0.1658
     28 C          11.0634   76.8082   26.9977 C.3     1  UNL1        0.1535
     29 C          12.4187   77.3830   26.6370 C.2     1  UNL1        0.2443
     30 O          13.4179   77.1742   27.3763 O.2     1  UNL1       -0.2730
     31 N          12.5446   78.2078   25.4654 N.am    1  UNL1       -0.2825
     32 H          11.6692   78.6415   25.0934 H       1  UNL1        0.1549
     33 C          13.7677   78.4720   24.7506 C.ar    1  UNL1        0.0535
     34 C          14.5139   79.6494   24.9437 C.ar    1  UNL1        0.0353
     35 C          15.7220   79.8216   24.2638 C.ar    1  UNL1        0.1002
     36 N          16.1788   78.8548   23.4258 N.ar    1  UNL1       -0.2422
     37 C          15.4870   77.7028   23.2263 C.ar    1  UNL1        0.1002
     38 C          14.2762   77.4891   23.8884 C.ar    1  UNL1        0.0353
     39 C          10.3901   77.5290   28.1890 C.3     1  UNL1        0.0569
     40 C           9.5625   74.5160   29.2430 C.3     1  UNL1        0.0311
     41 C           8.2524   75.0103   28.7002 C.ar    1  UNL1       -0.0207
     42 C           7.1454   74.1324   28.6558 C.ar    1  UNL1       -0.0042
     43 C           5.8859   74.5759   28.2106 C.ar    1  UNL1        0.0012
     44 C           5.7015   75.9063   27.8133 C.ar    1  UNL1        0.0169
     45 C           6.7976   76.7632   27.8602 C.ar    1  UNL1        0.0560
     46 N           6.8113   78.0519   27.4848 N.ar    1  UNL1       -0.3523
     47 C           8.0824   78.4731   27.6358 C.ar    1  UNL1        0.0681
     48 C           8.8870   77.4467   28.1200 C.ar    1  UNL1       -0.0020
     49 C           8.0450   76.3408   28.2715 C.ar    1  UNL1        0.0092
     50 H           6.0104   78.6088   27.1120 H       1  UNL1        0.1660
@<TRIPOS>BOND
     1    40    41    1
     2    41    42   ar
     3    42    43   ar
     4    43    44   ar
     5    44    45   ar
     6    45    46   ar
     7    46    47   ar
     8    47    48   ar
     9    48    39    1
    10    39    28    1
    11    28     1    1
    12     1     2   am
    13     2     3    2
    14     2     5    1
    15     5     6   ar
    16     6     7   ar
    17     7     8   ar
    18     8    12    1
    19    12    13    1
    20    13    14    1
    21    14    15    1
    22    15    18    1
    23    18    19   ar
    24    19    20   ar
    25    20    21   ar
    26    21    24    1
    27    24    25    1
    28    24    26    1
    29    24    27    1
    30    21    22   ar
    31    22    23   ar
    32    15    16    1
    33    16    17    1
    34     8     9   ar
    35     9    10   ar
    36    10    11    1
    37    28    29    1
    38    29    30    2
    39    29    31   am
    40    31    33    1
    41    33    34   ar
    42    34    35   ar
    43    35    36   ar
    44    36    37   ar
    45    37    38   ar
    46    48    49   ar
    47    49    41   ar
    48    49    45   ar
    49    10     5   ar
    50    38    33   ar
    51    17    12    1
    52    23    18   ar
    53    46    50    1
    54     1     4    1
    55    31    32    1
@<TRIPOS>MOLECULE
*****
 50 55 0 0 0
SMALL
GASTEIGER

@<TRIPOS>ATOM
      1 N           5.7670   77.4972   25.3389 N.am    1  UNL1       -0.2945
      2 C           7.1098   76.9899   25.2138 C.2     1  UNL1        0.2483
      3 O           7.3102   75.7571   25.0417 O.2     1  UNL1       -0.2701
      4 H           5.6418   78.4870   25.6490 H       1  UNL1        0.1501
      5 C           8.2735   77.8990   25.3086 C.ar    1  UNL1        0.0808
      6 C           9.1399   78.0321   24.2108 C.ar    1  UNL1        0.0080
      7 C          10.2460   78.8832   24.2773 C.ar    1  UNL1        0.0148
      8 C          10.5042   79.6226   25.4412 C.ar    1  UNL1        0.0502
      9 C           9.6270   79.5097   26.5311 C.ar    1  UNL1        0.0443
     10 C           8.5188   78.6590   26.4686 C.ar    1  UNL1        0.1457
     11 F           7.6619   78.6259   27.5204 F       1  UNL1       -0.2040
     12 N          11.6366   80.5096   25.5069 N.pl3   1  UNL1       -0.3040
     13 C          11.5819   81.7301   26.3181 C.3     1  UNL1        0.1123
     14 C          11.9770   82.9304   25.4579 C.3     1  UNL1        0.1136
     15 N          13.2290   82.6789   24.7257 N.pl3   1  UNL1       -0.2897
     16 C          13.8691   81.3535   24.7847 C.3     1  UNL1        0.1136
     17 C          12.8230   80.2329   24.6836 C.3     1  UNL1        0.1123
     18 C          13.8555   83.7820   24.0385 C.ar    1  UNL1        0.1318
     19 C          13.6669   85.1098   24.4574 C.ar    1  UNL1        0.0343
     20 C          14.2820   86.1484   23.7565 C.ar    1  UNL1        0.0083
     21 C          15.0622   85.8727   22.6239 C.ar    1  UNL1        0.0906
     22 C          15.2362   84.5328   22.2449 C.ar    1  UNL1        0.1041
     23 N          14.6298   83.5379   22.9445 N.ar    1  UNL1       -0.2292
     24 C          15.7717   86.9807   21.8881 C.3     1  UNL1        0.4200
     25 F          15.0164   88.1405   21.9061 F       1  UNL1       -0.1658
     26 F          16.9880   87.2257   22.4976 F       1  UNL1       -0.1658
     27 F          15.9916   86.6277   20.5679 F       1  UNL1       -0.1658
     28 C           4.5426   76.7094   25.1302 C.3     1  UNL1        0.1535
     29 C           4.5164   76.0586   23.7615 C.2     1  UNL1        0.2443
     30 O           3.8955   76.6013   22.8084 O.2     1  UNL1       -0.2730
     31 N           5.1698   74.7914   23.5718 N.am    1  UNL1       -0.2825
     32 H           5.3544   74.2193   24.4270 H       1  UNL1        0.1549
     33 C           5.6080   74.2520   22.3093 C.ar    1  UNL1        0.0535
     34 C           4.7274   74.0483   21.2307 C.ar    1  UNL1        0.0353
     35 C           5.2234   73.5766   20.0129 C.ar    1  UNL1        0.1002
     36 N           6.5500   73.3226   19.8672 N.ar    1  UNL1       -0.2422
     37 C           7.4268   73.5191   20.8861 C.ar    1  UNL1        0.1002
     38 C           6.9735   73.9922   22.1192 C.ar    1  UNL1        0.0353
     39 C           4.3160   75.7094   26.2880 C.3     1  UNL1        0.0569
     40 C           6.5206   73.7804   27.8020 C.3     1  UNL1        0.0311
     41 C           6.1113   74.6962   28.9195 C.ar    1  UNL1       -0.0207
     42 C           6.6065   74.4633   30.2229 C.ar    1  UNL1       -0.0042
     43 C           6.2944   75.3344   31.2835 C.ar    1  UNL1        0.0012
     44 C           5.4931   76.4620   31.0636 C.ar    1  UNL1        0.0169
     45 C           5.0098   76.6829   29.7768 C.ar    1  UNL1        0.0560
     46 N           4.2038   77.6863   29.3955 N.ar    1  UNL1       -0.3523
     47 C           3.9362   77.4776   28.0915 C.ar    1  UNL1        0.0681
     48 C           4.5837   76.3350   27.6326 C.ar    1  UNL1       -0.0020
     49 C           5.2861   75.8276   28.7300 C.ar    1  UNL1        0.0092
     50 H           3.8251   78.4534   29.9945 H       1  UNL1        0.1660
@<TRIPOS>BOND
     1    40    41    1
     2    41    42   ar
     3    42    43   ar
     4    43    44   ar
     5    44    45   ar
     6    45    46   ar
     7    46    47   ar
     8    47    48   ar
     9    48    39    1
    10    39    28    1
    11    28     1    1
    12     1     2   am
    13     2     3    2
    14     2     5    1
    15     5     6   ar
    16     6     7   ar
    17     7     8   ar
    18     8    12    1
    19    12    13    1
    20    13    14    1
    21    14    15    1
    22    15    18    1
    23    18    19   ar
    24    19    20   ar
    25    20    21   ar
    26    21    24    1
    27    24    25    1
    28    24    26    1
    29    24    27    1
    30    21    22   ar
    31    22    23   ar
    32    15    16    1
    33    16    17    1
    34     8     9   ar
    35     9    10   ar
    36    10    11    1
    37    28    29    1
    38    29    30    2
    39    29    31   am
    40    31    33    1
    41    33    34   ar
    42    34    35   ar
    43    35    36   ar
    44    36    37   ar
    45    37    38   ar
    46    48    49   ar
    47    49    41   ar
    48    49    45   ar
    49    10     5   ar
    50    38    33   ar
    51    17    12    1
    52    23    18   ar
    53    46    50    1
    54     1     4    1
    55    31    32    1
@<TRIPOS>MOLECULE
*****
 50 55 0 0 0
SMALL
GASTEIGER

@<TRIPOS>ATOM
      1 N           7.6871   75.8953   22.9344 N.am    1  UNL1       -0.2945
      2 C           8.9804   75.7229   23.5459 C.2     1  UNL1        0.2483
      3 O           9.4252   74.5661   23.7772 O.2     1  UNL1       -0.2701
      4 H           7.2771   76.8560   22.9131 H       1  UNL1        0.1501
      5 C           9.7958   76.8954   23.9336 C.ar    1  UNL1        0.0808
      6 C           9.1632   78.1198   24.2056 C.ar    1  UNL1        0.0080
      7 C           9.9123   79.2409   24.5720 C.ar    1  UNL1        0.0148
      8 C          11.3086   79.1580   24.6793 C.ar    1  UNL1        0.0502
      9 C          11.9412   77.9299   24.4311 C.ar    1  UNL1        0.0443
     10 C          11.1951   76.8055   24.0642 C.ar    1  UNL1        0.1457
     11 F          11.8388   75.6229   23.8938 F       1  UNL1       -0.2040
     12 N          12.0808   80.3092   25.0688 N.pl3   1  UNL1       -0.3040
     13 C          11.4162   81.5266   25.5456 C.3     1  UNL1        0.1123
     14 C          11.9168   82.7269   24.7423 C.3     1  UNL1        0.1136
     15 N          13.3872   82.7576   24.6804 N.pl3   1  UNL1       -0.2897
     16 C          14.1764   81.6491   25.2447 C.3     1  UNL1        0.1136
     17 C          13.5416   80.2926   24.9026 C.3     1  UNL1        0.1123
     18 C          14.0271   83.9357   24.1473 C.ar    1  UNL1        0.1318
     19 C          14.0398   85.1485   24.8566 C.ar    1  UNL1        0.0343
     20 C          14.6597   86.2676   24.2988 C.ar    1  UNL1        0.0083
     21 C          15.2437   86.1918   23.0257 C.ar    1  UNL1        0.0906
     22 C          15.2209   84.9595   22.3547 C.ar    1  UNL1        0.1041
     23 N          14.6140   83.8824   22.9190 N.ar    1  UNL1       -0.2292
     24 C          15.9593   87.3792   22.4336 C.3     1  UNL1        0.4200
     25 F          15.2083   88.5310   22.5931 F       1  UNL1       -0.1658
     26 F          17.1749   87.5421   23.0711 F       1  UNL1       -0.1658
     27 F          16.1811   87.1909   21.0803 F       1  UNL1       -0.1658
     28 C           6.8564   74.8091   22.3927 C.3     1  UNL1        0.1535
     29 C           5.3837   75.0300   22.6752 C.2     1  UNL1        0.2443
     30 O           4.6174   74.0489   22.8721 O.2     1  UNL1       -0.2730
     31 N           4.8592   76.3693   22.6718 N.am    1  UNL1       -0.2825
     32 H           5.4172   77.0968   22.1697 H       1  UNL1        0.1549
     33 C           3.6430   76.7976   23.3155 C.ar    1  UNL1        0.0535
     34 C           3.4560   76.7094   24.7075 C.ar    1  UNL1        0.0353
     35 C           2.2773   77.1950   25.2788 C.ar    1  UNL1        0.1002
     36 N           1.3191   77.7564   24.4965 N.ar    1  UNL1       -0.2422
     37 C           1.4744   77.8657   23.1513 C.ar    1  UNL1        0.1002
     38 C           2.6386   77.3956   22.5400 C.ar    1  UNL1        0.0353
     39 C           7.1626   74.5630   20.8968 C.3     1  UNL1        0.0569
     40 C           7.0388   77.7828   20.1961 C.3     1  UNL1        0.0311
     41 C           5.7023   77.3185   19.6929 C.ar    1  UNL1       -0.0207
     42 C           4.7722   78.2707   19.2169 C.ar    1  UNL1       -0.0042
     43 C           3.5339   77.8696   18.6814 C.ar    1  UNL1        0.0012
     44 C           3.2032   76.5112   18.5977 C.ar    1  UNL1        0.0169
     45 C           4.1254   75.5809   19.0692 C.ar    1  UNL1        0.0560
     46 N           3.9607   74.2491   19.1005 N.ar    1  UNL1       -0.3523
     47 C           5.0640   73.7484   19.6903 C.ar    1  UNL1        0.0681
     48 C           5.9458   74.7688   20.0319 C.ar    1  UNL1       -0.0020
     49 C           5.3342   75.9562   19.6186 C.ar    1  UNL1        0.0092
     50 H           3.1298   73.7085   18.7721 H       1  UNL1        0.1660
@<TRIPOS>BOND
     1    40    41    1
     2    41    42   ar
     3    42    43   ar
     4    43    44   ar
     5    44    45   ar
     6    45    46   ar
     7    46    47   ar
     8    47    48   ar
     9    48    39    1
    10    39    28    1
    11    28     1    1
    12     1     2   am
    13     2     3    2
    14     2     5    1
    15     5     6   ar
    16     6     7   ar
    17     7     8   ar
    18     8    12    1
    19    12    13    1
    20    13    14    1
    21    14    15    1
    22    15    18    1
    23    18    19   ar
    24    19    20   ar
    25    20    21   ar
    26    21    24    1
    27    24    25    1
    28    24    26    1
    29    24    27    1
    30    21    22   ar
    31    22    23   ar
    32    15    16    1
    33    16    17    1
    34     8     9   ar
    35     9    10   ar
    36    10    11    1
    37    28    29    1
    38    29    30    2
    39    29    31   am
    40    31    33    1
    41    33    34   ar
    42    34    35   ar
    43    35    36   ar
    44    36    37   ar
    45    37    38   ar
    46    48    49   ar
    47    49    41   ar
    48    49    45   ar
    49    10     5   ar
    50    38    33   ar
    51    17    12    1
    52    23    18   ar
    53    46    50    1
    54     1     4    1
    55    31    32    1
@<TRIPOS>MOLECULE
*****
 50 55 0 0 0
SMALL
GASTEIGER

@<TRIPOS>ATOM
      1 N           5.1986   74.3978   22.2936 N.am    1  UNL1       -0.2945
      2 C           6.3439   73.7939   22.9258 C.2     1  UNL1        0.2483
      3 O           6.8529   72.7435   22.4494 O.2     1  UNL1       -0.2701
      4 H           4.7002   75.1610   22.8040 H       1  UNL1        0.1501
      5 C           6.9260   74.3795   24.1539 C.ar    1  UNL1        0.0808
      6 C           6.1954   74.3416   25.3531 C.ar    1  UNL1        0.0080
      7 C           6.7237   74.8893   26.5249 C.ar    1  UNL1        0.0148
      8 C           7.9958   75.4807   26.5218 C.ar    1  UNL1        0.0502
      9 C           8.7379   75.4989   25.3306 C.ar    1  UNL1        0.0443
     10 C           8.2128   74.9517   24.1556 C.ar    1  UNL1        0.1457
     11 F           8.9873   74.9344   23.0414 F       1  UNL1       -0.2040
     12 N           8.5467   76.0345   27.7314 N.pl3   1  UNL1       -0.3040
     13 C           7.8403   75.8875   29.0083 C.3     1  UNL1        0.1123
     14 C           7.6743   77.2610   29.6584 C.3     1  UNL1        0.1136
     15 N           8.9472   77.9996   29.6884 N.pl3   1  UNL1       -0.2897
     16 C          10.1419   77.4453   29.0286 C.3     1  UNL1        0.1136
     17 C           9.7822   76.8290   27.6681 C.3     1  UNL1        0.1123
     18 C           9.0153   79.2185   30.4574 C.ar    1  UNL1        0.1318
     19 C           8.7817   80.4722   29.8677 C.ar    1  UNL1        0.0343
     20 C           8.8698   81.6278   30.6456 C.ar    1  UNL1        0.0083
     21 C           9.2160   81.5426   32.0022 C.ar    1  UNL1        0.0906
     22 C           9.4296   80.2713   32.5566 C.ar    1  UNL1        0.1041
     23 N           9.3353   79.1598   31.7803 N.ar    1  UNL1       -0.2292
     24 C           9.2658   82.7783   32.8643 C.3     1  UNL1        0.4200
     25 F          10.0646   83.7475   32.2825 F       1  UNL1       -0.1658
     26 F           7.9865   83.2797   33.0152 F       1  UNL1       -0.1658
     27 F           9.7845   82.4820   34.1130 F       1  UNL1       -0.1658
     28 C           4.6249   73.9788   21.0057 C.3     1  UNL1        0.1535
     29 C           3.1577   74.3433   20.8959 C.2     1  UNL1        0.2443
     30 O           2.7404   75.4494   21.3327 O.2     1  UNL1       -0.2730
     31 N           2.2371   73.3949   20.3286 N.am    1  UNL1       -0.2825
     32 H           2.5370   72.3936   20.3114 H       1  UNL1        0.1549
     33 C           0.9478   73.7077   19.7660 C.ar    1  UNL1        0.0535
     34 C           0.5943   75.0114   19.3712 C.ar    1  UNL1        0.0353
     35 C          -0.6496   75.2409   18.7785 C.ar    1  UNL1        0.1002
     36 N          -1.5116   74.2103   18.5770 N.ar    1  UNL1       -0.2422
     37 C          -1.1955   72.9393   18.9374 C.ar    1  UNL1        0.1002
     38 C           0.0388   72.6655   19.5304 C.ar    1  UNL1        0.0353
     39 C           5.4741   74.4943   19.8203 C.3     1  UNL1        0.0569
     40 C           3.6370   76.5417   18.0018 C.3     1  UNL1        0.0311
     41 C           4.7377   77.4563   18.4568 C.ar    1  UNL1       -0.0207
     42 C           4.7918   78.7775   17.9570 C.ar    1  UNL1       -0.0042
     43 C           5.7719   79.6827   18.4055 C.ar    1  UNL1        0.0012
     44 C           6.7095   79.2932   19.3704 C.ar    1  UNL1        0.0169
     45 C           6.6485   77.9901   19.8565 C.ar    1  UNL1        0.0560
     46 N           7.4841   77.4390   20.7508 N.ar    1  UNL1       -0.3523
     47 C           7.0998   76.1541   20.8812 C.ar    1  UNL1        0.0681
     48 C           6.0033   75.8833   20.0690 C.ar    1  UNL1       -0.0020
     49 C           5.7097   77.0820   19.4118 C.ar    1  UNL1        0.0092
     50 H           8.2948   77.8980   21.2227 H       1  UNL1        0.1660
@<TRIPOS>BOND
     1    40    41    1
     2    41    42   ar
     3    42    43   ar
     4    43    44   ar
     5    44    45   ar
     6    45    46   ar
     7    46    47   ar
     8    47    48   ar
     9    48    39    1
    10    39    28    1
    11    28     1    1
    12     1     2   am
    13     2     3    2
    14     2     5    1
    15     5     6   ar
    16     6     7   ar
    17     7     8   ar
    18     8    12    1
    19    12    13    1
    20    13    14    1
    21    14    15    1
    22    15    18    1
    23    18    19   ar
    24    19    20   ar
    25    20    21   ar
    26    21    24    1
    27    24    25    1
    28    24    26    1
    29    24    27    1
    30    21    22   ar
    31    22    23   ar
    32    15    16    1
    33    16    17    1
    34     8     9   ar
    35     9    10   ar
    36    10    11    1
    37    28    29    1
    38    29    30    2
    39    29    31   am
    40    31    33    1
    41    33    34   ar
    42    34    35   ar
    43    35    36   ar
    44    36    37   ar
    45    37    38   ar
    46    48    49   ar
    47    49    41   ar
    48    49    45   ar
    49    10     5   ar
    50    38    33   ar
    51    17    12    1
    52    23    18   ar
    53    46    50    1
    54     1     4    1
    55    31    32    1
