@<TRIPOS>MOLECULE
*****
 51 56 0 0 0
SMALL
GASTEIGER

@<TRIPOS>ATOM
      1 N          61.8688   85.4433   11.6805 N.am    1  UNL1       -0.2945
      2 C          60.7412   86.2922   11.4182 C.2     1  UNL1        0.2483
      3 O          59.8748   86.4789   12.3161 O.2     1  UNL1       -0.2701
      4 H          62.4007   85.0654   10.8668 H       1  UNL1        0.1501
      5 C          60.5622   86.9259   10.0925 C.ar    1  UNL1        0.0808
      6 C          60.9265   88.2705    9.9107 C.ar    1  UNL1        0.0080
      7 C          60.7589   88.8905    8.6699 C.ar    1  UNL1        0.0148
      8 C          60.2354   88.1741    7.5826 C.ar    1  UNL1        0.0502
      9 C          59.8850   86.8271    7.7567 C.ar    1  UNL1        0.0443
     10 C          60.0494   86.2032    8.9971 C.ar    1  UNL1        0.1457
     11 F          59.7483   84.8852    9.1066 F       1  UNL1       -0.2040
     12 N          60.0580   88.8080    6.3019 N.pl3   1  UNL1       -0.3040
     13 C          61.1312   88.7783    5.3012 C.3     1  UNL1        0.1122
     14 C          61.1920   90.1149    4.5611 C.3     1  UNL1        0.1122
     15 N          59.8495   90.5076    4.1155 N.pl3   1  UNL1       -0.3041
     16 C          58.7756   90.5356    5.1159 C.3     1  UNL1        0.1122
     17 C          58.7154   89.1988    5.8556 C.3     1  UNL1        0.1122
     18 C          59.6754   91.1489    2.8378 C.ar    1  UNL1        0.0479
     19 C          60.7478   91.8256    2.2374 C.ar    1  UNL1        0.0145
     20 C          60.5878   92.4467    0.9955 C.ar    1  UNL1        0.0051
     21 C          59.3456   92.4177    0.3390 C.ar    1  UNL1        0.0715
     22 C          58.2805   91.7149    0.9278 C.ar    1  UNL1        0.0051
     23 C          58.4415   91.0933    2.1694 C.ar    1  UNL1        0.0145
     24 C          59.1866   93.0450   -1.0231 C.3     1  UNL1        0.4186
     25 F          58.0398   93.8164   -1.0377 F       1  UNL1       -0.1659
     26 F          60.2741   93.8477   -1.3215 F       1  UNL1       -0.1659
     27 F          59.0873   92.0707   -2.0014 F       1  UNL1       -0.1659
     28 C          62.1637   84.9302   13.0222 C.3     1  UNL1        0.1535
     29 C          62.8009   86.0096   13.8540 C.2     1  UNL1        0.2443
     30 O          63.6160   85.6864   14.7601 O.2     1  UNL1       -0.2730
     31 N          62.4268   87.3851   13.6684 N.am    1  UNL1       -0.2825
     32 H          61.5409   87.5865   13.1519 H       1  UNL1        0.1549
     33 C          63.1446   88.4971   14.2288 C.ar    1  UNL1        0.0535
     34 C          62.8189   89.0224   15.4910 C.ar    1  UNL1        0.0353
     35 C          63.5626   90.0870   16.0067 C.ar    1  UNL1        0.1002
     36 N          64.6022   90.6004   15.2974 N.ar    1  UNL1       -0.2422
     37 C          64.9511   90.1001   14.0828 C.ar    1  UNL1        0.1002
     38 C          64.2348   89.0351   13.5315 C.ar    1  UNL1        0.0353
     39 C          60.8930   84.3997   13.7154 C.3     1  UNL1        0.0569
     40 C          58.7253   82.4870   11.9467 C.ar    1  UNL1       -0.0211
     41 C          58.0777   81.4198   11.2807 C.ar    1  UNL1       -0.0042
     42 C          58.5447   80.0986   11.3933 C.ar    1  UNL1        0.0012
     43 C          59.6585   79.8067   12.1868 C.ar    1  UNL1        0.0169
     44 C          60.2869   80.8561   12.8500 C.ar    1  UNL1        0.0560
     45 N          61.3619   80.7482   13.6456 N.ar    1  UNL1       -0.3523
     46 C          61.6479   81.9955   14.0608 C.ar    1  UNL1        0.0681
     47 C          60.7454   82.9114   13.5311 C.ar    1  UNL1       -0.0020
     48 C          59.8566   82.1665   12.7419 C.ar    1  UNL1        0.0091
     49 H          61.8856   79.8766   13.8841 H       1  UNL1        0.1660
     50 C          57.3305   84.2133   13.1006 C.3     1  UNL1        0.0050
     51 C          58.1182   83.8640   11.8403 C.3     1  UNL1        0.0264
@<TRIPOS>BOND
     1    50    51    1
     2    51    40    1
     3    40    41   ar
     4    41    42   ar
     5    42    43   ar
     6    43    44   ar
     7    44    45   ar
     8    45    46   ar
     9    46    47   ar
    10    47    39    1
    11    39    28    1
    12    28     1    1
    13     1     2   am
    14     2     3    2
    15     2     5    1
    16     5     6   ar
    17     6     7   ar
    18     7     8   ar
    19     8    12    1
    20    12    13    1
    21    13    14    1
    22    14    15    1
    23    15    18    1
    24    18    19   ar
    25    19    20   ar
    26    20    21   ar
    27    21    24    1
    28    24    25    1
    29    24    26    1
    30    24    27    1
    31    21    22   ar
    32    22    23   ar
    33    15    16    1
    34    16    17    1
    35     8     9   ar
    36     9    10   ar
    37    10    11    1
    38    28    29    1
    39    29    30    2
    40    29    31   am
    41    31    33    1
    42    33    34   ar
    43    34    35   ar
    44    35    36   ar
    45    36    37   ar
    46    37    38   ar
    47    47    48   ar
    48    48    40   ar
    49    48    44   ar
    50    10     5   ar
    51    38    33   ar
    52    17    12    1
    53    23    18   ar
    54    45    49    1
    55     1     4    1
    56    31    32    1
