@<TRIPOS>MOLECULE
*****
 49 54 0 0 0
SMALL
GASTEIGER

@<TRIPOS>ATOM
      1 C          13.5847   83.1689   24.7745 C.2     1  UNL1        0.2483
      2 O          14.1595   83.6708   25.7792 O.2     1  UNL1       -0.2701
      3 N          13.7578   83.7733   23.4815 N.am    1  UNL1       -0.2945
      4 H          13.3955   83.2722   22.6415 H       1  UNL1        0.1501
      5 C          11.1439   79.6502   25.2752 C.ar    1  UNL1        0.0502
      6 C          10.5603   80.9271   25.2322 C.ar    1  UNL1        0.0148
      7 C          11.3521   82.0663   25.0680 C.ar    1  UNL1        0.0080
      8 C          12.7476   81.9564   24.9418 C.ar    1  UNL1        0.0808
      9 C          13.3362   80.6784   24.9985 C.ar    1  UNL1        0.1457
     10 F          14.6794   80.5244   24.8764 F       1  UNL1       -0.2040
     11 C          12.5405   79.5402   25.1608 C.ar    1  UNL1        0.0443
     12 N           8.5946   76.3672   26.1407 N.pl3   1  UNL1       -0.3034
     13 C           8.0196   77.5761   25.5405 C.3     1  UNL1        0.1123
     14 C           9.0569   78.3418   24.7111 C.3     1  UNL1        0.1122
     15 N          10.3238   78.4736   25.4482 N.pl3   1  UNL1       -0.3040
     16 C          10.8418   77.3431   26.2379 C.3     1  UNL1        0.1122
     17 C          10.0228   76.0701   26.0096 C.3     1  UNL1        0.1123
     18 C           5.9992   73.4911   27.8863 C.ar    1  UNL1       -0.0107
     19 C           6.1123   73.6096   26.4921 C.ar    1  UNL1       -0.0021
     20 C           6.9611   74.5597   25.9269 C.ar    1  UNL1        0.0151
     21 C           7.7217   75.4024   26.7426 C.ar    1  UNL1        0.0594
     22 C           7.6311   75.2915   28.1413 C.ar    1  UNL1        0.0811
     23 CL          8.5817   76.3707   29.1632 Cl      1  UNL1       -0.0801
     24 C           6.7750   74.3321   28.7178 C.ar    1  UNL1        0.0654
     25 CL          6.6864   74.1907   30.4767 Cl      1  UNL1       -0.0817
     26 C           3.9421   73.0567   29.2390 C.3     1  UNL1        0.0051
     27 C           5.0900   72.4274   28.4556 C.3     1  UNL1        0.0272
     28 C          14.4940   85.0311   23.3056 C.3     1  UNL1        0.1535
     29 C          14.9778   85.1710   21.8839 C.2     1  UNL1        0.2443
     30 O          16.1289   85.6371   21.6601 O.2     1  UNL1       -0.2730
     31 N          14.1689   84.6786   20.8040 N.am    1  UNL1       -0.2825
     32 H          13.3299   84.1049   21.0482 H       1  UNL1        0.1549
     33 C          14.5569   84.7481   19.4225 C.ar    1  UNL1        0.0535
     34 C          15.4370   83.8090   18.8601 C.ar    1  UNL1        0.0353
     35 C          15.7963   83.9224   17.5147 C.ar    1  UNL1        0.1002
     36 N          15.3062   84.9421   16.7609 N.ar    1  UNL1       -0.2422
     37 C          14.4665   85.8743   17.2839 C.ar    1  UNL1        0.1002
     38 C          14.0842   85.7990   18.6253 C.ar    1  UNL1        0.0353
     39 C          13.6457   86.2480   23.7400 C.3     1  UNL1        0.0569
     40 C          13.7535   87.4257   22.8063 C.ar    1  UNL1       -0.0017
     41 C          14.6525   88.4851   22.9003 C.ar    1  UNL1        0.0681
     42 N          14.4219   89.3898   21.9219 N.ar    1  UNL1       -0.3523
     43 C          13.3864   88.9126   21.2102 C.ar    1  UNL1        0.0563
     44 C          12.7788   89.5039   20.1033 C.ar    1  UNL1        0.0170
     45 C          11.6961   88.8300   19.5091 C.ar    1  UNL1        0.0015
     46 C          11.2532   87.5924   20.0255 C.ar    1  UNL1        0.0001
     47 C          11.8880   87.0180   21.1412 C.ar    1  UNL1        0.0012
     48 C          12.9530   87.7138   21.7158 C.ar    1  UNL1        0.0131
     49 H          14.9426   90.2802   21.7589 H       1  UNL1        0.1660
@<TRIPOS>BOND
     1    26    27    1
     2    27    18    1
     3    18    19   ar
     4    19    20   ar
     5    20    21   ar
     6    21    12    1
     7    12    13    1
     8    13    14    1
     9    14    15    1
    10    15     5    1
    11     5     6   ar
    12     6     7   ar
    13     7     8   ar
    14     8     1    1
    15     1     2    2
    16     1     3   am
    17     3    28    1
    18    28    39    1
    19    39    40    1
    20    40    41   ar
    21    41    42   ar
    22    42    43   ar
    23    43    44   ar
    24    44    45   ar
    25    45    46   ar
    26    46    47   ar
    27    47    48   ar
    28    28    29    1
    29    29    30    2
    30    29    31   am
    31    31    33    1
    32    33    34   ar
    33    34    35   ar
    34    35    36   ar
    35    36    37   ar
    36    37    38   ar
    37     8     9   ar
    38     9    10    1
    39     9    11   ar
    40    15    16    1
    41    16    17    1
    42    21    22   ar
    43    22    23    1
    44    22    24   ar
    45    24    25    1
    46    24    18   ar
    47    17    12    1
    48    11     5   ar
    49    48    40   ar
    50    38    33   ar
    51    48    43   ar
    52     3     4    1
    53    42    49    1
    54    31    32    1
@<TRIPOS>MOLECULE
*****
 49 54 0 0 0
SMALL
GASTEIGER

@<TRIPOS>ATOM
      1 C          13.7074   83.2741   24.7729 C.2     1  UNL1        0.2483
      2 O          14.2430   83.7993   25.7872 O.2     1  UNL1       -0.2701
      3 N          13.9394   83.8422   23.4726 N.am    1  UNL1       -0.2945
      4 H          13.6090   83.3209   22.6318 H       1  UNL1        0.1501
      5 C          11.2216   79.7856   25.2642 C.ar    1  UNL1        0.0502
      6 C          10.6541   81.0698   25.2216 C.ar    1  UNL1        0.0148
      7 C          11.4605   82.1993   25.0604 C.ar    1  UNL1        0.0080
      8 C          12.8548   82.0720   24.9370 C.ar    1  UNL1        0.0808
      9 C          13.4271   80.7866   24.9933 C.ar    1  UNL1        0.1457
     10 F          14.7686   80.6160   24.8737 F       1  UNL1       -0.2040
     11 C          12.6169   79.6583   25.1525 C.ar    1  UNL1        0.0443
     12 N           8.6491   76.5216   26.1329 N.pl3   1  UNL1       -0.3034
     13 C           8.0712   77.7628   25.6061 C.3     1  UNL1        0.1123
     14 C           9.0831   78.5393   24.7554 C.3     1  UNL1        0.1122
     15 N          10.3865   78.6192   25.4340 N.pl3   1  UNL1       -0.3040
     16 C          10.9183   77.4502   26.1557 C.3     1  UNL1        0.1122
     17 C          10.0629   76.2025   25.9215 C.3     1  UNL1        0.1123
     18 C           6.0822   73.6314   27.8974 C.ar    1  UNL1       -0.0107
     19 C           6.1495   73.7823   26.5033 C.ar    1  UNL1       -0.0021
     20 C           6.9893   74.7368   25.9322 C.ar    1  UNL1        0.0151
     21 C           7.7863   75.5518   26.7413 C.ar    1  UNL1        0.0594
     22 C           7.7419   75.4081   28.1392 C.ar    1  UNL1        0.0811
     23 CL          8.7385   76.4526   29.1534 Cl      1  UNL1       -0.0801
     24 C           6.8951   74.4441   28.7216 C.ar    1  UNL1        0.0654
     25 CL          6.8644   74.2614   30.4787 Cl      1  UNL1       -0.0817
     26 C           3.9941   73.1887   29.1987 C.3     1  UNL1        0.0051
     27 C           5.1810   72.5639   28.4719 C.3     1  UNL1        0.0272
     28 C          14.6919   85.0900   23.2945 C.3     1  UNL1        0.1535
     29 C          15.0363   85.3017   21.8414 C.2     1  UNL1        0.2443
     30 O          16.1781   85.7384   21.5286 O.2     1  UNL1       -0.2730
     31 N          14.1029   84.9086   20.8230 N.am    1  UNL1       -0.2825
     32 H          13.2687   84.3518   21.1177 H       1  UNL1        0.1549
     33 C          14.3531   85.0510   19.4156 C.ar    1  UNL1        0.0535
     34 C          15.1134   84.1064   18.7069 C.ar    1  UNL1        0.0353
     35 C          15.3415   84.2917   17.3410 C.ar    1  UNL1        0.1002
     36 N          14.8406   85.3853   16.7075 N.ar    1  UNL1       -0.2422
     37 C          14.1160   86.3236   17.3724 C.ar    1  UNL1        0.1002
     38 C          13.8670   86.1778   18.7391 C.ar    1  UNL1        0.0353
     39 C          13.9275   86.2993   23.8798 C.3     1  UNL1        0.0569
     40 C          14.6381   86.9665   25.0288 C.ar    1  UNL1       -0.0017
     41 C          14.1405   87.1670   26.3139 C.ar    1  UNL1        0.0681
     42 N          15.0331   87.8501   27.0659 N.ar    1  UNL1       -0.3523
     43 C          16.0901   88.0830   26.2691 C.ar    1  UNL1        0.0563
     44 C          17.2606   88.7662   26.5971 C.ar    1  UNL1        0.0170
     45 C          18.2444   88.9015   25.6005 C.ar    1  UNL1        0.0015
     46 C          18.0409   88.3533   24.3150 C.ar    1  UNL1        0.0001
     47 C          16.8517   87.6659   24.0139 C.ar    1  UNL1        0.0012
     48 C          15.8894   87.5556   25.0191 C.ar    1  UNL1        0.0131
     49 H          14.9182   88.1401   28.0625 H       1  UNL1        0.1660
@<TRIPOS>BOND
     1    26    27    1
     2    27    18    1
     3    18    19   ar
     4    19    20   ar
     5    20    21   ar
     6    21    12    1
     7    12    13    1
     8    13    14    1
     9    14    15    1
    10    15     5    1
    11     5     6   ar
    12     6     7   ar
    13     7     8   ar
    14     8     1    1
    15     1     2    2
    16     1     3   am
    17     3    28    1
    18    28    39    1
    19    39    40    1
    20    40    41   ar
    21    41    42   ar
    22    42    43   ar
    23    43    44   ar
    24    44    45   ar
    25    45    46   ar
    26    46    47   ar
    27    47    48   ar
    28    28    29    1
    29    29    30    2
    30    29    31   am
    31    31    33    1
    32    33    34   ar
    33    34    35   ar
    34    35    36   ar
    35    36    37   ar
    36    37    38   ar
    37     8     9   ar
    38     9    10    1
    39     9    11   ar
    40    15    16    1
    41    16    17    1
    42    21    22   ar
    43    22    23    1
    44    22    24   ar
    45    24    25    1
    46    24    18   ar
    47    17    12    1
    48    11     5   ar
    49    48    40   ar
    50    38    33   ar
    51    48    43   ar
    52     3     4    1
    53    42    49    1
    54    31    32    1
@<TRIPOS>MOLECULE
*****
 49 54 0 0 0
SMALL
GASTEIGER

@<TRIPOS>ATOM
      1 C          13.2541   83.1598   24.2851 C.2     1  UNL1        0.2483
      2 O          14.4314   82.9584   23.8787 O.2     1  UNL1       -0.2701
      3 N          12.7088   84.4897   24.2516 N.am    1  UNL1       -0.2945
      4 H          11.6944   84.6207   24.4561 H       1  UNL1        0.1501
      5 C          10.9030   79.8519   25.7410 C.ar    1  UNL1        0.0502
      6 C          10.3079   81.0998   25.4928 C.ar    1  UNL1        0.0148
      7 C          11.0704   82.1703   25.0193 C.ar    1  UNL1        0.0080
      8 C          12.4474   82.0188   24.7813 C.ar    1  UNL1        0.0808
      9 C          13.0487   80.7726   25.0426 C.ar    1  UNL1        0.1457
     10 F          14.3743   80.5795   24.8228 F       1  UNL1       -0.2040
     11 C          12.2821   79.7027   25.5145 C.ar    1  UNL1        0.0443
     12 N           8.2861   76.8873   27.2869 N.pl3   1  UNL1       -0.3034
     13 C           8.0626   77.3962   25.9292 C.3     1  UNL1        0.1123
     14 C           9.3644   77.8979   25.2937 C.3     1  UNL1        0.1122
     15 N          10.1135   78.7470   26.2337 N.pl3   1  UNL1       -0.3040
     16 C          10.1945   78.3813   27.6584 C.3     1  UNL1        0.1122
     17 C           9.6015   76.9948   27.9221 C.3     1  UNL1        0.1123
     18 C           5.2031   74.6849   29.2104 C.ar    1  UNL1       -0.0107
     19 C           6.1243   74.0488   28.3634 C.ar    1  UNL1       -0.0021
     20 C           7.1291   74.7790   27.7311 C.ar    1  UNL1        0.0151
     21 C           7.2403   76.1567   27.9407 C.ar    1  UNL1        0.0594
     22 C           6.3344   76.8102   28.7945 C.ar    1  UNL1        0.0811
     23 CL          6.4717   78.5520   29.0397 Cl      1  UNL1       -0.0801
     24 C           5.3172   76.0764   29.4368 C.ar    1  UNL1        0.0654
     25 CL          4.1982   76.9077   30.5223 Cl      1  UNL1       -0.0817
     26 C           3.9236   72.5380   29.1532 C.3     1  UNL1        0.0051
     27 C           4.1491   73.8498   29.8986 C.3     1  UNL1        0.0272
     28 C          13.5194   85.6507   23.8644 C.3     1  UNL1        0.1535
     29 C          14.2350   86.2242   25.0620 C.2     1  UNL1        0.2443
     30 O          14.4071   85.5086   26.0869 O.2     1  UNL1       -0.2730
     31 N          14.8041   87.5409   24.9891 N.am    1  UNL1       -0.2825
     32 H          14.8304   88.0075   24.0541 H       1  UNL1        0.1549
     33 C          15.5211   88.1594   26.0694 C.ar    1  UNL1        0.0535
     34 C          16.8842   88.4786   25.9569 C.ar    1  UNL1        0.0353
     35 C          17.5443   89.0687   27.0377 C.ar    1  UNL1        0.1002
     36 N          16.8731   89.3197   28.1930 N.ar    1  UNL1       -0.2422
     37 C          15.5583   89.0054   28.3350 C.ar    1  UNL1        0.1002
     38 C          14.8617   88.4121   27.2797 C.ar    1  UNL1        0.0353
     39 C          14.5057   85.2977   22.7279 C.3     1  UNL1        0.0569
     40 C          14.2451   86.0451   21.4458 C.ar    1  UNL1       -0.0017
     41 C          13.7351   87.3349   21.3211 C.ar    1  UNL1        0.0681
     42 N          13.5810   87.6589   20.0172 N.ar    1  UNL1       -0.3523
     43 C          13.9888   86.5870   19.3165 C.ar    1  UNL1        0.0563
     44 C          14.0067   86.4414   17.9299 C.ar    1  UNL1        0.0170
     45 C          14.4708   85.2225   17.4024 C.ar    1  UNL1        0.0015
     46 C          14.9060   84.1901   18.2623 C.ar    1  UNL1        0.0001
     47 C          14.8802   84.3668   19.6572 C.ar    1  UNL1        0.0012
     48 C          14.4057   85.5827   20.1522 C.ar    1  UNL1        0.0131
     49 H          13.2143   88.5595   19.6363 H       1  UNL1        0.1660
@<TRIPOS>BOND
     1    26    27    1
     2    27    18    1
     3    18    19   ar
     4    19    20   ar
     5    20    21   ar
     6    21    12    1
     7    12    13    1
     8    13    14    1
     9    14    15    1
    10    15     5    1
    11     5     6   ar
    12     6     7   ar
    13     7     8   ar
    14     8     1    1
    15     1     2    2
    16     1     3   am
    17     3    28    1
    18    28    39    1
    19    39    40    1
    20    40    41   ar
    21    41    42   ar
    22    42    43   ar
    23    43    44   ar
    24    44    45   ar
    25    45    46   ar
    26    46    47   ar
    27    47    48   ar
    28    28    29    1
    29    29    30    2
    30    29    31   am
    31    31    33    1
    32    33    34   ar
    33    34    35   ar
    34    35    36   ar
    35    36    37   ar
    36    37    38   ar
    37     8     9   ar
    38     9    10    1
    39     9    11   ar
    40    15    16    1
    41    16    17    1
    42    21    22   ar
    43    22    23    1
    44    22    24   ar
    45    24    25    1
    46    24    18   ar
    47    17    12    1
    48    11     5   ar
    49    48    40   ar
    50    38    33   ar
    51    48    43   ar
    52     3     4    1
    53    42    49    1
    54    31    32    1
@<TRIPOS>MOLECULE
*****
 49 54 0 0 0
SMALL
GASTEIGER

@<TRIPOS>ATOM
      1 C          13.5510   83.2327   24.3563 C.2     1  UNL1        0.2483
      2 O          14.6561   82.9872   23.7992 O.2     1  UNL1       -0.2701
      3 N          13.1427   84.5970   24.5541 N.am    1  UNL1       -0.2945
      4 H          12.1720   84.7866   24.8850 H       1  UNL1        0.1501
      5 C          11.0293   79.9749   25.6279 C.ar    1  UNL1        0.0502
      6 C          10.4918   81.2540   25.4088 C.ar    1  UNL1        0.0148
      7 C          11.3096   82.3083   24.9949 C.ar    1  UNL1        0.0080
      8 C          12.6856   82.1091   24.7890 C.ar    1  UNL1        0.0808
      9 C          13.2291   80.8309   25.0214 C.ar    1  UNL1        0.1457
     10 F          14.5517   80.5915   24.8308 F       1  UNL1       -0.2040
     11 C          12.4073   79.7775   25.4335 C.ar    1  UNL1        0.0443
     12 N           8.3173   77.0627   27.1080 N.pl3   1  UNL1       -0.3034
     13 C           7.9229   77.8831   25.9574 C.3     1  UNL1        0.1123
     14 C           9.1427   78.3600   25.1605 C.3     1  UNL1        0.1122
     15 N          10.1826   78.8867   26.0588 N.pl3   1  UNL1       -0.3040
     16 C          10.4744   78.2065   27.3325 C.3     1  UNL1        0.1122
     17 C           9.7296   76.8739   27.4469 C.3     1  UNL1        0.1123
     18 C           5.3564   74.8558   29.2098 C.ar    1  UNL1       -0.0107
     19 C           6.2622   74.2131   28.3512 C.ar    1  UNL1       -0.0021
     20 C           7.2266   74.9446   27.6603 C.ar    1  UNL1        0.0151
     21 C           7.3125   76.3305   27.8218 C.ar    1  UNL1        0.0594
     22 C           6.4219   76.9912   28.6862 C.ar    1  UNL1        0.0811
     23 CL          6.5266   78.7426   28.8706 Cl      1  UNL1       -0.0801
     24 C           5.4455   76.2561   29.3875 C.ar    1  UNL1        0.0654
     25 CL          4.3460   77.0972   30.4854 Cl      1  UNL1       -0.0817
     26 C           3.9540   72.7870   29.1541 C.3     1  UNL1        0.0051
     27 C           4.3472   74.0201   29.9616 C.3     1  UNL1        0.0272
     28 C          14.0248   85.7251   24.2309 C.3     1  UNL1        0.1535
     29 C          13.9030   86.0963   22.7740 C.2     1  UNL1        0.2443
     30 O          14.3345   85.3051   21.8909 O.2     1  UNL1       -0.2730
     31 N          13.2065   87.2954   22.3999 N.am    1  UNL1       -0.2825
     32 H          12.6772   87.8023   23.1453 H       1  UNL1        0.1549
     33 C          13.0217   87.7173   21.0391 C.ar    1  UNL1        0.0535
     34 C          11.7612   87.6695   20.4215 C.ar    1  UNL1        0.0353
     35 C          11.6304   88.0788   19.0920 C.ar    1  UNL1        0.1002
     36 N          12.7188   88.5080   18.3997 N.ar    1  UNL1       -0.2422
     37 C          13.9531   88.5484   18.9674 C.ar    1  UNL1        0.1002
     38 C          14.1280   88.1457   20.2935 C.ar    1  UNL1        0.0353
     39 C          13.7528   86.9368   25.1511 C.3     1  UNL1        0.0569
     40 C          14.9865   87.4677   25.8340 C.ar    1  UNL1       -0.0017
     41 C          15.1640   87.6638   27.2013 C.ar    1  UNL1        0.0681
     42 N          16.3772   88.2083   27.4477 N.ar    1  UNL1       -0.3523
     43 C          16.9684   88.3580   26.2500 C.ar    1  UNL1        0.0563
     44 C          18.2308   88.8908   25.9922 C.ar    1  UNL1        0.0170
     45 C          18.6541   88.9608   24.6523 C.ar    1  UNL1        0.0015
     46 C          17.8179   88.4977   23.6126 C.ar    1  UNL1        0.0001
     47 C          16.5507   87.9616   23.9031 C.ar    1  UNL1        0.0012
     48 C          16.1535   87.9136   25.2404 C.ar    1  UNL1        0.0131
     49 H          16.7694   88.4637   28.3812 H       1  UNL1        0.1660
@<TRIPOS>BOND
     1    26    27    1
     2    27    18    1
     3    18    19   ar
     4    19    20   ar
     5    20    21   ar
     6    21    12    1
     7    12    13    1
     8    13    14    1
     9    14    15    1
    10    15     5    1
    11     5     6   ar
    12     6     7   ar
    13     7     8   ar
    14     8     1    1
    15     1     2    2
    16     1     3   am
    17     3    28    1
    18    28    39    1
    19    39    40    1
    20    40    41   ar
    21    41    42   ar
    22    42    43   ar
    23    43    44   ar
    24    44    45   ar
    25    45    46   ar
    26    46    47   ar
    27    47    48   ar
    28    28    29    1
    29    29    30    2
    30    29    31   am
    31    31    33    1
    32    33    34   ar
    33    34    35   ar
    34    35    36   ar
    35    36    37   ar
    36    37    38   ar
    37     8     9   ar
    38     9    10    1
    39     9    11   ar
    40    15    16    1
    41    16    17    1
    42    21    22   ar
    43    22    23    1
    44    22    24   ar
    45    24    25    1
    46    24    18   ar
    47    17    12    1
    48    11     5   ar
    49    48    40   ar
    50    38    33   ar
    51    48    43   ar
    52     3     4    1
    53    42    49    1
    54    31    32    1
@<TRIPOS>MOLECULE
*****
 49 54 0 0 0
SMALL
GASTEIGER

@<TRIPOS>ATOM
      1 C           9.3314   77.5687   23.8356 C.2     1  UNL1        0.2483
      2 O           9.5069   76.4772   24.4435 O.2     1  UNL1       -0.2701
      3 N           8.2894   77.6736   22.8506 N.am    1  UNL1       -0.2945
      4 H           8.0630   78.6134   22.4587 H       1  UNL1        0.1501
      5 C          11.8426   80.9525   24.7487 C.ar    1  UNL1        0.0502
      6 C          10.4804   81.1293   24.4550 C.ar    1  UNL1        0.0148
      7 C           9.6673   80.0319   24.1612 C.ar    1  UNL1        0.0080
      8 C          10.1966   78.7299   24.1547 C.ar    1  UNL1        0.0808
      9 C          11.5651   78.5516   24.4352 C.ar    1  UNL1        0.1457
     10 F          12.1180   77.3118   24.4447 F       1  UNL1       -0.2040
     11 C          12.3754   79.6519   24.7309 C.ar    1  UNL1        0.0443
     12 N          14.0004   84.4291   25.8813 N.pl3   1  UNL1       -0.3034
     13 C          13.9754   83.2788   26.7915 C.3     1  UNL1        0.1123
     14 C          13.7708   81.9631   26.0316 C.3     1  UNL1        0.1122
     15 N          12.6824   82.0888   25.0492 N.pl3   1  UNL1       -0.3040
     16 C          12.5445   83.3189   24.2505 C.3     1  UNL1        0.1122
     17 C          13.7345   84.2609   24.4509 C.3     1  UNL1        0.1123
     18 C          15.2478   88.1981   27.3959 C.ar    1  UNL1       -0.0107
     19 C          14.6827   87.2310   28.2422 C.ar    1  UNL1       -0.0021
     20 C          14.2702   85.9993   27.7368 C.ar    1  UNL1        0.0151
     21 C          14.4239   85.7051   26.3788 C.ar    1  UNL1        0.0594
     22 C          14.9983   86.6562   25.5172 C.ar    1  UNL1        0.0811
     23 CL         15.1726   86.2829   23.8017 Cl      1  UNL1       -0.0801
     24 C          15.4177   87.9026   26.0232 C.ar    1  UNL1        0.0654
     25 CL         16.1559   89.0802   24.9324 Cl      1  UNL1       -0.0817
     26 C          15.8206   89.4039   29.5096 C.3     1  UNL1        0.0051
     27 C          15.7085   89.5076   27.9917 C.3     1  UNL1        0.0272
     28 C           7.4891   76.5129   22.4416 C.3     1  UNL1        0.1535
     29 C           6.0737   76.9267   22.1242 C.2     1  UNL1        0.2443
     30 O           5.7944   77.3601   20.9725 O.2     1  UNL1       -0.2730
     31 N           5.0375   76.7280   23.0987 N.am    1  UNL1       -0.2825
     32 H           5.2716   76.1666   23.9488 H       1  UNL1        0.1549
     33 C           3.6600   77.0702   22.8773 C.ar    1  UNL1        0.0535
     34 C           2.9886   76.6866   21.7049 C.ar    1  UNL1        0.0353
     35 C           1.6518   77.0518   21.5266 C.ar    1  UNL1        0.1002
     36 N           1.0115   77.7835   22.4767 N.ar    1  UNL1       -0.2422
     37 C           1.6421   78.1826   23.6129 C.ar    1  UNL1        0.1002
     38 C           2.9791   77.8408   23.8292 C.ar    1  UNL1        0.0353
     39 C           8.1422   75.7653   21.2568 C.3     1  UNL1        0.0569
     40 C           8.5086   74.3377   21.5695 C.ar    1  UNL1       -0.0017
     41 C           7.6517   73.2400   21.5818 C.ar    1  UNL1        0.0681
     42 N           8.3161   72.1251   21.9620 N.ar    1  UNL1       -0.3523
     43 C           9.5844   72.5070   22.1898 C.ar    1  UNL1        0.0563
     44 C          10.6443   71.7061   22.6133 C.ar    1  UNL1        0.0170
     45 C          11.8981   72.3174   22.7971 C.ar    1  UNL1        0.0015
     46 C          12.0637   73.6983   22.5518 C.ar    1  UNL1        0.0001
     47 C          10.9772   74.4806   22.1217 C.ar    1  UNL1        0.0012
     48 C           9.7432   73.8492   21.9571 C.ar    1  UNL1        0.0131
     49 H           7.9188   71.1645   22.0617 H       1  UNL1        0.1660
@<TRIPOS>BOND
     1    26    27    1
     2    27    18    1
     3    18    19   ar
     4    19    20   ar
     5    20    21   ar
     6    21    12    1
     7    12    13    1
     8    13    14    1
     9    14    15    1
    10    15     5    1
    11     5     6   ar
    12     6     7   ar
    13     7     8   ar
    14     8     1    1
    15     1     2    2
    16     1     3   am
    17     3    28    1
    18    28    39    1
    19    39    40    1
    20    40    41   ar
    21    41    42   ar
    22    42    43   ar
    23    43    44   ar
    24    44    45   ar
    25    45    46   ar
    26    46    47   ar
    27    47    48   ar
    28    28    29    1
    29    29    30    2
    30    29    31   am
    31    31    33    1
    32    33    34   ar
    33    34    35   ar
    34    35    36   ar
    35    36    37   ar
    36    37    38   ar
    37     8     9   ar
    38     9    10    1
    39     9    11   ar
    40    15    16    1
    41    16    17    1
    42    21    22   ar
    43    22    23    1
    44    22    24   ar
    45    24    25    1
    46    24    18   ar
    47    17    12    1
    48    11     5   ar
    49    48    40   ar
    50    38    33   ar
    51    48    43   ar
    52     3     4    1
    53    42    49    1
    54    31    32    1
@<TRIPOS>MOLECULE
*****
 49 54 0 0 0
SMALL
GASTEIGER

@<TRIPOS>ATOM
      1 C           9.9979   75.8772   25.5624 C.2     1  UNL1        0.2483
      2 O          10.6735   74.8453   25.8275 O.2     1  UNL1       -0.2701
      3 N           8.5802   75.7636   25.3522 N.am    1  UNL1       -0.2945
      4 H           8.0137   76.6359   25.2737 H       1  UNL1        0.1501
      5 C          11.9547   79.7119   25.3248 C.ar    1  UNL1        0.0502
      6 C          10.8366   79.5280   26.1548 C.ar    1  UNL1        0.0148
      7 C          10.2046   78.2845   26.2324 C.ar    1  UNL1        0.0080
      8 C          10.6760   77.1935   25.4821 C.ar    1  UNL1        0.0808
      9 C          11.7884   77.3792   24.6387 C.ar    1  UNL1        0.1457
     10 F          12.2807   76.3525   23.8995 F       1  UNL1       -0.2040
     11 C          12.4197   78.6245   24.5651 C.ar    1  UNL1        0.0443
     12 N          13.7172   83.5716   25.4726 N.pl3   1  UNL1       -0.3034
     13 C          14.3882   82.4563   26.1493 C.3     1  UNL1        0.1123
     14 C          14.0510   81.1130   25.4919 C.3     1  UNL1        0.1122
     15 N          12.6049   80.9993   25.2435 N.pl3   1  UNL1       -0.3040
     16 C          11.8443   82.1619   24.7538 C.3     1  UNL1        0.1122
     17 C          12.7657   83.3278   24.3861 C.3     1  UNL1        0.1123
     18 C          14.8599   87.5450   26.4534 C.ar    1  UNL1       -0.0107
     19 C          14.5121   86.6254   27.4555 C.ar    1  UNL1       -0.0021
     20 C          14.1324   85.3256   27.1255 C.ar    1  UNL1        0.0151
     21 C          14.1030   84.9155   25.7894 C.ar    1  UNL1        0.0594
     22 C          14.4590   85.8182   24.7720 C.ar    1  UNL1        0.0811
     23 CL         14.4025   85.2971   23.0874 Cl      1  UNL1       -0.0801
     24 C          14.8444   87.1332   25.1003 C.ar    1  UNL1        0.0654
     25 CL         15.3082   88.2507   23.8128 Cl      1  UNL1       -0.0817
     26 C          16.7815   88.9605   27.1976 C.3     1  UNL1        0.0051
     27 C          15.2944   88.9340   26.8583 C.3     1  UNL1        0.0272
     28 C           7.9024   74.4618   25.3226 C.3     1  UNL1        0.1535
     29 C           6.6774   74.4787   26.2024 C.2     1  UNL1        0.2443
     30 O           5.6020   74.9723   25.7642 O.2     1  UNL1       -0.2730
     31 N           6.7154   73.8421   27.4893 N.am    1  UNL1       -0.2825
     32 H           7.5516   73.2580   27.7177 H       1  UNL1        0.1549
     33 C           5.5932   73.7886   28.3847 C.ar    1  UNL1        0.0535
     34 C           5.3083   74.8436   29.2670 C.ar    1  UNL1        0.0353
     35 C           4.2132   74.7433   30.1287 C.ar    1  UNL1        0.1002
     36 N           3.4378   73.6266   30.1201 N.ar    1  UNL1       -0.2422
     37 C           3.7008   72.5838   29.2887 C.ar    1  UNL1        0.1002
     38 C           4.7875   72.6425   28.4132 C.ar    1  UNL1        0.0353
     39 C           7.5584   74.0365   23.8769 C.3     1  UNL1        0.0569
     40 C           8.6552   74.3224   22.8842 C.ar    1  UNL1       -0.0017
     41 C           8.6720   75.3351   21.9284 C.ar    1  UNL1        0.0681
     42 N           9.7914   75.2550   21.1736 N.ar    1  UNL1       -0.3523
     43 C          10.4824   74.2022   21.6431 C.ar    1  UNL1        0.0563
     44 C          11.7028   73.7166   21.1752 C.ar    1  UNL1        0.0170
     45 C          12.2503   72.5887   21.8135 C.ar    1  UNL1        0.0015
     46 C          11.5760   71.9813   22.8956 C.ar    1  UNL1        0.0001
     47 C          10.3480   72.4953   23.3485 C.ar    1  UNL1        0.0012
     48 C           9.8242   73.6092   22.6899 C.ar    1  UNL1        0.0131
     49 H          10.0585   75.8835   20.3836 H       1  UNL1        0.1660
@<TRIPOS>BOND
     1    26    27    1
     2    27    18    1
     3    18    19   ar
     4    19    20   ar
     5    20    21   ar
     6    21    12    1
     7    12    13    1
     8    13    14    1
     9    14    15    1
    10    15     5    1
    11     5     6   ar
    12     6     7   ar
    13     7     8   ar
    14     8     1    1
    15     1     2    2
    16     1     3   am
    17     3    28    1
    18    28    39    1
    19    39    40    1
    20    40    41   ar
    21    41    42   ar
    22    42    43   ar
    23    43    44   ar
    24    44    45   ar
    25    45    46   ar
    26    46    47   ar
    27    47    48   ar
    28    28    29    1
    29    29    30    2
    30    29    31   am
    31    31    33    1
    32    33    34   ar
    33    34    35   ar
    34    35    36   ar
    35    36    37   ar
    36    37    38   ar
    37     8     9   ar
    38     9    10    1
    39     9    11   ar
    40    15    16    1
    41    16    17    1
    42    21    22   ar
    43    22    23    1
    44    22    24   ar
    45    24    25    1
    46    24    18   ar
    47    17    12    1
    48    11     5   ar
    49    48    40   ar
    50    38    33   ar
    51    48    43   ar
    52     3     4    1
    53    42    49    1
    54    31    32    1
