@<TRIPOS>MOLECULE
*****
 38 42 0 0 0
SMALL
GASTEIGER

@<TRIPOS>ATOM
      1 C         -24.1749  -11.2505  -15.5981 C.2     1  UNL1        0.2490
      2 O         -25.0619  -11.6341  -16.4080 O.2     1  UNL1       -0.2699
      3 N         -22.9505  -12.0094  -15.4556 N.am    1  UNL1       -0.2698
      4 C         -21.7055  -11.3040  -15.1030 C.3     1  UNL1        0.1235
      5 C         -21.2045  -11.7554  -13.7597 C.ar    1  UNL1        0.0317
      6 C         -21.0814  -10.7998  -12.7342 C.ar    1  UNL1        0.0004
      7 C         -20.6421  -11.1630  -11.4518 C.ar    1  UNL1       -0.0000
      8 C         -20.2989  -12.5003  -11.2071 C.ar    1  UNL1        0.0031
      9 C         -20.4118  -13.4554  -12.2177 C.ar    1  UNL1        0.0366
     10 C         -20.8744  -13.1078  -13.4916 C.ar    1  UNL1        0.1362
     11 O         -21.0079  -14.1533  -14.4234 O.3     1  UNL1       -0.4739
     12 C         -21.5296  -14.0678  -15.7503 C.3     1  UNL1        0.2249
     13 C         -22.9506  -13.4550  -15.7855 C.3     1  UNL1        0.1195
     14 C         -20.5532  -10.1483  -10.3711 C.ar    1  UNL1        0.0015
     15 C         -21.5563   -9.1465  -10.2413 C.ar    1  UNL1        0.0016
     16 C         -21.4830   -8.1784   -9.2230 C.ar    1  UNL1        0.0206
     17 C         -20.4007   -8.2363   -8.3518 C.ar    1  UNL1        0.0985
     18 N         -20.1311   -7.4191   -7.3178 N.ar    1  UNL1       -0.2241
     19 C         -18.9702   -7.9275   -6.8263 C.ar    1  UNL1        0.1750
     20 N         -18.5222   -9.0094   -7.5077 N.ar    1  UNL1       -0.3349
     21 C         -19.4379   -9.1905   -8.4663 C.ar    1  UNL1        0.0757
     22 C         -19.4707  -10.1669   -9.4583 C.ar    1  UNL1        0.0185
     23 H         -17.6607   -9.5701   -7.3243 H       1  UNL1        0.1675
     24 C         -23.9226   -8.7413  -15.2991 C.ar    1  UNL1       -0.0165
     25 C         -24.2104   -7.5883  -14.5487 C.ar    1  UNL1        0.0142
     26 C         -24.9784   -7.6644  -13.3823 C.ar    1  UNL1        0.1054
     27 C         -25.4290   -8.9083  -12.9303 C.ar    1  UNL1        0.0185
     28 C         -25.1376  -10.0656  -13.6535 C.ar    1  UNL1        0.0055
     29 C         -24.4008   -9.9971  -14.8456 C.ar    1  UNL1        0.0497
     30 S         -25.3363   -6.2006  -12.4730 S.O2    1  UNL1        0.0104
     31 C         -23.8458   -5.5995  -11.7125 C.3     1  UNL1        0.1816
     32 O         -25.8888   -5.1542  -13.4000 O.2     1  UNL1       -0.1686
     33 O         -26.3582   -6.4917  -11.4098 O.2     1  UNL1       -0.1686
     34 C         -23.0194   -8.6061  -16.5033 C.3     1  UNL1        0.0265
     35 C         -20.5280   -8.2118  -16.5409 C.3     1  UNL1        0.0004
     36 C         -21.8923   -7.6079  -16.2220 C.3     1  UNL1        0.0047
     37 C         -23.9179  -14.2254  -14.8487 C.3     1  UNL1        0.0237
     38 C         -25.0573  -14.9167  -15.5983 C.3     1  UNL1        0.0019
@<TRIPOS>BOND
     1    35    36    1
     2    36    34    1
     3    34    24    1
     4    24    25   ar
     5    25    26   ar
     6    26    30    1
     7    30    31    1
     8    30    32    2
     9    30    33    2
    10    26    27   ar
    11    27    28   ar
    12    28    29   ar
    13    29     1    1
    14     1     2    2
    15     1     3   am
    16     3     4    1
    17     4     5    1
    18     5     6   ar
    19     6     7   ar
    20     7    14    1
    21    14    15   ar
    22    15    16   ar
    23    16    17   ar
    24    17    18   ar
    25    18    19   ar
    26    19    20   ar
    27    20    21   ar
    28    21    22   ar
    29     7     8   ar
    30     8     9   ar
    31     9    10   ar
    32    10    11    1
    33    11    12    1
    34    12    13    1
    35    13    37    1
    36    37    38    1
    37    29    24   ar
    38    13     3    1
    39    10     5   ar
    40    22    14   ar
    41    21    17   ar
    42    20    23    1
@<TRIPOS>MOLECULE
*****
 38 42 0 0 0
SMALL
GASTEIGER

@<TRIPOS>ATOM
      1 C         -24.5718   -8.9970  -13.5840 C.2     1  UNL1        0.2490
      2 O         -25.7373   -8.6545  -13.9219 O.2     1  UNL1       -0.2699
      3 N         -23.9067  -10.0781  -14.2799 N.am    1  UNL1       -0.2698
      4 C         -22.4386  -10.0548  -14.4064 C.3     1  UNL1        0.1235
      5 C         -21.8262  -11.2134  -13.6701 C.ar    1  UNL1        0.0317
      6 C         -20.9302  -10.9421  -12.6197 C.ar    1  UNL1        0.0004
      7 C         -20.3440  -11.9799  -11.8787 C.ar    1  UNL1       -0.0000
      8 C         -20.6448  -13.3069  -12.2169 C.ar    1  UNL1        0.0031
      9 C         -21.5275  -13.5880  -13.2599 C.ar    1  UNL1        0.0366
     10 C         -22.1377  -12.5596  -13.9867 C.ar    1  UNL1        0.1362
     11 O         -23.0565  -12.9456  -14.9796 O.3     1  UNL1       -0.4739
     12 C         -23.8601  -12.0903  -15.7937 C.3     1  UNL1        0.2249
     13 C         -24.7222  -11.1176  -14.9531 C.3     1  UNL1        0.1195
     14 C         -19.4290  -11.6747  -10.7496 C.ar    1  UNL1        0.0015
     15 C         -19.4834  -10.4079  -10.1024 C.ar    1  UNL1        0.0016
     16 C         -18.6210  -10.1055   -9.0326 C.ar    1  UNL1        0.0206
     17 C         -17.7189  -11.0849   -8.6319 C.ar    1  UNL1        0.0985
     18 N         -16.8093  -11.0122   -7.6435 N.ar    1  UNL1       -0.2241
     19 C         -16.2099  -12.2312   -7.6947 C.ar    1  UNL1        0.1750
     20 N         -16.7082  -13.0385   -8.6618 N.ar    1  UNL1       -0.3349
     21 C         -17.6602  -12.2992   -9.2426 C.ar    1  UNL1        0.0757
     22 C         -18.4938  -12.6404  -10.3042 C.ar    1  UNL1        0.0185
     23 H         -16.4146  -14.0126   -8.8970 H       1  UNL1        0.1675
     24 C         -23.6772   -8.7920  -11.2161 C.ar    1  UNL1       -0.0165
     25 C         -22.9964   -8.0267  -10.2537 C.ar    1  UNL1        0.0142
     26 C         -22.5185   -6.7485  -10.5601 C.ar    1  UNL1        0.1054
     27 C         -22.7592   -6.2046  -11.8254 C.ar    1  UNL1        0.0185
     28 C         -23.4488   -6.9436  -12.7875 C.ar    1  UNL1        0.0055
     29 C         -23.8993   -8.2418  -12.5043 C.ar    1  UNL1        0.0497
     30 S         -21.6549   -5.8210   -9.3388 S.O2    1  UNL1        0.0104
     31 C         -20.6794   -4.5645  -10.1330 C.3     1  UNL1        0.1816
     32 O         -22.6409   -5.1798   -8.4028 O.2     1  UNL1       -0.1686
     33 O         -20.7547   -6.7265   -8.5456 O.2     1  UNL1       -0.1686
     34 C         -24.2411  -10.1309  -10.7997 C.3     1  UNL1        0.0265
     35 C         -25.7646  -10.4642   -8.8168 C.3     1  UNL1        0.0004
     36 C         -24.3283  -10.2276   -9.2737 C.3     1  UNL1        0.0047
     37 C         -25.5863  -11.8844  -13.9176 C.3     1  UNL1        0.0237
     38 C         -25.9902  -13.2817  -14.3890 C.3     1  UNL1        0.0019
@<TRIPOS>BOND
     1    35    36    1
     2    36    34    1
     3    34    24    1
     4    24    25   ar
     5    25    26   ar
     6    26    30    1
     7    30    31    1
     8    30    32    2
     9    30    33    2
    10    26    27   ar
    11    27    28   ar
    12    28    29   ar
    13    29     1    1
    14     1     2    2
    15     1     3   am
    16     3     4    1
    17     4     5    1
    18     5     6   ar
    19     6     7   ar
    20     7    14    1
    21    14    15   ar
    22    15    16   ar
    23    16    17   ar
    24    17    18   ar
    25    18    19   ar
    26    19    20   ar
    27    20    21   ar
    28    21    22   ar
    29     7     8   ar
    30     8     9   ar
    31     9    10   ar
    32    10    11    1
    33    11    12    1
    34    12    13    1
    35    13    37    1
    36    37    38    1
    37    29    24   ar
    38    13     3    1
    39    10     5   ar
    40    22    14   ar
    41    21    17   ar
    42    20    23    1
@<TRIPOS>MOLECULE
*****
 38 42 0 0 0
SMALL
GASTEIGER

@<TRIPOS>ATOM
      1 C         -20.8610  -10.8169  -11.4496 C.2     1  UNL1        0.2490
      2 O         -20.0883  -11.6224  -10.8631 O.2     1  UNL1       -0.2699
      3 N         -20.5594   -9.4011  -11.4544 N.am    1  UNL1       -0.2698
      4 C         -20.9809   -8.5812  -12.6043 C.3     1  UNL1        0.1235
      5 C         -21.9922   -7.5539  -12.1785 C.ar    1  UNL1        0.0317
      6 C         -23.2697   -7.5864  -12.7674 C.ar    1  UNL1        0.0004
      7 C         -24.2648   -6.6695  -12.3949 C.ar    1  UNL1       -0.0000
      8 C         -23.9608   -5.6927  -11.4361 C.ar    1  UNL1        0.0031
      9 C         -22.6959   -5.6475  -10.8494 C.ar    1  UNL1        0.0366
     10 C         -21.7060   -6.5741  -11.1947 C.ar    1  UNL1        0.1362
     11 O         -20.4837   -6.4809  -10.5046 O.3     1  UNL1       -0.4739
     12 C         -19.3572   -7.3517  -10.6191 C.3     1  UNL1        0.2249
     13 C         -19.7300   -8.8324  -10.3648 C.3     1  UNL1        0.1195
     14 C         -25.6191   -6.7414  -12.9999 C.ar    1  UNL1        0.0015
     15 C         -26.3415   -7.9681  -13.0017 C.ar    1  UNL1        0.0016
     16 C         -27.6246   -8.0501  -13.5731 C.ar    1  UNL1        0.0206
     17 C         -28.1590   -6.8945  -14.1323 C.ar    1  UNL1        0.0985
     18 N         -29.3555   -6.7453  -14.7287 N.ar    1  UNL1       -0.2241
     19 C         -29.3540   -5.4332  -15.0840 C.ar    1  UNL1        0.1750
     20 N         -28.2199   -4.7797  -14.7345 N.ar    1  UNL1       -0.3349
     21 C         -27.4775   -5.7171  -14.1342 C.ar    1  UNL1        0.0757
     22 C         -26.2063   -5.5910  -13.5804 C.ar    1  UNL1        0.0185
     23 H         -27.9831   -3.7759  -14.8977 H       1  UNL1        0.1675
     24 C         -23.3684  -11.0942  -11.7412 C.ar    1  UNL1       -0.0165
     25 C         -24.4382  -11.6137  -12.4903 C.ar    1  UNL1        0.0142
     26 C         -24.2062  -12.3626  -13.6485 C.ar    1  UNL1        0.1054
     27 C         -22.8937  -12.6376  -14.0435 C.ar    1  UNL1        0.0185
     28 C         -21.8195  -12.1446  -13.3017 C.ar    1  UNL1        0.0055
     29 C         -22.0397  -11.3598  -12.1598 C.ar    1  UNL1        0.0497
     30 S         -25.5669  -12.9857  -14.5749 S.O2    1  UNL1        0.0104
     31 C         -25.0094  -14.3078  -15.6248 C.3     1  UNL1        0.1816
     32 O         -26.6237  -13.4965  -13.6359 O.2     1  UNL1       -0.1686
     33 O         -26.1590  -11.8920  -15.4191 O.2     1  UNL1       -0.1686
     34 C         -23.6813  -10.3642  -10.4554 C.3     1  UNL1        0.0265
     35 C         -25.5221   -8.9092   -9.5287 C.3     1  UNL1        0.0004
     36 C         -25.1939  -10.1908  -10.2887 C.3     1  UNL1        0.0047
     37 C         -20.4391   -9.0060   -8.9959 C.3     1  UNL1        0.0237
     38 C         -19.6892   -8.3398   -7.8418 C.3     1  UNL1        0.0019
@<TRIPOS>BOND
     1    35    36    1
     2    36    34    1
     3    34    24    1
     4    24    25   ar
     5    25    26   ar
     6    26    30    1
     7    30    31    1
     8    30    32    2
     9    30    33    2
    10    26    27   ar
    11    27    28   ar
    12    28    29   ar
    13    29     1    1
    14     1     2    2
    15     1     3   am
    16     3     4    1
    17     4     5    1
    18     5     6   ar
    19     6     7   ar
    20     7    14    1
    21    14    15   ar
    22    15    16   ar
    23    16    17   ar
    24    17    18   ar
    25    18    19   ar
    26    19    20   ar
    27    20    21   ar
    28    21    22   ar
    29     7     8   ar
    30     8     9   ar
    31     9    10   ar
    32    10    11    1
    33    11    12    1
    34    12    13    1
    35    13    37    1
    36    37    38    1
    37    29    24   ar
    38    13     3    1
    39    10     5   ar
    40    22    14   ar
    41    21    17   ar
    42    20    23    1
@<TRIPOS>MOLECULE
*****
 38 42 0 0 0
SMALL
GASTEIGER

@<TRIPOS>ATOM
      1 C         -24.5250   -6.4132  -11.7579 C.2     1  UNL1        0.2490
      2 O         -24.5287   -5.8884  -10.6113 O.2     1  UNL1       -0.2699
      3 N         -23.4446   -7.2956  -12.1444 N.am    1  UNL1       -0.2698
      4 C         -23.7163   -8.3909  -13.0922 C.3     1  UNL1        0.1235
      5 C         -22.9462   -8.1899  -14.3673 C.ar    1  UNL1        0.0317
      6 C         -23.6639   -8.0564  -15.5701 C.ar    1  UNL1        0.0004
      7 C         -23.0039   -7.8427  -16.7900 C.ar    1  UNL1       -0.0000
      8 C         -21.6028   -7.7882  -16.8013 C.ar    1  UNL1        0.0031
      9 C         -20.8805   -7.9246  -15.6157 C.ar    1  UNL1        0.0366
     10 C         -21.5310   -8.1110  -14.3909 C.ar    1  UNL1        0.1362
     11 O         -20.7166   -8.1788  -13.2459 O.3     1  UNL1       -0.4739
     12 C         -21.1426   -8.2843  -11.8866 C.3     1  UNL1        0.2249
     13 C         -22.1226   -7.1544  -11.4878 C.3     1  UNL1        0.1195
     14 C         -23.7788   -7.6672  -18.0446 C.ar    1  UNL1        0.0015
     15 C         -24.4457   -6.4382  -18.3118 C.ar    1  UNL1        0.0016
     16 C         -25.1847   -6.2597  -19.4957 C.ar    1  UNL1        0.0206
     17 C         -25.2386   -7.3221  -20.3913 C.ar    1  UNL1        0.0985
     18 N         -25.8817   -7.3725  -21.5717 N.ar    1  UNL1       -0.2241
     19 C         -25.6024   -8.6271  -22.0141 C.ar    1  UNL1        0.1750
     20 N         -24.8241   -9.3394  -21.1643 N.ar    1  UNL1       -0.3349
     21 C         -24.6034   -8.4999  -20.1461 C.ar    1  UNL1        0.0757
     22 C         -23.8620   -8.7198  -18.9883 C.ar    1  UNL1        0.0185
     23 H         -24.4782  -10.3178  -21.2803 H       1  UNL1        0.1675
     24 C         -26.8408   -6.9310  -12.6623 C.ar    1  UNL1       -0.0165
     25 C         -27.8961   -6.5862  -13.5243 C.ar    1  UNL1        0.0142
     26 C         -27.8057   -5.4662  -14.3570 C.ar    1  UNL1        0.1054
     27 C         -26.6338   -4.7039  -14.3668 C.ar    1  UNL1        0.0185
     28 C         -25.5694   -5.0420  -13.5302 C.ar    1  UNL1        0.0055
     29 C         -25.6632   -6.1406  -12.6626 C.ar    1  UNL1        0.0497
     30 S         -29.1506   -5.0502  -15.4134 S.O2    1  UNL1        0.0104
     31 C         -28.5313   -4.2142  -16.8551 C.3     1  UNL1        0.1816
     32 O         -29.8729   -6.3023  -15.8258 O.2     1  UNL1       -0.1686
     33 O         -30.1151   -4.1525  -14.6900 O.2     1  UNL1       -0.1686
     34 C         -26.9647   -8.1984  -11.8484 C.3     1  UNL1        0.0265
     35 C         -26.6012   -8.8085   -9.4277 C.3     1  UNL1        0.0004
     36 C         -27.3200   -7.8725  -10.3947 C.3     1  UNL1        0.0047
     37 C         -21.5174   -5.7564  -11.7815 C.3     1  UNL1        0.0237
     38 C         -21.2105   -4.9563  -10.5152 C.3     1  UNL1        0.0019
@<TRIPOS>BOND
     1    35    36    1
     2    36    34    1
     3    34    24    1
     4    24    25   ar
     5    25    26   ar
     6    26    30    1
     7    30    31    1
     8    30    32    2
     9    30    33    2
    10    26    27   ar
    11    27    28   ar
    12    28    29   ar
    13    29     1    1
    14     1     2    2
    15     1     3   am
    16     3     4    1
    17     4     5    1
    18     5     6   ar
    19     6     7   ar
    20     7    14    1
    21    14    15   ar
    22    15    16   ar
    23    16    17   ar
    24    17    18   ar
    25    18    19   ar
    26    19    20   ar
    27    20    21   ar
    28    21    22   ar
    29     7     8   ar
    30     8     9   ar
    31     9    10   ar
    32    10    11    1
    33    11    12    1
    34    12    13    1
    35    13    37    1
    36    37    38    1
    37    29    24   ar
    38    13     3    1
    39    10     5   ar
    40    22    14   ar
    41    21    17   ar
    42    20    23    1
@<TRIPOS>MOLECULE
*****
 38 42 0 0 0
SMALL
GASTEIGER

@<TRIPOS>ATOM
      1 C         -23.8421   -8.9640  -10.9382 C.2     1  UNL1        0.2490
      2 O         -23.6894   -8.7699   -9.7017 O.2     1  UNL1       -0.2699
      3 N         -23.1656  -10.0684  -11.5847 N.am    1  UNL1       -0.2698
      4 C         -23.7979  -10.7158  -12.7478 C.3     1  UNL1        0.1235
      5 C         -22.9612  -10.5203  -13.9812 C.ar    1  UNL1        0.0317
      6 C         -23.5274   -9.8393  -15.0745 C.ar    1  UNL1        0.0004
      7 C         -22.7896   -9.6042  -16.2450 C.ar    1  UNL1       -0.0000
      8 C         -21.4742  -10.0833  -16.3239 C.ar    1  UNL1        0.0031
      9 C         -20.9042  -10.7645  -15.2482 C.ar    1  UNL1        0.0366
     10 C         -21.6229  -10.9800  -14.0671 C.ar    1  UNL1        0.1362
     11 O         -20.9401  -11.6250  -13.0198 O.3     1  UNL1       -0.4739
     12 C         -21.4258  -11.8856  -11.7020 C.3     1  UNL1        0.2249
     13 C         -21.9156  -10.6010  -10.9908 C.3     1  UNL1        0.1195
     14 C         -23.3908   -8.8516  -17.3752 C.ar    1  UNL1        0.0015
     15 C         -23.6550   -7.4582  -17.2515 C.ar    1  UNL1        0.0016
     16 C         -24.2259   -6.7339  -18.3141 C.ar    1  UNL1        0.0206
     17 C         -24.5200   -7.4253  -19.4842 C.ar    1  UNL1        0.0985
     18 N         -25.0654   -6.9387  -20.6135 N.ar    1  UNL1       -0.2241
     19 C         -25.1286   -8.0350  -21.4147 C.ar    1  UNL1        0.1750
     20 N         -24.6504   -9.1600  -20.8306 N.ar    1  UNL1       -0.3349
     21 C         -24.2697   -8.7563  -19.6131 C.ar    1  UNL1        0.0757
     22 C         -23.7066   -9.5114  -18.5878 C.ar    1  UNL1        0.0185
     23 H         -24.5934  -10.1192  -21.2394 H       1  UNL1        0.1675
     24 C         -24.2995   -6.9104  -12.3605 C.ar    1  UNL1       -0.0165
     25 C         -25.2216   -6.1326  -13.0818 C.ar    1  UNL1        0.0142
     26 C         -26.5678   -6.5038  -13.1593 C.ar    1  UNL1        0.1054
     27 C         -27.0136   -7.6379  -12.4740 C.ar    1  UNL1        0.0185
     28 C         -26.1151   -8.4120  -11.7386 C.ar    1  UNL1        0.0055
     29 C         -24.7552   -8.0713  -11.6852 C.ar    1  UNL1        0.0497
     30 S         -27.6954   -5.5184  -14.0841 S.O2    1  UNL1        0.0104
     31 C         -26.8378   -4.7606  -15.4447 C.3     1  UNL1        0.1816
     32 O         -28.8087   -6.3830  -14.6063 O.2     1  UNL1       -0.1686
     33 O         -28.2851   -4.4498  -13.2067 O.2     1  UNL1       -0.1686
     34 C         -22.8771   -6.4130  -12.2454 C.3     1  UNL1        0.0265
     35 C         -21.6972   -5.3850  -10.2667 C.3     1  UNL1        0.0004
     36 C         -22.8025   -5.2077  -11.3034 C.3     1  UNL1        0.0047
     37 C         -20.8126   -9.5101  -10.9790 C.3     1  UNL1        0.0237
     38 C         -19.5482   -9.9418  -10.2355 C.3     1  UNL1        0.0019
@<TRIPOS>BOND
     1    35    36    1
     2    36    34    1
     3    34    24    1
     4    24    25   ar
     5    25    26   ar
     6    26    30    1
     7    30    31    1
     8    30    32    2
     9    30    33    2
    10    26    27   ar
    11    27    28   ar
    12    28    29   ar
    13    29     1    1
    14     1     2    2
    15     1     3   am
    16     3     4    1
    17     4     5    1
    18     5     6   ar
    19     6     7   ar
    20     7    14    1
    21    14    15   ar
    22    15    16   ar
    23    16    17   ar
    24    17    18   ar
    25    18    19   ar
    26    19    20   ar
    27    20    21   ar
    28    21    22   ar
    29     7     8   ar
    30     8     9   ar
    31     9    10   ar
    32    10    11    1
    33    11    12    1
    34    12    13    1
    35    13    37    1
    36    37    38    1
    37    29    24   ar
    38    13     3    1
    39    10     5   ar
    40    22    14   ar
    41    21    17   ar
    42    20    23    1
@<TRIPOS>MOLECULE
*****
 38 42 0 0 0
SMALL
GASTEIGER

@<TRIPOS>ATOM
      1 C         -25.6028   -9.4595  -13.4298 C.2     1  UNL1        0.2490
      2 O         -26.4434   -8.9456  -14.2167 O.2     1  UNL1       -0.2699
      3 N         -25.5755   -9.0571  -12.0395 N.am    1  UNL1       -0.2698
      4 C         -25.1519  -10.0316  -11.0183 C.3     1  UNL1        0.1235
      5 C         -23.8846   -9.5786  -10.3489 C.ar    1  UNL1        0.0317
      6 C         -22.7466  -10.4008  -10.4414 C.ar    1  UNL1        0.0004
      7 C         -21.5275  -10.0221   -9.8583 C.ar    1  UNL1       -0.0000
      8 C         -21.4615   -8.8125   -9.1523 C.ar    1  UNL1        0.0031
      9 C         -22.5848   -7.9917   -9.0494 C.ar    1  UNL1        0.0366
     10 C         -23.7972   -8.3481   -9.6503 C.ar    1  UNL1        0.1362
     11 O         -24.8537   -7.4260   -9.5388 O.3     1  UNL1       -0.4739
     12 C         -26.1516   -7.5224  -10.1275 C.3     1  UNL1        0.2249
     13 C         -26.0886   -7.7182  -11.6617 C.3     1  UNL1        0.1195
     14 C         -20.3266  -10.8846   -9.9971 C.ar    1  UNL1        0.0015
     15 C         -20.3556  -12.0259  -10.8475 C.ar    1  UNL1        0.0016
     16 C         -19.2254  -12.8523  -10.9865 C.ar    1  UNL1        0.0206
     17 C         -18.0843  -12.5144  -10.2671 C.ar    1  UNL1        0.0985
     18 N         -16.9027  -13.1571  -10.2473 N.ar    1  UNL1       -0.2241
     19 C         -16.1646  -12.4050   -9.3887 C.ar    1  UNL1        0.1750
     20 N         -16.8364  -11.3407   -8.8872 N.ar    1  UNL1       -0.3349
     21 C         -18.0459  -11.4250   -9.4532 C.ar    1  UNL1        0.0757
     22 C         -19.1403  -10.5808   -9.2860 C.ar    1  UNL1        0.0185
     23 H         -16.4876  -10.6224   -8.2144 H       1  UNL1        0.1675
     24 C         -23.3472  -10.2278  -14.3080 C.ar    1  UNL1       -0.0165
     25 C         -22.5316  -11.2792  -14.7604 C.ar    1  UNL1        0.0142
     26 C         -23.0233  -12.5863  -14.8384 C.ar    1  UNL1        0.1054
     27 C         -24.3562  -12.8453  -14.5055 C.ar    1  UNL1        0.0185
     28 C         -25.1851  -11.8103  -14.0711 C.ar    1  UNL1        0.0055
     29 C         -24.6924  -10.5020  -13.9520 C.ar    1  UNL1        0.0497
     30 S         -21.9726  -13.8848  -15.3931 S.O2    1  UNL1        0.0104
     31 C         -22.8620  -15.4237  -15.3464 C.3     1  UNL1        0.1816
     32 O         -21.5228  -13.6029  -16.7994 O.2     1  UNL1       -0.1686
     33 O         -20.7609  -13.9802  -14.5087 O.2     1  UNL1       -0.1686
     34 C         -22.7842   -8.8254  -14.3247 C.3     1  UNL1        0.0265
     35 C         -21.4838   -7.4191  -12.6830 C.3     1  UNL1        0.0004
     36 C         -21.5307   -8.7377  -13.4491 C.3     1  UNL1        0.0047
     37 C         -25.2457   -6.6039  -12.3360 C.3     1  UNL1        0.0237
     38 C         -26.0983   -5.5524  -13.0470 C.3     1  UNL1        0.0019
@<TRIPOS>BOND
     1    35    36    1
     2    36    34    1
     3    34    24    1
     4    24    25   ar
     5    25    26   ar
     6    26    30    1
     7    30    31    1
     8    30    32    2
     9    30    33    2
    10    26    27   ar
    11    27    28   ar
    12    28    29   ar
    13    29     1    1
    14     1     2    2
    15     1     3   am
    16     3     4    1
    17     4     5    1
    18     5     6   ar
    19     6     7   ar
    20     7    14    1
    21    14    15   ar
    22    15    16   ar
    23    16    17   ar
    24    17    18   ar
    25    18    19   ar
    26    19    20   ar
    27    20    21   ar
    28    21    22   ar
    29     7     8   ar
    30     8     9   ar
    31     9    10   ar
    32    10    11    1
    33    11    12    1
    34    12    13    1
    35    13    37    1
    36    37    38    1
    37    29    24   ar
    38    13     3    1
    39    10     5   ar
    40    22    14   ar
    41    21    17   ar
    42    20    23    1
@<TRIPOS>MOLECULE
*****
 38 42 0 0 0
SMALL
GASTEIGER

@<TRIPOS>ATOM
      1 C         -25.0647   -9.8146  -13.7903 C.2     1  UNL1        0.2490
      2 O         -26.2692   -9.5755  -14.0769 O.2     1  UNL1       -0.2699
      3 N         -24.3177  -10.7847  -14.5624 N.am    1  UNL1       -0.2698
      4 C         -22.8643  -10.6055  -14.7274 C.3     1  UNL1        0.1235
      5 C         -22.1151  -11.7323  -14.0729 C.ar    1  UNL1        0.0317
      6 C         -21.2170  -11.4262  -13.0340 C.ar    1  UNL1        0.0004
      7 C         -20.5058  -12.4359  -12.3674 C.ar    1  UNL1       -0.0000
      8 C         -20.6829  -13.7673  -12.7697 C.ar    1  UNL1        0.0031
      9 C         -21.5666  -14.0822  -13.8022 C.ar    1  UNL1        0.0366
     10 C         -22.3002  -13.0851  -14.4544 C.ar    1  UNL1        0.1362
     11 O         -23.2076  -13.5105  -15.4417 O.3     1  UNL1       -0.4739
     12 C         -24.1192  -12.7004  -16.1853 C.3     1  UNL1        0.2249
     13 C         -25.0465  -11.8655  -15.2693 C.3     1  UNL1        0.1195
     14 C         -19.5896  -12.0982  -11.2485 C.ar    1  UNL1        0.0015
     15 C         -19.5924  -10.7901  -10.6868 C.ar    1  UNL1        0.0016
     16 C         -18.7283  -10.4567   -9.6277 C.ar    1  UNL1        0.0206
     17 C         -17.8764  -11.4472   -9.1514 C.ar    1  UNL1        0.0985
     18 N         -16.9748  -11.3503   -8.1577 N.ar    1  UNL1       -0.2241
     19 C         -16.4316  -12.5957   -8.1206 C.ar    1  UNL1        0.1750
     20 N         -16.9563  -13.4421   -9.0392 N.ar    1  UNL1       -0.3349
     21 C         -17.8672  -12.7006   -9.6801 C.ar    1  UNL1        0.0757
     22 C         -18.7045  -13.0734  -10.7281 C.ar    1  UNL1        0.0185
     23 H         -16.7054  -14.4419   -9.2058 H       1  UNL1        0.1675
     24 C         -24.4597   -7.6349  -12.6362 C.ar    1  UNL1       -0.0165
     25 C         -23.8744   -6.9820  -11.5376 C.ar    1  UNL1        0.0142
     26 C         -23.2965   -7.7118  -10.4938 C.ar    1  UNL1        0.1054
     27 C         -23.2590   -9.1076  -10.5631 C.ar    1  UNL1        0.0185
     28 C         -23.8197   -9.7715  -11.6549 C.ar    1  UNL1        0.0055
     29 C         -24.4364   -9.0519  -12.6894 C.ar    1  UNL1        0.0497
     30 S         -22.5862   -6.8662   -9.1234 S.O2    1  UNL1        0.0104
     31 C         -20.8341   -7.1663   -9.0888 C.3     1  UNL1        0.1816
     32 O         -22.8444   -5.3910   -9.2529 O.2     1  UNL1       -0.1686
     33 O         -23.2026   -7.3534   -7.8419 O.2     1  UNL1       -0.1686
     34 C         -24.9936   -6.7910  -13.7706 C.3     1  UNL1        0.0265
     35 C         -27.2996   -5.8565  -14.1869 C.3     1  UNL1        0.0004
     36 C         -26.0822   -5.8385  -13.2673 C.3     1  UNL1        0.0047
     37 C         -25.7950  -12.7691  -14.2544 C.3     1  UNL1        0.0237
     38 C         -25.8951  -14.2262  -14.7068 C.3     1  UNL1        0.0019
@<TRIPOS>BOND
     1    35    36    1
     2    36    34    1
     3    34    24    1
     4    24    25   ar
     5    25    26   ar
     6    26    30    1
     7    30    31    1
     8    30    32    2
     9    30    33    2
    10    26    27   ar
    11    27    28   ar
    12    28    29   ar
    13    29     1    1
    14     1     2    2
    15     1     3   am
    16     3     4    1
    17     4     5    1
    18     5     6   ar
    19     6     7   ar
    20     7    14    1
    21    14    15   ar
    22    15    16   ar
    23    16    17   ar
    24    17    18   ar
    25    18    19   ar
    26    19    20   ar
    27    20    21   ar
    28    21    22   ar
    29     7     8   ar
    30     8     9   ar
    31     9    10   ar
    32    10    11    1
    33    11    12    1
    34    12    13    1
    35    13    37    1
    36    37    38    1
    37    29    24   ar
    38    13     3    1
    39    10     5   ar
    40    22    14   ar
    41    21    17   ar
    42    20    23    1
@<TRIPOS>MOLECULE
*****
 38 42 0 0 0
SMALL
GASTEIGER

@<TRIPOS>ATOM
      1 C         -23.3617   -9.3891  -10.9109 C.2     1  UNL1        0.2490
      2 O         -23.1035   -9.3080   -9.6793 O.2     1  UNL1       -0.2699
      3 N         -22.8062  -10.4716  -11.6952 N.am    1  UNL1       -0.2698
      4 C         -23.5642  -10.9833  -12.8508 C.3     1  UNL1        0.1235
      5 C         -22.8133  -10.7322  -14.1285 C.ar    1  UNL1        0.0317
      6 C         -23.4177   -9.9317  -15.1153 C.ar    1  UNL1        0.0004
      7 C         -22.7580   -9.6410  -16.3194 C.ar    1  UNL1       -0.0000
      8 C         -21.4847  -10.1843  -16.5421 C.ar    1  UNL1        0.0031
      9 C         -20.8779  -10.9838  -15.5732 C.ar    1  UNL1        0.0366
     10 C         -21.5166  -11.2569  -14.3586 C.ar    1  UNL1        0.1362
     11 O         -20.7975  -12.0243  -13.4242 O.3     1  UNL1       -0.4739
     12 C         -21.1967  -12.3667  -12.0961 C.3     1  UNL1        0.2249
     13 C         -21.5502  -11.1208  -11.2483 C.3     1  UNL1        0.1195
     14 C         -23.3955   -8.7642  -17.3343 C.ar    1  UNL1        0.0015
     15 C         -23.6724   -9.2593  -18.6400 C.ar    1  UNL1        0.0016
     16 C         -24.2745   -8.4384  -19.6113 C.ar    1  UNL1        0.0206
     17 C         -24.5885   -7.1327  -19.2505 C.ar    1  UNL1        0.0985
     18 N         -25.1604   -6.1826  -20.0121 N.ar    1  UNL1       -0.2241
     19 C         -25.2283   -5.1195  -19.1677 C.ar    1  UNL1        0.1750
     20 N         -24.7278   -5.3752  -17.9350 N.ar    1  UNL1       -0.3349
     21 C         -24.3295   -6.6506  -18.0050 C.ar    1  UNL1        0.0757
     22 C         -23.7352   -7.4272  -17.0140 C.ar    1  UNL1        0.0185
     23 H         -24.6683   -4.7245  -17.1204 H       1  UNL1        0.1675
     24 C         -23.7968   -7.2737  -12.2469 C.ar    1  UNL1       -0.0165
     25 C         -24.7247   -6.3858  -12.8179 C.ar    1  UNL1        0.0142
     26 C         -26.1001   -6.6029  -12.6866 C.ar    1  UNL1        0.1054
     27 C         -26.5608   -7.6916  -11.9402 C.ar    1  UNL1        0.0185
     28 C         -25.6535   -8.5734  -11.3516 C.ar    1  UNL1        0.0055
     29 C         -24.2717   -8.3877  -11.5087 C.ar    1  UNL1        0.0497
     30 S         -27.2376   -5.4824  -13.4271 S.O2    1  UNL1        0.0104
     31 C         -28.5601   -6.3987  -14.1838 C.3     1  UNL1        0.1816
     32 O         -27.7953   -4.5632  -12.3767 O.2     1  UNL1       -0.1686
     33 O         -26.5404   -4.6557  -14.4711 O.2     1  UNL1       -0.1686
     34 C         -22.3266   -6.9403  -12.3528 C.3     1  UNL1        0.0265
     35 C         -21.5023   -6.0488  -10.1414 C.3     1  UNL1        0.0004
     36 C         -21.9987   -5.6857  -11.5377 C.3     1  UNL1        0.0047
     37 C         -20.3839  -10.0979  -11.2397 C.3     1  UNL1        0.0237
     38 C         -19.3714  -10.3502  -10.1221 C.3     1  UNL1        0.0019
@<TRIPOS>BOND
     1    35    36    1
     2    36    34    1
     3    34    24    1
     4    24    25   ar
     5    25    26   ar
     6    26    30    1
     7    30    31    1
     8    30    32    2
     9    30    33    2
    10    26    27   ar
    11    27    28   ar
    12    28    29   ar
    13    29     1    1
    14     1     2    2
    15     1     3   am
    16     3     4    1
    17     4     5    1
    18     5     6   ar
    19     6     7   ar
    20     7    14    1
    21    14    15   ar
    22    15    16   ar
    23    16    17   ar
    24    17    18   ar
    25    18    19   ar
    26    19    20   ar
    27    20    21   ar
    28    21    22   ar
    29     7     8   ar
    30     8     9   ar
    31     9    10   ar
    32    10    11    1
    33    11    12    1
    34    12    13    1
    35    13    37    1
    36    37    38    1
    37    29    24   ar
    38    13     3    1
    39    10     5   ar
    40    22    14   ar
    41    21    17   ar
    42    20    23    1
