@<TRIPOS>MOLECULE
*****
 52 57 0 0 0
SMALL
GASTEIGER

@<TRIPOS>ATOM
      1 C          10.3695   78.7851   25.0223 C.ar    1  UNL1        0.0425
      2 C           9.9346   78.5679   23.7033 C.ar    1  UNL1        0.0176
      3 C           9.6454   77.2763   23.2370 C.ar    1  UNL1        0.0503
      4 C           9.8250   76.1866   24.1015 C.ar    1  UNL1        0.0443
      5 C          10.2359   76.3845   25.4180 C.ar    1  UNL1        0.1458
      6 F          10.3143   75.3097   26.2446 F       1  UNL1       -0.2040
      7 C          10.4722   77.6812   25.9058 C.ar    1  UNL1        0.0836
      8 N           9.1032   77.0873   21.9121 N.pl3   1  UNL1       -0.3040
      9 C           8.6675   78.2649   21.1397 C.3     1  UNL1        0.1122
     10 C           7.4973   77.9136   20.2098 C.3     1  UNL1        0.1122
     11 N           6.6149   76.9446   20.8778 N.pl3   1  UNL1       -0.3041
     12 C           7.1885   75.6694   21.3426 C.3     1  UNL1        0.1122
     13 C           8.7187   75.7539   21.4257 C.3     1  UNL1        0.1122
     14 C           5.2674   77.2935   21.2575 C.ar    1  UNL1        0.0479
     15 C           4.3943   76.3262   21.7852 C.ar    1  UNL1        0.0145
     16 C           3.0731   76.6571   22.0966 C.ar    1  UNL1        0.0051
     17 C           2.5913   77.9569   21.8699 C.ar    1  UNL1        0.0715
     18 C           3.4707   78.9307   21.3678 C.ar    1  UNL1        0.0051
     19 C           4.7912   78.5985   21.0528 C.ar    1  UNL1        0.0145
     20 C           1.1782   78.3238   22.2471 C.3     1  UNL1        0.4186
     21 F           0.2756   77.4392   21.6823 F       1  UNL1       -0.1659
     22 F           0.9028   79.5998   21.7927 F       1  UNL1       -0.1659
     23 F           1.0149   78.2891   23.6212 F       1  UNL1       -0.1659
     24 C          10.6553   77.8470   27.3616 C.2     1  UNL1        0.2484
     25 O          11.5246   77.1622   27.9653 O.2     1  UNL1       -0.2701
     26 N           9.7532   78.6697   28.1106 N.am    1  UNL1       -0.2945
     27 H           9.3962   79.5553   27.6873 H       1  UNL1        0.1501
     28 C           9.0357   78.1284   29.2674 C.3     1  UNL1        0.1535
     29 C           9.0963   79.1064   30.4087 C.2     1  UNL1        0.2443
     30 O           9.4159   78.6990   31.5593 O.2     1  UNL1       -0.2730
     31 N           8.7910   80.4929   30.1863 N.am    1  UNL1       -0.2825
     32 H           8.2673   80.7465   29.3180 H       1  UNL1        0.1549
     33 C           9.0643   81.5389   31.1341 C.ar    1  UNL1        0.0535
     34 C           9.7960   82.6632   30.7277 C.ar    1  UNL1        0.0353
     35 C          10.0847   83.6712   31.6506 C.ar    1  UNL1        0.1002
     36 N           9.6725   83.5534   32.9404 N.ar    1  UNL1       -0.2422
     37 C           8.9790   82.4659   33.3694 C.ar    1  UNL1        0.1002
     38 C           8.6682   81.4354   32.4785 C.ar    1  UNL1        0.0353
     39 C           7.5697   77.8282   28.9013 C.3     1  UNL1        0.0569
     40 C           7.4193   76.4801   28.2509 C.ar    1  UNL1       -0.0017
     41 C           7.5738   75.2443   28.8740 C.ar    1  UNL1        0.0681
     42 N           7.2709   74.2418   28.0190 N.ar    1  UNL1       -0.3523
     43 C           6.9146   74.8320   26.8659 C.ar    1  UNL1        0.0563
     44 C           6.4773   74.2073   25.6989 C.ar    1  UNL1        0.0170
     45 C           6.1088   75.0244   24.6154 C.ar    1  UNL1        0.0015
     46 C           6.1821   76.4314   24.7223 C.ar    1  UNL1        0.0001
     47 C           6.6241   77.0346   25.9141 C.ar    1  UNL1        0.0012
     48 C           6.9865   76.1985   26.9697 C.ar    1  UNL1        0.0131
     49 H           7.2866   73.2193   28.2254 H       1  UNL1        0.1660
     50 C          11.8155   80.9296   24.7111 C.3     1  UNL1        0.0773
     51 C          10.7380   80.1658   25.4196 C.2     1  UNL1        0.1737
     52 O          10.1160   80.7272   26.3613 O.2     1  UNL1       -0.2913
@<TRIPOS>BOND
     1    50    51    1
     2    51    52    2
     3    51     1    1
     4     1     2   ar
     5     2     3   ar
     6     3     8    1
     7     8     9    1
     8     9    10    1
     9    10    11    1
    10    11    14    1
    11    14    15   ar
    12    15    16   ar
    13    16    17   ar
    14    17    20    1
    15    20    21    1
    16    20    22    1
    17    20    23    1
    18    17    18   ar
    19    18    19   ar
    20    11    12    1
    21    12    13    1
    22     3     4   ar
    23     4     5   ar
    24     5     6    1
    25     5     7   ar
    26     7    24    1
    27    24    25    2
    28    24    26   am
    29    26    28    1
    30    28    39    1
    31    39    40    1
    32    40    41   ar
    33    41    42   ar
    34    42    43   ar
    35    43    44   ar
    36    44    45   ar
    37    45    46   ar
    38    46    47   ar
    39    47    48   ar
    40    28    29    1
    41    29    30    2
    42    29    31   am
    43    31    33    1
    44    33    34   ar
    45    34    35   ar
    46    35    36   ar
    47    36    37   ar
    48    37    38   ar
    49     7     1   ar
    50    48    40   ar
    51    38    33   ar
    52    13     8    1
    53    48    43   ar
    54    19    14   ar
    55    26    27    1
    56    42    49    1
    57    31    32    1
@<TRIPOS>MOLECULE
*****
 52 57 0 0 0
SMALL
GASTEIGER

@<TRIPOS>ATOM
      1 C          10.3264   79.3751   24.9777 C.ar    1  UNL1        0.0425
      2 C           9.9800   79.1039   23.6426 C.ar    1  UNL1        0.0176
      3 C           9.4765   77.8502   23.2629 C.ar    1  UNL1        0.0503
      4 C           9.3482   76.8476   24.2352 C.ar    1  UNL1        0.0443
      5 C           9.6676   77.1044   25.5668 C.ar    1  UNL1        0.1458
      6 F           9.4473   76.1318   26.4889 F       1  UNL1       -0.2040
      7 C          10.1186   78.3756   25.9613 C.ar    1  UNL1        0.0836
      8 N           9.0319   77.6267   21.9075 N.pl3   1  UNL1       -0.3040
      9 C           8.5311   78.7671   21.1187 C.3     1  UNL1        0.1122
     10 C           7.4551   78.3177   20.1197 C.3     1  UNL1        0.1122
     11 N           6.6320   77.2615   20.7287 N.pl3   1  UNL1       -0.3041
     12 C           7.2968   76.0409   21.2178 C.3     1  UNL1        0.1122
     13 C           8.8047   76.2689   21.3906 C.3     1  UNL1        0.1122
     14 C           5.2379   77.4766   21.0314 C.ar    1  UNL1        0.0479
     15 C           4.6930   78.7726   21.0349 C.ar    1  UNL1        0.0145
     16 C           3.3564   78.9796   21.3854 C.ar    1  UNL1        0.0051
     17 C           2.5413   77.8980   21.7578 C.ar    1  UNL1        0.0715
     18 C           3.0778   76.5999   21.7286 C.ar    1  UNL1        0.0051
     19 C           4.4157   76.3935   21.3816 C.ar    1  UNL1        0.0145
     20 C           1.0878   78.1178   22.0936 C.3     1  UNL1        0.4186
     21 F           0.7127   79.4208   21.8150 F       1  UNL1       -0.1659
     22 F           0.8891   77.8697   23.4388 F       1  UNL1       -0.1659
     23 F           0.2822   77.2688   21.3545 F       1  UNL1       -0.1659
     24 C          10.1965   78.6608   27.4081 C.2     1  UNL1        0.2484
     25 O          10.7573   77.8363   28.1794 O.2     1  UNL1       -0.2701
     26 N           9.5107   79.7927   27.9558 N.am    1  UNL1       -0.2945
     27 H           9.4780   80.6840   27.4123 H       1  UNL1        0.1501
     28 C           8.5526   79.6261   29.0514 C.3     1  UNL1        0.1535
     29 C           7.2292   79.1636   28.5061 C.2     1  UNL1        0.2443
     30 O           6.1966   79.8596   28.7087 O.2     1  UNL1       -0.2730
     31 N           7.1459   77.9375   27.7611 N.am    1  UNL1       -0.2825
     32 H           7.9332   77.2557   27.8493 H       1  UNL1        0.1549
     33 C           5.9997   77.5418   26.9888 C.ar    1  UNL1        0.0535
     34 C           4.7491   77.4410   27.6137 C.ar    1  UNL1        0.0353
     35 C           3.6366   77.0341   26.8733 C.ar    1  UNL1        0.1002
     36 N           3.7706   76.7212   25.5574 N.ar    1  UNL1       -0.2422
     37 C           4.9736   76.7896   24.9285 C.ar    1  UNL1        0.1002
     38 C           6.1114   77.1931   25.6320 C.ar    1  UNL1        0.0353
     39 C           9.0848   78.6151   30.0848 C.3     1  UNL1        0.0569
     40 C           8.0015   77.6954   30.5784 C.ar    1  UNL1       -0.0017
     41 C           6.9905   78.0235   31.4781 C.ar    1  UNL1        0.0681
     42 N           6.1330   76.9887   31.6248 N.ar    1  UNL1       -0.3523
     43 C           6.5850   76.0144   30.8176 C.ar    1  UNL1        0.0563
     44 C           6.0058   74.7658   30.5968 C.ar    1  UNL1        0.0170
     45 C           6.6249   73.9097   29.6689 C.ar    1  UNL1        0.0015
     46 C           7.7941   74.3172   28.9880 C.ar    1  UNL1        0.0001
     47 C           8.3547   75.5851   29.2285 C.ar    1  UNL1        0.0012
     48 C           7.7208   76.4102   30.1569 C.ar    1  UNL1        0.0131
     49 H           5.2796   76.9653   32.2245 H       1  UNL1        0.1660
     50 C          12.2835   81.0823   24.7732 C.3     1  UNL1        0.0773
     51 C          10.9318   80.6926   25.2901 C.2     1  UNL1        0.1737
     52 O          10.2877   81.5214   25.9880 O.2     1  UNL1       -0.2913
@<TRIPOS>BOND
     1    50    51    1
     2    51    52    2
     3    51     1    1
     4     1     2   ar
     5     2     3   ar
     6     3     8    1
     7     8     9    1
     8     9    10    1
     9    10    11    1
    10    11    14    1
    11    14    15   ar
    12    15    16   ar
    13    16    17   ar
    14    17    20    1
    15    20    21    1
    16    20    22    1
    17    20    23    1
    18    17    18   ar
    19    18    19   ar
    20    11    12    1
    21    12    13    1
    22     3     4   ar
    23     4     5   ar
    24     5     6    1
    25     5     7   ar
    26     7    24    1
    27    24    25    2
    28    24    26   am
    29    26    28    1
    30    28    39    1
    31    39    40    1
    32    40    41   ar
    33    41    42   ar
    34    42    43   ar
    35    43    44   ar
    36    44    45   ar
    37    45    46   ar
    38    46    47   ar
    39    47    48   ar
    40    28    29    1
    41    29    30    2
    42    29    31   am
    43    31    33    1
    44    33    34   ar
    45    34    35   ar
    46    35    36   ar
    47    36    37   ar
    48    37    38   ar
    49     7     1   ar
    50    48    40   ar
    51    38    33   ar
    52    13     8    1
    53    48    43   ar
    54    19    14   ar
    55    26    27    1
    56    42    49    1
    57    31    32    1
@<TRIPOS>MOLECULE
*****
 52 57 0 0 0
SMALL
GASTEIGER

@<TRIPOS>ATOM
      1 C           9.1839   76.4326   22.6751 C.ar    1  UNL1        0.0425
      2 C           9.8458   76.7993   23.8598 C.ar    1  UNL1        0.0176
      3 C           9.9611   78.1449   24.2409 C.ar    1  UNL1        0.0503
      4 C           9.4287   79.1356   23.4031 C.ar    1  UNL1        0.0443
      5 C           8.7519   78.7900   22.2354 C.ar    1  UNL1        0.1458
      6 F           8.1785   79.7763   21.4984 F       1  UNL1       -0.2040
      7 C           8.5849   77.4409   21.8787 C.ar    1  UNL1        0.0836
      8 N          10.5547   78.4913   25.5108 N.pl3   1  UNL1       -0.3040
      9 C          11.1085   77.4214   26.3605 C.3     1  UNL1        0.1122
     10 C          10.9748   77.7732   27.8491 C.3     1  UNL1        0.1122
     11 N           9.7060   78.4832   28.0724 N.pl3   1  UNL1       -0.3041
     12 C           9.4460   79.7209   27.3163 C.3     1  UNL1        0.1122
     13 C          10.3761   79.8267   26.1001 C.3     1  UNL1        0.1122
     14 C           8.6452   77.8972   28.8553 C.ar    1  UNL1        0.0479
     15 C           8.6619   76.5300   29.1821 C.ar    1  UNL1        0.0145
     16 C           7.6030   75.9567   29.8909 C.ar    1  UNL1        0.0051
     17 C           6.4965   76.7337   30.2716 C.ar    1  UNL1        0.0715
     18 C           6.4917   78.1055   29.9687 C.ar    1  UNL1        0.0051
     19 C           7.5492   78.6779   29.2565 C.ar    1  UNL1        0.0145
     20 C           5.3751   76.1234   31.0740 C.3     1  UNL1        0.4186
     21 F           4.2183   76.8728   30.9469 F       1  UNL1       -0.1659
     22 F           5.7401   76.0807   32.4065 F       1  UNL1       -0.1659
     23 F           5.1068   74.8372   30.6382 F       1  UNL1       -0.1659
     24 C           7.6500   77.1295   20.7789 C.2     1  UNL1        0.2484
     25 O           7.1200   78.0670   20.1235 O.2     1  UNL1       -0.2701
     26 N           7.2308   75.7788   20.5522 N.am    1  UNL1       -0.2945
     27 H           7.9182   75.0020   20.6740 H       1  UNL1        0.1501
     28 C           5.8074   75.4333   20.5297 C.3     1  UNL1        0.1535
     29 C           5.2603   75.4329   21.9309 C.2     1  UNL1        0.2443
     30 O           4.6155   74.4308   22.3456 O.2     1  UNL1       -0.2730
     31 N           5.4720   76.5674   22.7872 N.am    1  UNL1       -0.2825
     32 H           5.7499   77.4718   22.3432 H       1  UNL1        0.1549
     33 C           5.2201   76.5649   24.2027 C.ar    1  UNL1        0.0535
     34 C           3.9141   76.7646   24.6706 C.ar    1  UNL1        0.0353
     35 C           3.6676   76.7868   26.0454 C.ar    1  UNL1        0.1002
     36 N           4.6927   76.6325   26.9245 N.ar    1  UNL1       -0.2422
     37 C           5.9726   76.4574   26.5018 C.ar    1  UNL1        0.1002
     38 C           6.2625   76.4278   25.1352 C.ar    1  UNL1        0.0353
     39 C           5.0240   76.4288   19.6530 C.3     1  UNL1        0.0569
     40 C           3.5773   76.5132   20.0568 C.ar    1  UNL1       -0.0017
     41 C           2.5962   75.5570   19.8067 C.ar    1  UNL1        0.0681
     42 N           1.4306   75.9099   20.3936 N.ar    1  UNL1       -0.3523
     43 C           1.6686   77.0731   21.0225 C.ar    1  UNL1        0.0563
     44 C           0.7772   77.8072   21.8033 C.ar    1  UNL1        0.0170
     45 C           1.2515   78.9831   22.4113 C.ar    1  UNL1        0.0015
     46 C           2.5915   79.3927   22.2296 C.ar    1  UNL1        0.0001
     47 C           3.4700   78.6298   21.4385 C.ar    1  UNL1        0.0012
     48 C           2.9699   77.4710   20.8453 C.ar    1  UNL1        0.0131
     49 H           0.5370   75.3716   20.3803 H       1  UNL1        0.1660
     50 C           8.5531   73.9535   23.1677 C.3     1  UNL1        0.0773
     51 C           9.1750   74.9994   22.2929 C.2     1  UNL1        0.1737
     52 O           9.6803   74.6477   21.1930 O.2     1  UNL1       -0.2913
@<TRIPOS>BOND
     1    50    51    1
     2    51    52    2
     3    51     1    1
     4     1     2   ar
     5     2     3   ar
     6     3     8    1
     7     8     9    1
     8     9    10    1
     9    10    11    1
    10    11    14    1
    11    14    15   ar
    12    15    16   ar
    13    16    17   ar
    14    17    20    1
    15    20    21    1
    16    20    22    1
    17    20    23    1
    18    17    18   ar
    19    18    19   ar
    20    11    12    1
    21    12    13    1
    22     3     4   ar
    23     4     5   ar
    24     5     6    1
    25     5     7   ar
    26     7    24    1
    27    24    25    2
    28    24    26   am
    29    26    28    1
    30    28    39    1
    31    39    40    1
    32    40    41   ar
    33    41    42   ar
    34    42    43   ar
    35    43    44   ar
    36    44    45   ar
    37    45    46   ar
    38    46    47   ar
    39    47    48   ar
    40    28    29    1
    41    29    30    2
    42    29    31   am
    43    31    33    1
    44    33    34   ar
    45    34    35   ar
    46    35    36   ar
    47    36    37   ar
    48    37    38   ar
    49     7     1   ar
    50    48    40   ar
    51    38    33   ar
    52    13     8    1
    53    48    43   ar
    54    19    14   ar
    55    26    27    1
    56    42    49    1
    57    31    32    1
@<TRIPOS>MOLECULE
*****
 52 57 0 0 0
SMALL
GASTEIGER

@<TRIPOS>ATOM
      1 C          10.4141   78.4581   26.1928 C.ar    1  UNL1        0.0425
      2 C          10.7701   77.7560   25.0281 C.ar    1  UNL1        0.0176
      3 C          10.9112   76.3598   25.0359 C.ar    1  UNL1        0.0503
      4 C          10.7201   75.6651   26.2391 C.ar    1  UNL1        0.0443
      5 C          10.3474   76.3417   27.3986 C.ar    1  UNL1        0.1458
      6 F          10.0897   75.6199   28.5199 F       1  UNL1       -0.2040
      7 C          10.1499   77.7331   27.3821 C.ar    1  UNL1        0.0836
      8 N          11.1770   75.6503   23.8068 N.pl3   1  UNL1       -0.3040
      9 C          11.1083   76.3793   22.5273 C.3     1  UNL1        0.1122
     10 C          10.6511   75.4557   21.3891 C.3     1  UNL1        0.1122
     11 N           9.6459   74.5106   21.8991 N.pl3   1  UNL1       -0.3041
     12 C          10.0036   73.6431   23.0352 C.3     1  UNL1        0.1122
     13 C          11.2393   74.1815   23.7691 C.3     1  UNL1        0.1122
     14 C           8.2767   74.5539   21.4466 C.ar    1  UNL1        0.0479
     15 C           7.6399   75.7815   21.1939 C.ar    1  UNL1        0.0145
     16 C           6.2964   75.8187   20.8118 C.ar    1  UNL1        0.0051
     17 C           5.5560   74.6311   20.6923 C.ar    1  UNL1        0.0715
     18 C           6.1990   73.4026   20.9187 C.ar    1  UNL1        0.0051
     19 C           7.5418   73.3658   21.3045 C.ar    1  UNL1        0.0145
     20 C           4.1188   74.6701   20.2378 C.3     1  UNL1        0.4186
     21 F           3.4884   75.8102   20.7054 F       1  UNL1       -0.1659
     22 F           3.4575   73.5580   20.7243 F       1  UNL1       -0.1659
     23 F           4.0437   74.6709   18.8556 F       1  UNL1       -0.1659
     24 C           9.5150   78.3531   28.5623 C.2     1  UNL1        0.2484
     25 O          10.0290   78.1990   29.7030 O.2     1  UNL1       -0.2701
     26 N           8.2434   79.0005   28.4378 N.am    1  UNL1       -0.2945
     27 H           8.0343   79.5577   27.5795 H       1  UNL1        0.1501
     28 C           7.1157   78.5983   29.2819 C.3     1  UNL1        0.1535
     29 C           5.9490   78.2012   28.4196 C.2     1  UNL1        0.2443
     30 O           4.7942   78.6216   28.7052 O.2     1  UNL1       -0.2730
     31 N           6.1522   77.3489   27.2805 N.am    1  UNL1       -0.2825
     32 H           7.0393   76.7982   27.2323 H       1  UNL1        0.1549
     33 C           5.1663   77.1229   26.2589 C.ar    1  UNL1        0.0535
     34 C           3.8062   77.2451   26.5747 C.ar    1  UNL1        0.0353
     35 C           2.8434   77.0034   25.5918 C.ar    1  UNL1        0.1002
     36 N           3.2242   76.6349   24.3402 N.ar    1  UNL1       -0.2422
     37 C           4.5344   76.4883   24.0091 C.ar    1  UNL1        0.1002
     38 C           5.5294   76.7214   24.9620 C.ar    1  UNL1        0.0353
     39 C           7.5195   77.4302   30.2016 C.3     1  UNL1        0.0569
     40 C           6.4138   76.4199   30.3425 C.ar    1  UNL1       -0.0017
     41 C           5.3185   76.5129   31.1975 C.ar    1  UNL1        0.0681
     42 N           4.4717   75.4784   30.9964 N.ar    1  UNL1       -0.3523
     43 C           5.0146   74.7395   30.0144 C.ar    1  UNL1        0.0563
     44 C           4.4825   73.5905   29.4313 C.ar    1  UNL1        0.0170
     45 C           5.2006   72.9957   28.3786 C.ar    1  UNL1        0.0015
     46 C           6.4188   73.5580   27.9356 C.ar    1  UNL1        0.0001
     47 C           6.9302   74.7206   28.5408 C.ar    1  UNL1        0.0012
     48 C           6.1981   75.2853   29.5848 C.ar    1  UNL1        0.0131
     49 H           3.5677   75.3071   31.4882 H       1  UNL1        0.1660
     50 C          10.4972   80.6790   24.8336 C.3     1  UNL1        0.0773
     51 C          10.3669   79.9392   26.1306 C.2     1  UNL1        0.1737
     52 O          10.1881   80.5992   27.1895 O.2     1  UNL1       -0.2913
@<TRIPOS>BOND
     1    50    51    1
     2    51    52    2
     3    51     1    1
     4     1     2   ar
     5     2     3   ar
     6     3     8    1
     7     8     9    1
     8     9    10    1
     9    10    11    1
    10    11    14    1
    11    14    15   ar
    12    15    16   ar
    13    16    17   ar
    14    17    20    1
    15    20    21    1
    16    20    22    1
    17    20    23    1
    18    17    18   ar
    19    18    19   ar
    20    11    12    1
    21    12    13    1
    22     3     4   ar
    23     4     5   ar
    24     5     6    1
    25     5     7   ar
    26     7    24    1
    27    24    25    2
    28    24    26   am
    29    26    28    1
    30    28    39    1
    31    39    40    1
    32    40    41   ar
    33    41    42   ar
    34    42    43   ar
    35    43    44   ar
    36    44    45   ar
    37    45    46   ar
    38    46    47   ar
    39    47    48   ar
    40    28    29    1
    41    29    30    2
    42    29    31   am
    43    31    33    1
    44    33    34   ar
    45    34    35   ar
    46    35    36   ar
    47    36    37   ar
    48    37    38   ar
    49     7     1   ar
    50    48    40   ar
    51    38    33   ar
    52    13     8    1
    53    48    43   ar
    54    19    14   ar
    55    26    27    1
    56    42    49    1
    57    31    32    1
@<TRIPOS>MOLECULE
*****
 52 57 0 0 0
SMALL
GASTEIGER

@<TRIPOS>ATOM
      1 C          10.3071   78.8421   25.0223 C.ar    1  UNL1        0.0425
      2 C           9.8464   78.7333   23.6987 C.ar    1  UNL1        0.0176
      3 C           9.7735   77.4886   23.0547 C.ar    1  UNL1        0.0503
      4 C          10.1981   76.3426   23.7427 C.ar    1  UNL1        0.0443
      5 C          10.6387   76.4283   25.0616 C.ar    1  UNL1        0.1458
      6 F          10.9591   75.2829   25.7173 F       1  UNL1       -0.2040
      7 C          10.6599   77.6649   25.7292 C.ar    1  UNL1        0.0836
      8 N           9.2020   77.3878   21.7325 N.pl3   1  UNL1       -0.3040
      9 C           8.6909   78.6049   21.0763 C.3     1  UNL1        0.1122
     10 C           7.5112   78.2788   20.1492 C.3     1  UNL1        0.1122
     11 N           6.6935   77.2154   20.7528 N.pl3   1  UNL1       -0.3041
     12 C           7.3377   75.9340   21.0907 C.3     1  UNL1        0.1122
     13 C           8.8642   76.0840   21.1422 C.3     1  UNL1        0.1122
     14 C           5.3433   77.4659   21.1952 C.ar    1  UNL1        0.0479
     15 C           4.6801   76.5552   22.0362 C.ar    1  UNL1        0.0145
     16 C           3.3529   76.7749   22.4139 C.ar    1  UNL1        0.0051
     17 C           2.6548   77.8995   21.9440 C.ar    1  UNL1        0.0715
     18 C           3.3252   78.8236   21.1253 C.ar    1  UNL1        0.0051
     19 C           4.6515   78.6017   20.7446 C.ar    1  UNL1        0.0145
     20 C           1.2368   78.1578   22.3873 C.3     1  UNL1        0.4186
     21 F           1.0657   77.7993   23.7133 F       1  UNL1       -0.1659
     22 F           0.3730   77.4150   21.6047 F       1  UNL1       -0.1659
     23 F           0.9219   79.4996   22.2584 F       1  UNL1       -0.1659
     24 C          10.8906   77.6568   27.1877 C.2     1  UNL1        0.2484
     25 O          11.9334   77.1232   27.6536 O.2     1  UNL1       -0.2701
     26 N           9.8693   78.1181   28.0798 N.am    1  UNL1       -0.2945
     27 H           9.2875   78.9423   27.8097 H       1  UNL1        0.1501
     28 C           9.3744   77.2566   29.1563 C.3     1  UNL1        0.1535
     29 C           7.9011   77.4850   29.3561 C.2     1  UNL1        0.2443
     30 O           7.2915   78.2973   28.6075 O.2     1  UNL1       -0.2730
     31 N           7.1973   76.7819   30.3932 N.am    1  UNL1       -0.2825
     32 H           7.7596   76.3471   31.1594 H       1  UNL1        0.1549
     33 C           5.7646   76.7322   30.5017 C.ar    1  UNL1        0.0535
     34 C           5.1149   75.4903   30.4852 C.ar    1  UNL1        0.0353
     35 C           3.7214   75.4375   30.5665 C.ar    1  UNL1        0.1002
     36 N           2.9988   76.5861   30.6439 N.ar    1  UNL1       -0.2422
     37 C           3.5986   77.8058   30.6416 C.ar    1  UNL1        0.1002
     38 C           4.9903   77.9034   30.5630 C.ar    1  UNL1        0.0353
     39 C           9.6436   75.7754   28.8294 C.3     1  UNL1        0.0569
     40 C           8.4021   75.0719   28.3534 C.ar    1  UNL1       -0.0017
     41 C           7.7442   74.0323   29.0059 C.ar    1  UNL1        0.0681
     42 N           6.6098   73.7031   28.3481 N.ar    1  UNL1       -0.3523
     43 C           6.5379   74.5323   27.2935 C.ar    1  UNL1        0.0563
     44 C           5.5200   74.6022   26.3437 C.ar    1  UNL1        0.0170
     45 C           5.6236   75.5829   25.3413 C.ar    1  UNL1        0.0015
     46 C           6.7281   76.4638   25.3128 C.ar    1  UNL1        0.0001
     47 C           7.7392   76.3722   26.2869 C.ar    1  UNL1        0.0012
     48 C           7.6110   75.3872   27.2657 C.ar    1  UNL1        0.0131
     49 H           5.9196   72.9704   28.6223 H       1  UNL1        0.1660
     50 C          11.2426   81.2721   24.9423 C.3     1  UNL1        0.0773
     51 C          10.4376   80.1980   25.6090 C.2     1  UNL1        0.1737
     52 O           9.8382   80.4689   26.6843 O.2     1  UNL1       -0.2913
@<TRIPOS>BOND
     1    50    51    1
     2    51    52    2
     3    51     1    1
     4     1     2   ar
     5     2     3   ar
     6     3     8    1
     7     8     9    1
     8     9    10    1
     9    10    11    1
    10    11    14    1
    11    14    15   ar
    12    15    16   ar
    13    16    17   ar
    14    17    20    1
    15    20    21    1
    16    20    22    1
    17    20    23    1
    18    17    18   ar
    19    18    19   ar
    20    11    12    1
    21    12    13    1
    22     3     4   ar
    23     4     5   ar
    24     5     6    1
    25     5     7   ar
    26     7    24    1
    27    24    25    2
    28    24    26   am
    29    26    28    1
    30    28    39    1
    31    39    40    1
    32    40    41   ar
    33    41    42   ar
    34    42    43   ar
    35    43    44   ar
    36    44    45   ar
    37    45    46   ar
    38    46    47   ar
    39    47    48   ar
    40    28    29    1
    41    29    30    2
    42    29    31   am
    43    31    33    1
    44    33    34   ar
    45    34    35   ar
    46    35    36   ar
    47    36    37   ar
    48    37    38   ar
    49     7     1   ar
    50    48    40   ar
    51    38    33   ar
    52    13     8    1
    53    48    43   ar
    54    19    14   ar
    55    26    27    1
    56    42    49    1
    57    31    32    1
@<TRIPOS>MOLECULE
*****
 52 57 0 0 0
SMALL
GASTEIGER

@<TRIPOS>ATOM
      1 C           7.7356   75.5810   21.4649 C.ar    1  UNL1        0.0425
      2 C           8.7472   75.8749   22.3957 C.ar    1  UNL1        0.0176
      3 C           9.0290   77.1980   22.7690 C.ar    1  UNL1        0.0503
      4 C           8.3024   78.2401   22.1750 C.ar    1  UNL1        0.0443
      5 C           7.2828   77.9669   21.2657 C.ar    1  UNL1        0.1458
      6 F           6.5484   79.0011   20.7801 F       1  UNL1       -0.2040
      7 C           6.9594   76.6406   20.9316 C.ar    1  UNL1        0.0836
      8 N          10.0013   77.4695   23.8013 N.pl3   1  UNL1       -0.3040
      9 C          10.4046   76.3826   24.7120 C.3     1  UNL1        0.1122
     10 C          10.7656   76.9303   26.1002 C.3     1  UNL1        0.1122
     11 N           9.8694   78.0481   26.4338 N.pl3   1  UNL1       -0.3041
     12 C           9.8105   79.2035   25.5212 C.3     1  UNL1        0.1122
     13 C          10.3884   78.8459   24.1451 C.3     1  UNL1        0.1122
     14 C           8.9170   77.9507   27.5131 C.ar    1  UNL1        0.0479
     15 C           8.9242   76.8461   28.3827 C.ar    1  UNL1        0.0145
     16 C           7.9628   76.7294   29.3898 C.ar    1  UNL1        0.0051
     17 C           6.9627   77.7046   29.5372 C.ar    1  UNL1        0.0715
     18 C           6.9711   78.8220   28.6856 C.ar    1  UNL1        0.0051
     19 C           7.9306   78.9366   27.6760 C.ar    1  UNL1        0.0145
     20 C           5.9523   77.5996   30.6516 C.3     1  UNL1        0.4186
     21 F           6.3924   78.2756   31.7765 F       1  UNL1       -0.1659
     22 F           5.7642   76.2680   30.9711 F       1  UNL1       -0.1659
     23 F           4.7408   78.1464   30.2653 F       1  UNL1       -0.1659
     24 C           5.7172   76.4054   20.1686 C.2     1  UNL1        0.2484
     25 O           5.4652   77.1060   19.1513 O.2     1  UNL1       -0.2701
     26 N           4.7321   75.4906   20.6628 N.am    1  UNL1       -0.2945
     27 H           5.0407   74.6103   21.1326 H       1  UNL1        0.1501
     28 C           3.3475   75.9235   20.8662 C.3     1  UNL1        0.1535
     29 C           2.4518   75.2602   19.8560 C.2     1  UNL1        0.2443
     30 O           2.9356   74.8717   18.7574 O.2     1  UNL1       -0.2730
     31 N           1.0563   75.0729   20.1436 N.am    1  UNL1       -0.2825
     32 H           0.6336   75.6412   20.9122 H       1  UNL1        0.1549
     33 C           0.1812   74.2343   19.3705 C.ar    1  UNL1        0.0535
     34 C          -0.9025   74.8090   18.6923 C.ar    1  UNL1        0.0353
     35 C          -1.7696   73.9955   17.9590 C.ar    1  UNL1        0.1002
     36 N          -1.5725   72.6513   17.9180 N.ar    1  UNL1       -0.2422
     37 C          -0.5428   72.0624   18.5816 C.ar    1  UNL1        0.1002
     38 C           0.3484   72.8396   19.3259 C.ar    1  UNL1        0.0353
     39 C           2.8804   75.5852   22.2947 C.3     1  UNL1        0.0569
     40 C           3.6992   76.2984   23.3358 C.ar    1  UNL1       -0.0017
     41 C           3.4225   77.5471   23.8867 C.ar    1  UNL1        0.0681
     42 N           4.3105   77.8412   24.8627 N.ar    1  UNL1       -0.3523
     43 C           5.1380   76.7858   24.9425 C.ar    1  UNL1        0.0563
     44 C           6.1937   76.6077   25.8352 C.ar    1  UNL1        0.0170
     45 C           6.9077   75.3977   25.7747 C.ar    1  UNL1        0.0015
     46 C           6.5525   74.4031   24.8359 C.ar    1  UNL1        0.0001
     47 C           5.4798   74.6090   23.9492 C.ar    1  UNL1        0.0012
     48 C           4.7933   75.8202   24.0303 C.ar    1  UNL1        0.0131
     49 H           4.3295   78.7031   25.4503 H       1  UNL1        0.1660
     50 C           8.0889   73.0321   21.8712 C.3     1  UNL1        0.0773
     51 C           7.5512   74.1677   21.0543 C.2     1  UNL1        0.1737
     52 O           6.9048   73.9062   20.0042 O.2     1  UNL1       -0.2913
@<TRIPOS>BOND
     1    50    51    1
     2    51    52    2
     3    51     1    1
     4     1     2   ar
     5     2     3   ar
     6     3     8    1
     7     8     9    1
     8     9    10    1
     9    10    11    1
    10    11    14    1
    11    14    15   ar
    12    15    16   ar
    13    16    17   ar
    14    17    20    1
    15    20    21    1
    16    20    22    1
    17    20    23    1
    18    17    18   ar
    19    18    19   ar
    20    11    12    1
    21    12    13    1
    22     3     4   ar
    23     4     5   ar
    24     5     6    1
    25     5     7   ar
    26     7    24    1
    27    24    25    2
    28    24    26   am
    29    26    28    1
    30    28    39    1
    31    39    40    1
    32    40    41   ar
    33    41    42   ar
    34    42    43   ar
    35    43    44   ar
    36    44    45   ar
    37    45    46   ar
    38    46    47   ar
    39    47    48   ar
    40    28    29    1
    41    29    30    2
    42    29    31   am
    43    31    33    1
    44    33    34   ar
    45    34    35   ar
    46    35    36   ar
    47    36    37   ar
    48    37    38   ar
    49     7     1   ar
    50    48    40   ar
    51    38    33   ar
    52    13     8    1
    53    48    43   ar
    54    19    14   ar
    55    26    27    1
    56    42    49    1
    57    31    32    1
@<TRIPOS>MOLECULE
*****
 52 57 0 0 0
SMALL
GASTEIGER

@<TRIPOS>ATOM
      1 C          10.3575   75.7158   23.1554 C.ar    1  UNL1        0.0425
      2 C          10.7753   76.3066   24.3605 C.ar    1  UNL1        0.0176
      3 C          10.0923   77.4041   24.9068 C.ar    1  UNL1        0.0503
      4 C           8.9923   77.9315   24.2151 C.ar    1  UNL1        0.0443
      5 C           8.5515   77.3467   23.0298 C.ar    1  UNL1        0.1458
      6 F           7.4313   77.8370   22.4385 F       1  UNL1       -0.2040
      7 C           9.1981   76.2129   22.5086 C.ar    1  UNL1        0.0836
      8 N          10.4766   77.9299   26.1955 N.pl3   1  UNL1       -0.3040
      9 C          10.6383   77.0027   27.3303 C.3     1  UNL1        0.1122
     10 C          10.2808   77.6866   28.6577 C.3     1  UNL1        0.1122
     11 N           9.1504   78.6041   28.4469 N.pl3   1  UNL1       -0.3041
     12 C           9.2843   79.6711   27.4396 C.3     1  UNL1        0.1122
     13 C          10.4402   79.3731   26.4749 C.3     1  UNL1        0.1122
     14 C           7.8642   78.3628   29.0542 C.ar    1  UNL1        0.0479
     15 C           7.7671   77.9306   30.3885 C.ar    1  UNL1        0.0145
     16 C           6.5216   77.6431   30.9526 C.ar    1  UNL1        0.0051
     17 C           5.3485   77.7636   30.1896 C.ar    1  UNL1        0.0715
     18 C           5.4424   78.2211   28.8646 C.ar    1  UNL1        0.0051
     19 C           6.6887   78.5050   28.2994 C.ar    1  UNL1        0.0145
     20 C           4.0018   77.4950   30.8125 C.3     1  UNL1        0.4186
     21 F           3.5278   78.6233   31.4592 F       1  UNL1       -0.1659
     22 F           4.1214   76.4673   31.7291 F       1  UNL1       -0.1659
     23 F           3.0802   77.1321   29.8454 F       1  UNL1       -0.1659
     24 C           8.5389   75.4918   21.4013 C.2     1  UNL1        0.2484
     25 O           8.0195   76.1404   20.4532 O.2     1  UNL1       -0.2701
     26 N           8.3579   74.0728   21.4743 N.am    1  UNL1       -0.2945
     27 H           9.1092   73.4817   21.8949 H       1  UNL1        0.1501
     28 C           7.0248   73.4826   21.3310 C.3     1  UNL1        0.1535
     29 C           6.1105   74.0226   22.3964 C.2     1  UNL1        0.2443
     30 O           5.8409   73.3108   23.4026 O.2     1  UNL1       -0.2730
     31 N           5.5501   75.3394   22.2651 N.am    1  UNL1       -0.2825
     32 H           5.5564   75.7827   21.3186 H       1  UNL1        0.1549
     33 C           4.8840   76.0399   23.3293 C.ar    1  UNL1        0.0535
     34 C           3.6162   76.5929   23.1027 C.ar    1  UNL1        0.0353
     35 C           2.9747   77.2949   24.1260 C.ar    1  UNL1        0.1002
     36 N           3.5853   77.4551   25.3297 N.ar    1  UNL1       -0.2422
     37 C           4.8227   76.9482   25.5731 C.ar    1  UNL1        0.1002
     38 C           5.4987   76.2384   24.5774 C.ar    1  UNL1        0.0353
     39 C           6.4490   73.7821   19.9339 C.3     1  UNL1        0.0569
     40 C           4.9513   73.9202   19.9628 C.ar    1  UNL1       -0.0017
     41 C           4.0693   73.1567   20.7233 C.ar    1  UNL1        0.0681
     42 N           2.8046   73.6129   20.5815 N.ar    1  UNL1       -0.3523
     43 C           2.8802   74.6646   19.7489 C.ar    1  UNL1        0.0563
     44 C           1.8354   75.4898   19.3357 C.ar    1  UNL1        0.0170
     45 C           2.1467   76.5699   18.4908 C.ar    1  UNL1        0.0015
     46 C           3.4804   76.8001   18.0848 C.ar    1  UNL1        0.0001
     47 C           4.5154   75.9525   18.5205 C.ar    1  UNL1        0.0012
     48 C           4.1755   74.8876   19.3542 C.ar    1  UNL1        0.0131
     49 H           1.9497   73.2375   21.0470 H       1  UNL1        0.1660
     50 C          11.2209   73.2591   23.2325 C.3     1  UNL1        0.0773
     51 C          11.1775   74.6145   22.5943 C.2     1  UNL1        0.1737
     52 O          11.8388   74.8091   21.5390 O.2     1  UNL1       -0.2913
@<TRIPOS>BOND
     1    50    51    1
     2    51    52    2
     3    51     1    1
     4     1     2   ar
     5     2     3   ar
     6     3     8    1
     7     8     9    1
     8     9    10    1
     9    10    11    1
    10    11    14    1
    11    14    15   ar
    12    15    16   ar
    13    16    17   ar
    14    17    20    1
    15    20    21    1
    16    20    22    1
    17    20    23    1
    18    17    18   ar
    19    18    19   ar
    20    11    12    1
    21    12    13    1
    22     3     4   ar
    23     4     5   ar
    24     5     6    1
    25     5     7   ar
    26     7    24    1
    27    24    25    2
    28    24    26   am
    29    26    28    1
    30    28    39    1
    31    39    40    1
    32    40    41   ar
    33    41    42   ar
    34    42    43   ar
    35    43    44   ar
    36    44    45   ar
    37    45    46   ar
    38    46    47   ar
    39    47    48   ar
    40    28    29    1
    41    29    30    2
    42    29    31   am
    43    31    33    1
    44    33    34   ar
    45    34    35   ar
    46    35    36   ar
    47    36    37   ar
    48    37    38   ar
    49     7     1   ar
    50    48    40   ar
    51    38    33   ar
    52    13     8    1
    53    48    43   ar
    54    19    14   ar
    55    26    27    1
    56    42    49    1
    57    31    32    1
@<TRIPOS>MOLECULE
*****
 52 57 0 0 0
SMALL
GASTEIGER

@<TRIPOS>ATOM
      1 C           4.6091   75.5743   25.3645 C.ar    1  UNL1        0.0425
      2 C           4.8982   75.3876   26.7275 C.ar    1  UNL1        0.0176
      3 C           5.8837   74.4794   27.1435 C.ar    1  UNL1        0.0503
      4 C           6.5661   73.7280   26.1757 C.ar    1  UNL1        0.0443
      5 C           6.3073   73.9139   24.8194 C.ar    1  UNL1        0.1458
      6 F           7.0512   73.2274   23.9139 F       1  UNL1       -0.2040
      7 C           5.3612   74.8630   24.3958 C.ar    1  UNL1        0.0836
      8 N           6.2347   74.3786   28.5405 N.pl3   1  UNL1       -0.3040
      9 C           5.4084   75.0784   29.5409 C.3     1  UNL1        0.1122
     10 C           6.2539   75.5204   30.7440 C.3     1  UNL1        0.1122
     11 N           7.5857   75.9382   30.2796 N.pl3   1  UNL1       -0.3041
     12 C           8.4009   74.9783   29.5147 C.3     1  UNL1        0.1122
     13 C           7.5339   73.8369   28.9660 C.3     1  UNL1        0.1122
     14 C           8.0216   77.3095   30.3847 C.ar    1  UNL1        0.0479
     15 C           9.2573   77.7154   29.8513 C.ar    1  UNL1        0.0145
     16 C           9.6997   79.0316   30.0073 C.ar    1  UNL1        0.0051
     17 C           8.9250   79.9649   30.7156 C.ar    1  UNL1        0.0715
     18 C           7.6780   79.5668   31.2257 C.ar    1  UNL1        0.0051
     19 C           7.2374   78.2493   31.0729 C.ar    1  UNL1        0.0145
     20 C           9.3834   81.3955   30.8456 C.3     1  UNL1        0.4186
     21 F           8.3696   82.2684   30.4900 F       1  UNL1       -0.1659
     22 F          10.4685   81.6028   30.0149 F       1  UNL1       -0.1659
     23 F           9.7543   81.6727   32.1501 F       1  UNL1       -0.1659
     24 C           5.3135   75.1940   22.9575 C.2     1  UNL1        0.2484
     25 O           5.0605   74.2908   22.1153 O.2     1  UNL1       -0.2701
     26 N           5.6978   76.4981   22.5067 N.am    1  UNL1       -0.2945
     27 H           5.4430   77.3336   23.0793 H       1  UNL1        0.1501
     28 C           6.7420   76.6589   21.4919 C.3     1  UNL1        0.1535
     29 C           7.5212   75.3796   21.3545 C.2     1  UNL1        0.2443
     30 O           7.2571   74.5904   20.4062 O.2     1  UNL1       -0.2730
     31 N           8.5573   75.0622   22.2985 N.am    1  UNL1       -0.2825
     32 H           8.5636   75.5737   23.2100 H       1  UNL1        0.1549
     33 C           9.5194   74.0101   22.1134 C.ar    1  UNL1        0.0535
     34 C           9.1151   72.6749   22.2489 C.ar    1  UNL1        0.0353
     35 C          10.0511   71.6496   22.0934 C.ar    1  UNL1        0.1002
     36 N          11.3507   71.9470   21.8290 N.ar    1  UNL1       -0.2422
     37 C          11.7771   73.2323   21.7121 C.ar    1  UNL1        0.1002
     38 C          10.8734   74.2877   21.8592 C.ar    1  UNL1        0.0353
     39 C           6.1226   77.0527   20.1375 C.3     1  UNL1        0.0569
     40 C           4.6310   76.8575   20.1255 C.ar    1  UNL1       -0.0017
     41 C           3.9448   75.7975   19.5383 C.ar    1  UNL1        0.0681
     42 N           2.6216   75.8867   19.8008 N.ar    1  UNL1       -0.3523
     43 C           2.4664   76.9855   20.5583 C.ar    1  UNL1        0.0563
     44 C           1.2814   77.4672   21.1123 C.ar    1  UNL1        0.0170
     45 C           1.3532   78.6182   21.9170 C.ar    1  UNL1        0.0015
     46 C           2.5940   79.2529   22.1495 C.ar    1  UNL1        0.0001
     47 C           3.7747   78.7422   21.5799 C.ar    1  UNL1        0.0012
     48 C           3.6715   77.6021   20.7835 C.ar    1  UNL1        0.0131
     49 H           1.8785   75.2204   19.4968 H       1  UNL1        0.1660
     50 C           3.3187   77.8164   25.6717 C.3     1  UNL1        0.0773
     51 C           3.4972   76.4869   25.0032 C.2     1  UNL1        0.1737
     52 O           2.6913   76.1528   24.0933 O.2     1  UNL1       -0.2913
@<TRIPOS>BOND
     1    50    51    1
     2    51    52    2
     3    51     1    1
     4     1     2   ar
     5     2     3   ar
     6     3     8    1
     7     8     9    1
     8     9    10    1
     9    10    11    1
    10    11    14    1
    11    14    15   ar
    12    15    16   ar
    13    16    17   ar
    14    17    20    1
    15    20    21    1
    16    20    22    1
    17    20    23    1
    18    17    18   ar
    19    18    19   ar
    20    11    12    1
    21    12    13    1
    22     3     4   ar
    23     4     5   ar
    24     5     6    1
    25     5     7   ar
    26     7    24    1
    27    24    25    2
    28    24    26   am
    29    26    28    1
    30    28    39    1
    31    39    40    1
    32    40    41   ar
    33    41    42   ar
    34    42    43   ar
    35    43    44   ar
    36    44    45   ar
    37    45    46   ar
    38    46    47   ar
    39    47    48   ar
    40    28    29    1
    41    29    30    2
    42    29    31   am
    43    31    33    1
    44    33    34   ar
    45    34    35   ar
    46    35    36   ar
    47    36    37   ar
    48    37    38   ar
    49     7     1   ar
    50    48    40   ar
    51    38    33   ar
    52    13     8    1
    53    48    43   ar
    54    19    14   ar
    55    26    27    1
    56    42    49    1
    57    31    32    1
@<TRIPOS>MOLECULE
*****
 52 57 0 0 0
SMALL
GASTEIGER

@<TRIPOS>ATOM
      1 C           4.6592   75.5420   26.0595 C.ar    1  UNL1        0.0425
      2 C           4.9754   75.4011   24.6971 C.ar    1  UNL1        0.0176
      3 C           4.4623   76.2865   23.7368 C.ar    1  UNL1        0.0503
      4 C           3.5961   77.3089   24.1506 C.ar    1  UNL1        0.0443
      5 C           3.2873   77.4762   25.4988 C.ar    1  UNL1        0.1458
      6 F           2.5132   78.5307   25.8640 F       1  UNL1       -0.2040
      7 C           3.8438   76.6266   26.4703 C.ar    1  UNL1        0.0836
      8 N           4.8812   76.1851   22.3587 N.pl3   1  UNL1       -0.3040
      9 C           4.8039   74.8793   21.6788 C.3     1  UNL1        0.1122
     10 C           5.9096   74.7401   20.6226 C.3     1  UNL1        0.1122
     11 N           7.1369   75.3880   21.1101 N.pl3   1  UNL1       -0.3041
     12 C           7.0830   76.8116   21.4866 C.3     1  UNL1        0.1122
     13 C           5.6338   77.2668   21.7061 C.3     1  UNL1        0.1122
     14 C           8.3223   74.6222   21.4096 C.ar    1  UNL1        0.0479
     15 C           8.2367   73.2534   21.7186 C.ar    1  UNL1        0.0145
     16 C           9.3816   72.5309   22.0643 C.ar    1  UNL1        0.0051
     17 C          10.6332   73.1654   22.1266 C.ar    1  UNL1        0.0715
     18 C          10.7235   74.5269   21.7919 C.ar    1  UNL1        0.0051
     19 C           9.5776   75.2502   21.4498 C.ar    1  UNL1        0.0145
     20 C          11.8741   72.3750   22.4573 C.3     1  UNL1        0.4186
     21 F          12.9267   73.2210   22.7612 F       1  UNL1       -0.1659
     22 F          12.2212   71.5967   21.3691 F       1  UNL1       -0.1659
     23 F          11.6524   71.5521   23.5482 F       1  UNL1       -0.1659
     24 C           3.6860   77.0052   27.8888 C.2     1  UNL1        0.2484
     25 O           2.8165   77.8572   28.2163 O.2     1  UNL1       -0.2701
     26 N           4.6115   76.5218   28.8693 N.am    1  UNL1       -0.2945
     27 H           4.9746   75.5455   28.7933 H       1  UNL1        0.1501
     28 C           5.3392   77.4554   29.7323 C.3     1  UNL1        0.1535
     29 C           6.7017   76.9017   30.0484 C.2     1  UNL1        0.2443
     30 O           7.2296   77.1521   31.1667 O.2     1  UNL1       -0.2730
     31 N           7.3935   76.0948   29.0812 N.am    1  UNL1       -0.2825
     32 H           7.0732   76.1384   28.0873 H       1  UNL1        0.1549
     33 C           8.5659   75.3161   29.3744 C.ar    1  UNL1        0.0535
     34 C           9.7918   75.6715   28.7954 C.ar    1  UNL1        0.0353
     35 C          10.9292   74.9042   29.0580 C.ar    1  UNL1        0.1002
     36 N          10.8429   73.8084   29.8576 N.ar    1  UNL1       -0.2422
     37 C           9.6644   73.4268   30.4171 C.ar    1  UNL1        0.1002
     38 C           8.5031   74.1670   30.1811 C.ar    1  UNL1        0.0353
     39 C           5.4688   78.8311   29.0513 C.3     1  UNL1        0.0569
     40 C           6.8850   79.1181   28.6329 C.ar    1  UNL1       -0.0017
     41 C           7.8467   79.7852   29.3875 C.ar    1  UNL1        0.0681
     42 N           9.0374   79.7814   28.7473 N.ar    1  UNL1       -0.3523
     43 C           8.8409   79.1079   27.6015 C.ar    1  UNL1        0.0563
     44 C           9.7911   78.8064   26.6271 C.ar    1  UNL1        0.0170
     45 C           9.3769   78.0456   25.5194 C.ar    1  UNL1        0.0015
     46 C           8.0383   77.6058   25.4131 C.ar    1  UNL1        0.0001
     47 C           7.1014   77.9224   26.4139 C.ar    1  UNL1        0.0012
     48 C           7.5406   78.6815   27.4981 C.ar    1  UNL1        0.0131
     49 H           9.9315   80.1959   29.0896 H       1  UNL1        0.1660
     50 C           6.5482   73.9479   26.8823 C.3     1  UNL1        0.0773
     51 C           5.1683   74.5196   27.0058 C.2     1  UNL1        0.1737
     52 O           4.4354   74.1345   27.9563 O.2     1  UNL1       -0.2913
@<TRIPOS>BOND
     1    50    51    1
     2    51    52    2
     3    51     1    1
     4     1     2   ar
     5     2     3   ar
     6     3     8    1
     7     8     9    1
     8     9    10    1
     9    10    11    1
    10    11    14    1
    11    14    15   ar
    12    15    16   ar
    13    16    17   ar
    14    17    20    1
    15    20    21    1
    16    20    22    1
    17    20    23    1
    18    17    18   ar
    19    18    19   ar
    20    11    12    1
    21    12    13    1
    22     3     4   ar
    23     4     5   ar
    24     5     6    1
    25     5     7   ar
    26     7    24    1
    27    24    25    2
    28    24    26   am
    29    26    28    1
    30    28    39    1
    31    39    40    1
    32    40    41   ar
    33    41    42   ar
    34    42    43   ar
    35    43    44   ar
    36    44    45   ar
    37    45    46   ar
    38    46    47   ar
    39    47    48   ar
    40    28    29    1
    41    29    30    2
    42    29    31   am
    43    31    33    1
    44    33    34   ar
    45    34    35   ar
    46    35    36   ar
    47    36    37   ar
    48    37    38   ar
    49     7     1   ar
    50    48    40   ar
    51    38    33   ar
    52    13     8    1
    53    48    43   ar
    54    19    14   ar
    55    26    27    1
    56    42    49    1
    57    31    32    1
