@<TRIPOS>MOLECULE
*****
 31 34 0 0 0
SMALL
GASTEIGER

@<TRIPOS>ATOM
      1 C          51.7389   14.0567  -22.4945 C.3     1  UNL1        0.0826
      2 C          50.7887   14.9938  -23.2755 C.3     1  UNL1        0.0309
      3 C          49.3082   14.5532  -23.2520 C.3     1  UNL1        0.0954
      4 N          49.1589   13.1189  -22.9503 N.am    1  UNL1       -0.2642
      5 C          48.3057   12.2735  -23.7498 C.2     1  UNL1        0.3039
      6 O          48.4719   11.0228  -23.7327 O.2     1  UNL1       -0.2526
      7 N          47.2705   12.8307  -24.5704 N.am    1  UNL1       -0.2901
      8 C          49.8407   12.5396  -21.7798 C.3     1  UNL1        0.0954
      9 C          51.0080   13.4171  -21.3041 C.3     1  UNL1        0.0309
     10 H          46.8605   13.7615  -24.3333 H       1  UNL1        0.1509
     11 C          52.6509   11.5838  -24.8877 C.ar    1  UNL1        0.1800
     12 N          53.7151   11.5135  -24.0643 N.ar    1  UNL1       -0.0606
     13 O          53.4845   12.4017  -23.1457 O.2     1  UNL1       -0.3374
     14 C          52.3432   12.9994  -23.3856 C.ar    1  UNL1        0.2359
     15 N          51.7560   12.5138  -24.4975 N.ar    1  UNL1       -0.1949
     16 C          51.0384   10.2456  -26.2372 C.3     1  UNL1        0.0081
     17 C          52.4861   10.7313  -26.1136 C.3     1  UNL1        0.0621
     18 C          52.9080   11.5125  -27.3607 C.3     1  UNL1        0.0081
     19 C          46.6813   12.0560  -25.6570 C.3     1  UNL1        0.0774
     20 C          45.1961   12.3282  -25.8734 C.3     1  UNL1        0.0259
     21 C          46.2284   12.9325  -26.8208 C.3     1  UNL1        0.0420
     22 C          46.2917   12.3421  -28.2187 C.ar    1  UNL1       -0.0206
     23 C          46.7156   11.0105  -28.3422 C.ar    1  UNL1       -0.0042
     24 C          46.7920   10.4001  -29.5938 C.ar    1  UNL1       -0.0001
     25 C          46.4474   11.1105  -30.7434 C.ar    1  UNL1        0.0064
     26 C          46.0163   12.4445  -30.6535 C.ar    1  UNL1        0.0751
     27 C          45.9526   13.0585  -29.3883 C.ar    1  UNL1        0.0022
     28 C          45.6592   13.1893  -31.8855 C.2     1  UNL1        0.3380
     29 O          44.8754   12.6706  -32.7244 O.2     1  UNL1       -0.2451
     30 O          46.1554   14.4674  -32.1404 O.3     1  UNL1       -0.4771
     31 H          46.7002   14.9855  -31.4633 H       1  UNL1        0.2954
@<TRIPOS>BOND
     1    16    17    1
     2    17    18    1
     3    17    11    1
     4    11    12   ar
     5    12    13   ar
     6    13    14   ar
     7    14     1    1
     8     1     2    1
     9     2     3    1
    10     3     4    1
    11     4     5   am
    12     5     6    2
    13     5     7   am
    14     7    19    1
    15    19    20    1
    16    20    21    1
    17    21    22    1
    18    22    23   ar
    19    23    24   ar
    20    24    25   ar
    21    25    26   ar
    22    26    28    1
    23    28    29    2
    24    28    30    1
    25    26    27   ar
    26     4     8    1
    27     8     9    1
    28    14    15   ar
    29    15    11   ar
    30     9     1    1
    31    21    19    1
    32    27    22   ar
    33     7    10    1
    34    30    31    1
@<TRIPOS>MOLECULE
*****
 31 34 0 0 0
SMALL
GASTEIGER

@<TRIPOS>ATOM
      1 C          51.7573   14.0268  -22.1335 C.3     1  UNL1        0.0826
      2 C          50.7811   15.0147  -22.8131 C.3     1  UNL1        0.0309
      3 C          49.3028   14.5678  -22.7745 C.3     1  UNL1        0.0954
      4 N          49.1655   13.1148  -22.5740 N.am    1  UNL1       -0.2642
      5 C          48.2884   12.3267  -23.4055 C.2     1  UNL1        0.3039
      6 O          48.4569   11.0787  -23.4853 O.2     1  UNL1       -0.2526
      7 N          47.2264   12.9383  -24.1496 N.am    1  UNL1       -0.2901
      8 C          49.8856   12.4542  -21.4714 C.3     1  UNL1        0.0954
      9 C          51.0662   13.2991  -20.9704 C.3     1  UNL1        0.0309
     10 H          46.8228   13.8477  -23.8320 H       1  UNL1        0.1509
     11 C          52.5781   11.6952  -24.6956 C.ar    1  UNL1        0.1800
     12 N          53.7214   11.6690  -23.9832 N.ar    1  UNL1       -0.0606
     13 O          53.5288   12.5109  -23.0136 O.2     1  UNL1       -0.3374
     14 C          52.3343   13.0398  -23.1185 C.ar    1  UNL1        0.2359
     15 N          51.6705   12.5519  -24.1853 N.ar    1  UNL1       -0.1949
     16 C          50.8569   10.5410  -26.0805 C.3     1  UNL1        0.0081
     17 C          52.3451   10.8725  -25.9308 C.3     1  UNL1        0.0621
     18 C          52.8659   11.6138  -27.1650 C.3     1  UNL1        0.0081
     19 C          46.6037   12.2429  -25.2706 C.3     1  UNL1        0.0774
     20 C          45.1403   12.6129  -25.4895 C.3     1  UNL1        0.0259
     21 C          46.2179   13.1889  -26.4036 C.3     1  UNL1        0.0420
     22 C          46.2611   12.6493  -27.8226 C.ar    1  UNL1       -0.0206
     23 C          45.8270   13.4970  -28.8528 C.ar    1  UNL1       -0.0042
     24 C          45.8447   13.0717  -30.1808 C.ar    1  UNL1       -0.0001
     25 C          46.2951   11.7914  -30.5019 C.ar    1  UNL1        0.0064
     26 C          46.7391   10.9193  -29.4940 C.ar    1  UNL1        0.0751
     27 C          46.7078   11.3506  -28.1543 C.ar    1  UNL1        0.0022
     28 C          47.2094    9.5584  -29.8501 C.2     1  UNL1        0.3380
     29 O          48.0293    8.9643  -29.1003 O.2     1  UNL1       -0.2451
     30 O          46.7550    8.9003  -30.9925 O.3     1  UNL1       -0.4771
     31 H          46.0187    9.2716  -31.5787 H       1  UNL1        0.2954
@<TRIPOS>BOND
     1    16    17    1
     2    17    18    1
     3    17    11    1
     4    11    12   ar
     5    12    13   ar
     6    13    14   ar
     7    14     1    1
     8     1     2    1
     9     2     3    1
    10     3     4    1
    11     4     5   am
    12     5     6    2
    13     5     7   am
    14     7    19    1
    15    19    20    1
    16    20    21    1
    17    21    22    1
    18    22    23   ar
    19    23    24   ar
    20    24    25   ar
    21    25    26   ar
    22    26    28    1
    23    28    29    2
    24    28    30    1
    25    26    27   ar
    26     4     8    1
    27     8     9    1
    28    14    15   ar
    29    15    11   ar
    30     9     1    1
    31    21    19    1
    32    27    22   ar
    33     7    10    1
    34    30    31    1
@<TRIPOS>MOLECULE
*****
 31 34 0 0 0
SMALL
GASTEIGER

@<TRIPOS>ATOM
      1 C          50.1345   13.3943  -21.5699 C.3     1  UNL1        0.0826
      2 C          49.8136   14.6933  -22.3449 C.3     1  UNL1        0.0309
      3 C          48.3176   14.8701  -22.6878 C.3     1  UNL1        0.0954
      4 N          47.5889   13.5899  -22.6767 N.am    1  UNL1       -0.2642
      5 C          46.7133   13.2207  -23.7625 C.2     1  UNL1        0.3039
      6 O          46.4048   12.0090  -23.9325 O.2     1  UNL1       -0.2526
      7 N          46.1879   14.2088  -24.6586 N.am    1  UNL1       -0.2901
      8 C          47.7021   12.6902  -21.5155 C.3     1  UNL1        0.0954
      9 C          48.9517   12.9932  -20.6754 C.3     1  UNL1        0.0309
     10 H          46.0985   15.2015  -24.3468 H       1  UNL1        0.1509
     11 C          51.0001   11.1390  -24.1849 C.ar    1  UNL1        0.1800
     12 N          50.8937   10.2734  -23.1578 N.ar    1  UNL1       -0.0606
     13 O          50.5877   11.0093  -22.1328 O.2     1  UNL1       -0.3374
     14 C          50.5144   12.2660  -22.4972 C.ar    1  UNL1        0.2359
     15 N          50.7697   12.4142  -23.8123 N.ar    1  UNL1       -0.1949
     16 C          50.0832   10.4170  -26.3873 C.3     1  UNL1        0.0081
     17 C          51.3514   10.7311  -25.5874 C.3     1  UNL1        0.0621
     18 C          52.1678   11.8324  -26.2689 C.3     1  UNL1        0.0081
     19 C          45.6462   13.8255  -25.9577 C.3     1  UNL1        0.0774
     20 C          45.6430   14.9556  -26.9821 C.3     1  UNL1        0.0259
     21 C          46.6985   13.8565  -27.0619 C.3     1  UNL1        0.0420
     22 C          46.5575   12.8641  -28.2029 C.ar    1  UNL1       -0.0206
     23 C          46.8697   11.5222  -27.9382 C.ar    1  UNL1       -0.0042
     24 C          46.7573   10.5542  -28.9359 C.ar    1  UNL1       -0.0001
     25 C          46.3323   10.9110  -30.2154 C.ar    1  UNL1        0.0064
     26 C          46.0093   12.2456  -30.5120 C.ar    1  UNL1        0.0751
     27 C          46.1361   13.2198  -29.5037 C.ar    1  UNL1        0.0022
     28 C          45.5648   12.6110  -31.8791 C.2     1  UNL1        0.3380
     29 O          46.4209   12.8767  -32.7644 O.2     1  UNL1       -0.2451
     30 O          44.2146   12.6540  -32.2250 O.3     1  UNL1       -0.4771
     31 H          43.4814   12.3493  -31.5979 H       1  UNL1        0.2954
@<TRIPOS>BOND
     1    16    17    1
     2    17    18    1
     3    17    11    1
     4    11    12   ar
     5    12    13   ar
     6    13    14   ar
     7    14     1    1
     8     1     2    1
     9     2     3    1
    10     3     4    1
    11     4     5   am
    12     5     6    2
    13     5     7   am
    14     7    19    1
    15    19    20    1
    16    20    21    1
    17    21    22    1
    18    22    23   ar
    19    23    24   ar
    20    24    25   ar
    21    25    26   ar
    22    26    28    1
    23    28    29    2
    24    28    30    1
    25    26    27   ar
    26     4     8    1
    27     8     9    1
    28    14    15   ar
    29    15    11   ar
    30     9     1    1
    31    21    19    1
    32    27    22   ar
    33     7    10    1
    34    30    31    1
@<TRIPOS>MOLECULE
*****
 31 34 0 0 0
SMALL
GASTEIGER

@<TRIPOS>ATOM
      1 C          50.0233   15.4732  -22.6629 C.3     1  UNL1        0.0826
      2 C          48.5624   15.1650  -22.2607 C.3     1  UNL1        0.0309
      3 C          48.1090   13.7244  -22.5860 C.3     1  UNL1        0.0954
      4 N          48.9342   13.1052  -23.6376 N.am    1  UNL1       -0.2642
      5 C          48.3290   12.4263  -24.7577 C.2     1  UNL1        0.3039
      6 O          48.9969   12.2423  -25.8123 O.2     1  UNL1       -0.2526
      7 N          46.9752   11.9584  -24.6963 N.am    1  UNL1       -0.2901
      8 C          50.4030   13.1216  -23.5236 C.3     1  UNL1        0.0954
      9 C          50.8906   14.2098  -22.5557 C.3     1  UNL1        0.0309
     10 H          46.5374   11.7469  -23.7720 H       1  UNL1        0.1509
     11 C          49.6404   16.8738  -25.9134 C.ar    1  UNL1        0.1800
     12 N          50.9770   16.7052  -25.8894 N.ar    1  UNL1       -0.0606
     13 O          51.2280   16.2018  -24.7192 O.2     1  UNL1       -0.3374
     14 C          50.1113   16.0702  -24.0460 C.ar    1  UNL1        0.2359
     15 N          49.0498   16.4865  -24.7649 N.ar    1  UNL1       -0.1949
     16 C          47.4909   16.8312  -27.1745 C.3     1  UNL1        0.0081
     17 C          48.8919   17.4446  -27.0842 C.3     1  UNL1        0.0621
     18 C          48.8137   18.9691  -26.9687 C.3     1  UNL1        0.0081
     19 C          46.2394   11.6406  -25.9151 C.3     1  UNL1        0.0774
     20 C          45.1377   12.6414  -26.2488 C.3     1  UNL1        0.0259
     21 C          46.4566   12.6749  -27.0154 C.3     1  UNL1        0.0420
     22 C          46.4146   12.1960  -28.4561 C.ar    1  UNL1       -0.0206
     23 C          46.7436   10.8550  -28.7041 C.ar    1  UNL1       -0.0042
     24 C          46.7203   10.3436  -30.0014 C.ar    1  UNL1       -0.0001
     25 C          46.3690   11.1641  -31.0730 C.ar    1  UNL1        0.0064
     26 C          46.0313   12.5107  -30.8579 C.ar    1  UNL1        0.0751
     27 C          46.0682   13.0237  -29.5475 C.ar    1  UNL1        0.0022
     28 C          45.6660   13.3727  -32.0083 C.2     1  UNL1        0.3380
     29 O          44.8922   12.9314  -32.8992 O.2     1  UNL1       -0.2451
     30 O          46.1434   14.6775  -32.1286 O.3     1  UNL1       -0.4771
     31 H          46.6786   15.1313  -31.3997 H       1  UNL1        0.2954
@<TRIPOS>BOND
     1    16    17    1
     2    17    18    1
     3    17    11    1
     4    11    12   ar
     5    12    13   ar
     6    13    14   ar
     7    14     1    1
     8     1     2    1
     9     2     3    1
    10     3     4    1
    11     4     5   am
    12     5     6    2
    13     5     7   am
    14     7    19    1
    15    19    20    1
    16    20    21    1
    17    21    22    1
    18    22    23   ar
    19    23    24   ar
    20    24    25   ar
    21    25    26   ar
    22    26    28    1
    23    28    29    2
    24    28    30    1
    25    26    27   ar
    26     4     8    1
    27     8     9    1
    28    14    15   ar
    29    15    11   ar
    30     9     1    1
    31    21    19    1
    32    27    22   ar
    33     7    10    1
    34    30    31    1
@<TRIPOS>MOLECULE
*****
 31 34 0 0 0
SMALL
GASTEIGER

@<TRIPOS>ATOM
      1 C          49.4457    9.4545  -20.8544 C.3     1  UNL1        0.0826
      2 C          49.7244   10.8901  -20.3521 C.3     1  UNL1        0.0309
      3 C          48.6036   11.9017  -20.6797 C.3     1  UNL1        0.0954
      4 N          47.7640   11.4570  -21.8056 N.am    1  UNL1       -0.2642
      5 C          47.4436   12.3478  -22.8944 C.2     1  UNL1        0.3039
      6 O          47.0653   11.8725  -24.0004 O.2     1  UNL1       -0.2526
      7 N          47.5515   13.7696  -22.7441 N.am    1  UNL1       -0.2901
      8 C          47.1874   10.1012  -21.8013 C.3     1  UNL1        0.0954
      9 C          47.9375    9.1624  -20.8448 C.3     1  UNL1        0.0309
     10 H          47.4829   14.2009  -21.7954 H       1  UNL1        0.1509
     11 C          51.0112    9.4494  -24.0518 C.ar    1  UNL1        0.1800
     12 N          50.4167    8.2406  -24.0826 N.ar    1  UNL1       -0.0606
     13 O          49.8171    8.1353  -22.9357 O.2     1  UNL1       -0.3374
     14 C          50.0313    9.2148  -22.2244 C.ar    1  UNL1        0.2359
     15 N          50.7955   10.1021  -22.8918 N.ar    1  UNL1       -0.1949
     16 C          51.1258    9.7865  -26.5187 C.3     1  UNL1        0.0081
     17 C          51.8360   10.0030  -25.1787 C.3     1  UNL1        0.0621
     18 C          52.1195   11.4892  -24.9450 C.3     1  UNL1        0.0081
     19 C          47.6191   14.6406  -23.9123 C.3     1  UNL1        0.0774
     20 C          46.2658   15.1921  -24.3492 C.3     1  UNL1        0.0259
     21 C          47.2431   16.0832  -23.5881 C.3     1  UNL1        0.0420
     22 C          47.9151   17.1869  -24.3862 C.ar    1  UNL1       -0.0206
     23 C          47.1286   18.2853  -24.7646 C.ar    1  UNL1       -0.0042
     24 C          47.6797   19.3392  -25.4929 C.ar    1  UNL1       -0.0001
     25 C          49.0258   19.3127  -25.8567 C.ar    1  UNL1        0.0064
     26 C          49.8410   18.2287  -25.4908 C.ar    1  UNL1        0.0751
     27 C          49.2758   17.1626  -24.7657 C.ar    1  UNL1        0.0022
     28 C          51.2694   18.2116  -25.8904 C.2     1  UNL1        0.3380
     29 O          51.5825   17.9355  -27.0790 O.2     1  UNL1       -0.2451
     30 O          52.2881   18.5115  -24.9865 O.3     1  UNL1       -0.4771
     31 H          52.1042   18.8455  -24.0493 H       1  UNL1        0.2954
@<TRIPOS>BOND
     1    16    17    1
     2    17    18    1
     3    17    11    1
     4    11    12   ar
     5    12    13   ar
     6    13    14   ar
     7    14     1    1
     8     1     2    1
     9     2     3    1
    10     3     4    1
    11     4     5   am
    12     5     6    2
    13     5     7   am
    14     7    19    1
    15    19    20    1
    16    20    21    1
    17    21    22    1
    18    22    23   ar
    19    23    24   ar
    20    24    25   ar
    21    25    26   ar
    22    26    28    1
    23    28    29    2
    24    28    30    1
    25    26    27   ar
    26     4     8    1
    27     8     9    1
    28    14    15   ar
    29    15    11   ar
    30     9     1    1
    31    21    19    1
    32    27    22   ar
    33     7    10    1
    34    30    31    1
@<TRIPOS>MOLECULE
*****
 31 34 0 0 0
SMALL
GASTEIGER

@<TRIPOS>ATOM
      1 C          45.4265   13.7097  -25.2482 C.3     1  UNL1        0.0826
      2 C          45.6416   12.3513  -24.5414 C.3     1  UNL1        0.0309
      3 C          47.0653   12.1533  -23.9752 C.3     1  UNL1        0.0954
      4 N          48.0530   13.0251  -24.6346 N.am    1  UNL1       -0.2642
      5 C          49.3073   12.4997  -25.1167 C.2     1  UNL1        0.3039
      6 O          49.9579   13.1373  -25.9899 O.2     1  UNL1       -0.2526
      7 N          49.8290   11.2588  -24.6230 N.am    1  UNL1       -0.2901
      8 C          47.7920   14.4699  -24.7564 C.3     1  UNL1        0.0954
      9 C          46.2992   14.7975  -24.6039 C.3     1  UNL1        0.0309
     10 H          49.5474   10.9130  -23.6786 H       1  UNL1        0.1509
     11 C          46.2067   12.9394  -28.6352 C.ar    1  UNL1        0.1800
     12 N          45.9552   14.2582  -28.7493 N.ar    1  UNL1       -0.0606
     13 O          45.6422   14.6423  -27.5491 O.2     1  UNL1       -0.3374
     14 C          45.6879   13.6190  -26.7316 C.ar    1  UNL1        0.2359
     15 N          46.0479   12.4900  -27.3739 N.ar    1  UNL1       -0.1949
     16 C          46.5727   10.5877  -29.3756 C.3     1  UNL1        0.0081
     17 C          46.6051   12.0628  -29.7883 C.3     1  UNL1        0.0621
     18 C          45.6852   12.3148  -30.9858 C.3     1  UNL1        0.0081
     19 C          50.8568   10.5344  -25.3624 C.3     1  UNL1        0.0774
     20 C          50.7927    9.0208  -25.1848 C.3     1  UNL1        0.0259
     21 C          50.2742    9.6608  -26.4693 C.3     1  UNL1        0.0420
     22 C          51.1119    9.4472  -27.7180 C.ar    1  UNL1       -0.0206
     23 C          52.2815   10.2101  -27.8533 C.ar    1  UNL1       -0.0042
     24 C          53.1033   10.0627  -28.9703 C.ar    1  UNL1       -0.0001
     25 C          52.7697    9.1512  -29.9718 C.ar    1  UNL1        0.0064
     26 C          51.6069    8.3701  -29.8650 C.ar    1  UNL1        0.0751
     27 C          50.7754    8.5322  -28.7407 C.ar    1  UNL1        0.0022
     28 C          51.2617    7.4096  -30.9412 C.2     1  UNL1        0.3380
     29 O          52.1800    6.8441  -31.5924 O.2     1  UNL1       -0.2451
     30 O          49.9381    7.0955  -31.2479 O.3     1  UNL1       -0.4771
     31 H          49.1574    7.4279  -30.6969 H       1  UNL1        0.2954
@<TRIPOS>BOND
     1    16    17    1
     2    17    18    1
     3    17    11    1
     4    11    12   ar
     5    12    13   ar
     6    13    14   ar
     7    14     1    1
     8     1     2    1
     9     2     3    1
    10     3     4    1
    11     4     5   am
    12     5     6    2
    13     5     7   am
    14     7    19    1
    15    19    20    1
    16    20    21    1
    17    21    22    1
    18    22    23   ar
    19    23    24   ar
    20    24    25   ar
    21    25    26   ar
    22    26    28    1
    23    28    29    2
    24    28    30    1
    25    26    27   ar
    26     4     8    1
    27     8     9    1
    28    14    15   ar
    29    15    11   ar
    30     9     1    1
    31    21    19    1
    32    27    22   ar
    33     7    10    1
    34    30    31    1
@<TRIPOS>MOLECULE
*****
 31 34 0 0 0
SMALL
GASTEIGER

@<TRIPOS>ATOM
      1 C          49.4251    9.4897  -20.9583 C.3     1  UNL1        0.0826
      2 C          49.7156   10.8946  -20.3814 C.3     1  UNL1        0.0309
      3 C          48.6090   11.9344  -20.6658 C.3     1  UNL1        0.0954
      4 N          47.7740   11.5574  -21.8195 N.am    1  UNL1       -0.2642
      5 C          47.4729   12.5061  -22.8640 C.2     1  UNL1        0.3039
      6 O          47.0986   12.0920  -23.9957 O.2     1  UNL1       -0.2526
      7 N          47.5954   13.9170  -22.6406 N.am    1  UNL1       -0.2901
      8 C          47.1823   10.2099  -21.8887 C.3     1  UNL1        0.0954
      9 C          47.9138    9.2151  -20.9754 C.3     1  UNL1        0.0309
     10 H          47.5237   14.3003  -21.6718 H       1  UNL1        0.1509
     11 C          50.9677    9.6457  -24.1631 C.ar    1  UNL1        0.1800
     12 N          50.4684    8.3950  -24.2066 N.ar    1  UNL1       -0.0606
     13 O          49.8854    8.2292  -23.0582 O.2     1  UNL1       -0.3374
     14 C          50.0195    9.3132  -22.3341 C.ar    1  UNL1        0.2359
     15 N          50.7089   10.2653  -22.9938 N.ar    1  UNL1       -0.1949
     16 C          51.1624    9.8485  -26.6396 C.3     1  UNL1        0.0081
     17 C          51.7406   10.2756  -25.2867 C.3     1  UNL1        0.0621
     18 C          51.7302   11.7999  -25.1454 C.3     1  UNL1        0.0081
     19 C          47.6826   14.8454  -23.7623 C.3     1  UNL1        0.0774
     20 C          46.8414   16.1056  -23.5864 C.3     1  UNL1        0.0259
     21 C          48.3523   16.1620  -23.3805 C.3     1  UNL1        0.0420
     22 C          49.1546   16.8845  -24.4487 C.ar    1  UNL1       -0.0206
     23 C          50.4845   16.4829  -24.6444 C.ar    1  UNL1       -0.0042
     24 C          51.2793   17.0968  -25.6120 C.ar    1  UNL1       -0.0001
     25 C          50.7590   18.1235  -26.3996 C.ar    1  UNL1        0.0064
     26 C          49.4303   18.5470  -26.2306 C.ar    1  UNL1        0.0751
     27 C          48.6369   17.9312  -25.2442 C.ar    1  UNL1        0.0022
     28 C          48.8928   19.6444  -27.0713 C.2     1  UNL1        0.3380
     29 O          47.8696   20.2760  -26.6955 O.2     1  UNL1       -0.2451
     30 O          49.5007   20.0156  -28.2703 O.3     1  UNL1       -0.4771
     31 H          50.3824   19.6262  -28.5777 H       1  UNL1        0.2954
@<TRIPOS>BOND
     1    16    17    1
     2    17    18    1
     3    17    11    1
     4    11    12   ar
     5    12    13   ar
     6    13    14   ar
     7    14     1    1
     8     1     2    1
     9     2     3    1
    10     3     4    1
    11     4     5   am
    12     5     6    2
    13     5     7   am
    14     7    19    1
    15    19    20    1
    16    20    21    1
    17    21    22    1
    18    22    23   ar
    19    23    24   ar
    20    24    25   ar
    21    25    26   ar
    22    26    28    1
    23    28    29    2
    24    28    30    1
    25    26    27   ar
    26     4     8    1
    27     8     9    1
    28    14    15   ar
    29    15    11   ar
    30     9     1    1
    31    21    19    1
    32    27    22   ar
    33     7    10    1
    34    30    31    1
@<TRIPOS>MOLECULE
*****
 31 34 0 0 0
SMALL
GASTEIGER

@<TRIPOS>ATOM
      1 C          46.4706   14.6906  -24.9187 C.3     1  UNL1        0.0826
      2 C          45.9287   13.5285  -25.7828 C.3     1  UNL1        0.0309
      3 C          46.7036   12.2026  -25.6145 C.3     1  UNL1        0.0954
      4 N          48.0636   12.4154  -25.0899 N.am    1  UNL1       -0.2642
      5 C          49.2072   11.7863  -25.7049 C.2     1  UNL1        0.3039
      6 O          50.3614   12.2557  -25.5057 O.2     1  UNL1       -0.2526
      7 N          49.0557   10.6348  -26.5455 N.am    1  UNL1       -0.2901
      8 C          48.2651   13.2346  -23.8820 C.3     1  UNL1        0.0954
      9 C          47.0673   14.1559  -23.6079 C.3     1  UNL1        0.0309
     10 H          48.2256   10.0113  -26.4322 H       1  UNL1        0.1509
     11 C          48.8213   17.0240  -26.2240 C.ar    1  UNL1        0.1800
     12 N          48.6987   16.2008  -27.2836 N.ar    1  UNL1       -0.0606
     13 O          47.8570   15.2891  -26.9011 O.2     1  UNL1       -0.3374
     14 C          47.4802   15.5248  -25.6683 C.ar    1  UNL1        0.2359
     15 N          48.0682   16.6333  -25.1760 N.ar    1  UNL1       -0.1949
     16 C          51.1819   17.8202  -26.3017 C.3     1  UNL1        0.0081
     17 C          49.7102   18.2349  -26.2060 C.3     1  UNL1        0.0621
     18 C          49.3348   19.1826  -27.3483 C.3     1  UNL1        0.0081
     19 C          50.1141   10.2401  -27.4686 C.3     1  UNL1        0.0774
     20 C          51.1809    9.3500  -26.8392 C.3     1  UNL1        0.0259
     21 C          50.1171    8.7402  -27.7475 C.3     1  UNL1        0.0420
     22 C          50.5817    8.2752  -29.1167 C.ar    1  UNL1       -0.0206
     23 C          51.8919    8.5972  -29.5014 C.ar    1  UNL1       -0.0042
     24 C          52.3891    8.1976  -30.7415 C.ar    1  UNL1       -0.0001
     25 C          51.5850    7.4705  -31.6189 C.ar    1  UNL1        0.0064
     26 C          50.2695    7.1296  -31.2625 C.ar    1  UNL1        0.0751
     27 C          49.7698    7.5461  -30.0141 C.ar    1  UNL1        0.0022
     28 C          49.4241    6.3614  -32.2087 C.2     1  UNL1        0.3380
     29 O          49.8925    6.0151  -33.3258 O.2     1  UNL1       -0.2451
     30 O          48.1177    5.9911  -31.8914 O.3     1  UNL1       -0.4771
     31 H          47.7161    6.1409  -30.9749 H       1  UNL1        0.2954
@<TRIPOS>BOND
     1    16    17    1
     2    17    18    1
     3    17    11    1
     4    11    12   ar
     5    12    13   ar
     6    13    14   ar
     7    14     1    1
     8     1     2    1
     9     2     3    1
    10     3     4    1
    11     4     5   am
    12     5     6    2
    13     5     7   am
    14     7    19    1
    15    19    20    1
    16    20    21    1
    17    21    22    1
    18    22    23   ar
    19    23    24   ar
    20    24    25   ar
    21    25    26   ar
    22    26    28    1
    23    28    29    2
    24    28    30    1
    25    26    27   ar
    26     4     8    1
    27     8     9    1
    28    14    15   ar
    29    15    11   ar
    30     9     1    1
    31    21    19    1
    32    27    22   ar
    33     7    10    1
    34    30    31    1
@<TRIPOS>MOLECULE
*****
 31 34 0 0 0
SMALL
GASTEIGER

@<TRIPOS>ATOM
      1 C          49.7127   10.0413  -20.8909 C.3     1  UNL1        0.0826
      2 C          49.7799   11.5815  -20.7715 C.3     1  UNL1        0.0309
      3 C          48.4365   12.2945  -21.0431 C.3     1  UNL1        0.0954
      4 N          47.5153   11.4627  -21.8368 N.am    1  UNL1       -0.2642
      5 C          46.8291   11.9992  -22.9870 C.2     1  UNL1        0.3039
      6 O          46.3616   11.2150  -23.8581 O.2     1  UNL1       -0.2526
      7 N          46.6712   13.4134  -23.1619 N.am    1  UNL1       -0.2901
      8 C          47.2368   10.0761  -21.4238 C.3     1  UNL1        0.0954
      9 C          48.3224    9.5286  -20.4854 C.3     1  UNL1        0.0309
     10 H          46.6891   14.0472  -22.3321 H       1  UNL1        0.1509
     11 C          50.7445    9.4839  -24.2523 C.ar    1  UNL1        0.1800
     12 N          50.1853    8.2887  -23.9801 N.ar    1  UNL1       -0.0606
     13 O          49.7805    8.3830  -22.7499 O.2     1  UNL1       -0.3374
     14 C          50.0770    9.5687  -22.2769 C.ar    1  UNL1        0.2359
     15 N          50.7003   10.3269  -23.2008 N.ar    1  UNL1       -0.1949
     16 C          50.2749   10.1161  -26.6171 C.3     1  UNL1        0.0081
     17 C          51.3627    9.8343  -25.5758 C.3     1  UNL1        0.0621
     18 C          52.2951   11.0387  -25.4209 C.3     1  UNL1        0.0081
     19 C          46.3480   13.9722  -24.4701 C.3     1  UNL1        0.0774
     20 C          47.3792   14.9707  -24.9858 C.3     1  UNL1        0.0259
     21 C          47.3435   13.5522  -25.5471 C.3     1  UNL1        0.0420
     22 C          46.8279   13.3990  -26.9674 C.ar    1  UNL1       -0.0206
     23 C          46.2872   14.5353  -27.5877 C.ar    1  UNL1       -0.0042
     24 C          45.8005   14.4711  -28.8930 C.ar    1  UNL1       -0.0001
     25 C          45.8446   13.2699  -29.6003 C.ar    1  UNL1        0.0064
     26 C          46.3825   12.1147  -29.0087 C.ar    1  UNL1        0.0751
     27 C          46.8613   12.1834  -27.6867 C.ar    1  UNL1        0.0022
     28 C          46.4168   10.8428  -29.7711 C.2     1  UNL1        0.3380
     29 O          46.4797    9.7460  -29.1544 O.2     1  UNL1       -0.2451
     30 O          46.3640   10.8205  -31.1644 O.3     1  UNL1       -0.4771
     31 H          46.2046   11.6529  -31.7171 H       1  UNL1        0.2954
@<TRIPOS>BOND
     1    16    17    1
     2    17    18    1
     3    17    11    1
     4    11    12   ar
     5    12    13   ar
     6    13    14   ar
     7    14     1    1
     8     1     2    1
     9     2     3    1
    10     3     4    1
    11     4     5   am
    12     5     6    2
    13     5     7   am
    14     7    19    1
    15    19    20    1
    16    20    21    1
    17    21    22    1
    18    22    23   ar
    19    23    24   ar
    20    24    25   ar
    21    25    26   ar
    22    26    28    1
    23    28    29    2
    24    28    30    1
    25    26    27   ar
    26     4     8    1
    27     8     9    1
    28    14    15   ar
    29    15    11   ar
    30     9     1    1
    31    21    19    1
    32    27    22   ar
    33     7    10    1
    34    30    31    1
