@<TRIPOS>MOLECULE
*****
 31 33 0 0 0
SMALL
GASTEIGER

@<TRIPOS>ATOM
      1 C         -22.2222   -8.6697  -12.6985 C.2     1  UNL1       -0.0222
      2 C         -21.6318   -9.5996  -11.8948 C.2     1  UNL1       -0.0039
      3 C         -21.2896   -9.2962  -10.4823 C.ar    1  UNL1        0.0011
      4 C         -19.9512   -9.1316  -10.1040 C.ar    1  UNL1        0.0032
      5 C         -19.6266   -8.7939   -8.7891 C.ar    1  UNL1        0.0382
      6 C         -20.6388   -8.6189   -7.8261 C.ar    1  UNL1        0.1513
      7 C         -21.9809   -8.8341   -8.1918 C.ar    1  UNL1        0.0760
      8 N         -23.0327   -8.6815   -7.2318 N.pl3   1  UNL1       -0.3546
      9 C         -22.2979   -9.1727   -9.5143 C.ar    1  UNL1        0.0171
     10 H         -22.8330   -8.4186   -6.2414 H       1  UNL1        0.1424
     11 H         -24.0297   -8.8281   -7.5067 H       1  UNL1        0.1424
     12 O         -20.3511   -8.2313   -6.5068 O.3     1  UNL1       -0.4727
     13 C         -19.3696   -8.8350   -5.6621 C.3     1  UNL1        0.2227
     14 C         -18.1017   -7.9728   -5.5825 C.3     1  UNL1        0.1201
     15 N         -16.9011   -8.8151   -5.3870 N.3     1  UNL1       -0.2672
     16 C         -16.0777   -8.3124   -4.2743 C.3     1  UNL1        0.0898
     17 C         -17.2900  -10.2098   -5.1246 C.3     1  UNL1        0.0898
     18 C         -21.3194  -10.9670  -12.3704 C.ar    1  UNL1       -0.0003
     19 C         -21.6585  -11.3647  -13.6744 C.ar    1  UNL1       -0.0000
     20 C         -21.3249  -12.6442  -14.1286 C.ar    1  UNL1       -0.0000
     21 C         -20.6369  -13.5273  -13.2915 C.ar    1  UNL1       -0.0000
     22 C         -20.2748  -13.1293  -12.0016 C.ar    1  UNL1       -0.0000
     23 C         -20.6062  -11.8504  -11.5440 C.ar    1  UNL1       -0.0000
     24 C         -22.3411   -7.2513  -12.2620 C.ar    1  UNL1       -0.0040
     25 C         -23.6040   -6.6622  -12.0797 C.ar    1  UNL1       -0.0003
     26 C         -23.7084   -5.3348  -11.6525 C.ar    1  UNL1       -0.0000
     27 C         -22.5558   -4.5826  -11.4119 C.ar    1  UNL1       -0.0000
     28 C         -21.2959   -5.1541  -11.6043 C.ar    1  UNL1       -0.0000
     29 C         -21.1865   -6.4801  -12.0326 C.ar    1  UNL1       -0.0003
     30 C         -22.1329   -8.1866  -15.1755 C.3     1  UNL1        0.0050
     31 C         -22.7747   -9.0220  -14.0683 C.3     1  UNL1        0.0264
@<TRIPOS>BOND
     1    30    31    1
     2    31     1    1
     3     1     2    2
     4     2    18    1
     5    18    19   ar
     6    19    20   ar
     7    20    21   ar
     8    21    22   ar
     9    22    23   ar
    10     2     3    1
    11     3     4   ar
    12     4     5   ar
    13     5     6   ar
    14     6    12    1
    15    12    13    1
    16    13    14    1
    17    14    15    1
    18    15    16    1
    19    15    17    1
    20     6     7   ar
    21     7     8    1
    22     7     9   ar
    23     1    24    1
    24    24    25   ar
    25    25    26   ar
    26    26    27   ar
    27    27    28   ar
    28    28    29   ar
    29    23    18   ar
    30     9     3   ar
    31    29    24   ar
    32     8    10    1
    33     8    11    1
@<TRIPOS>MOLECULE
*****
 31 33 0 0 0
SMALL
GASTEIGER

@<TRIPOS>ATOM
      1 C         -22.1617   -8.6499  -12.7142 C.2     1  UNL1       -0.0222
      2 C         -21.5855   -9.5831  -11.9039 C.2     1  UNL1       -0.0039
      3 C         -21.2897   -9.2931  -10.4782 C.ar    1  UNL1        0.0011
      4 C         -19.9626   -9.1706  -10.0475 C.ar    1  UNL1        0.0032
      5 C         -19.6794   -8.8456   -8.7199 C.ar    1  UNL1        0.0382
      6 C         -20.7226   -8.6413   -7.7965 C.ar    1  UNL1        0.1513
      7 C         -22.0554   -8.8144   -8.2149 C.ar    1  UNL1        0.0760
      8 N         -23.1388   -8.6313   -7.2962 N.pl3   1  UNL1       -0.3546
      9 C         -22.3308   -9.1404   -9.5499 C.ar    1  UNL1        0.0171
     10 H         -22.9699   -8.3765   -6.2980 H       1  UNL1        0.1424
     11 H         -24.1283   -8.7464   -7.6102 H       1  UNL1        0.1424
     12 O         -20.4749   -8.2653   -6.4658 O.3     1  UNL1       -0.4727
     13 C         -19.1964   -8.2720   -5.8281 C.3     1  UNL1        0.2227
     14 C         -19.2675   -8.9493   -4.4520 C.3     1  UNL1        0.1201
     15 N         -20.3578   -8.3727   -3.6348 N.3     1  UNL1       -0.2672
     16 C         -21.2801   -9.4215   -3.1675 C.3     1  UNL1        0.0898
     17 C         -19.8051   -7.6484   -2.4794 C.3     1  UNL1        0.0898
     18 C         -21.2438  -10.9412  -12.3858 C.ar    1  UNL1       -0.0003
     19 C         -20.5319  -11.8322  -11.5656 C.ar    1  UNL1       -0.0000
     20 C         -20.2476  -13.1259  -12.0131 C.ar    1  UNL1       -0.0000
     21 C         -20.6860  -13.5433  -13.2730 C.ar    1  UNL1       -0.0000
     22 C         -21.4160  -12.6701  -14.0841 C.ar    1  UNL1       -0.0000
     23 C         -21.7027  -11.3758  -13.6399 C.ar    1  UNL1       -0.0000
     24 C         -22.3095   -7.2382  -12.2648 C.ar    1  UNL1       -0.0040
     25 C         -23.5840   -6.6684  -12.1035 C.ar    1  UNL1       -0.0003
     26 C         -23.7158   -5.3474  -11.6642 C.ar    1  UNL1       -0.0000
     27 C         -22.5791   -4.5825  -11.3905 C.ar    1  UNL1       -0.0000
     28 C         -21.3076   -5.1346  -11.5618 C.ar    1  UNL1       -0.0000
     29 C         -21.1708   -6.4542  -12.0022 C.ar    1  UNL1       -0.0003
     30 C         -21.9478   -8.1908  -15.1881 C.3     1  UNL1        0.0050
     31 C         -22.6686   -8.9916  -14.1042 C.3     1  UNL1        0.0264
@<TRIPOS>BOND
     1    30    31    1
     2    31     1    1
     3     1     2    2
     4     2    18    1
     5    18    19   ar
     6    19    20   ar
     7    20    21   ar
     8    21    22   ar
     9    22    23   ar
    10     2     3    1
    11     3     4   ar
    12     4     5   ar
    13     5     6   ar
    14     6    12    1
    15    12    13    1
    16    13    14    1
    17    14    15    1
    18    15    16    1
    19    15    17    1
    20     6     7   ar
    21     7     8    1
    22     7     9   ar
    23     1    24    1
    24    24    25   ar
    25    25    26   ar
    26    26    27   ar
    27    27    28   ar
    28    28    29   ar
    29    23    18   ar
    30     9     3   ar
    31    29    24   ar
    32     8    10    1
    33     8    11    1
@<TRIPOS>MOLECULE
*****
 31 33 0 0 0
SMALL
GASTEIGER

@<TRIPOS>ATOM
      1 C         -24.4313  -11.1339  -13.8409 C.2     1  UNL1       -0.0222
      2 C         -23.0856  -11.3221  -13.9544 C.2     1  UNL1       -0.0039
      3 C         -22.1376  -10.7425  -12.9697 C.ar    1  UNL1        0.0011
      4 C         -21.6527  -11.5274  -11.9160 C.ar    1  UNL1        0.0032
      5 C         -20.7206  -11.0044  -11.0181 C.ar    1  UNL1        0.0382
      6 C         -20.2597   -9.6813  -11.1571 C.ar    1  UNL1        0.1513
      7 C         -20.7841   -8.8745  -12.1844 C.ar    1  UNL1        0.0760
      8 N         -20.3492   -7.5190  -12.3423 N.pl3   1  UNL1       -0.3546
      9 C         -21.7194   -9.4077  -13.0817 C.ar    1  UNL1        0.0171
     10 H         -19.6453   -7.0939  -11.6992 H       1  UNL1        0.1424
     11 H         -20.7285   -6.9247  -13.1130 H       1  UNL1        0.1424
     12 O         -19.2862   -9.1392  -10.3016 O.3     1  UNL1       -0.4727
     13 C         -19.4217   -8.9817   -8.8881 C.3     1  UNL1        0.2227
     14 C         -20.0398   -7.6202   -8.5392 C.3     1  UNL1        0.1201
     15 N         -21.2733   -7.3838   -9.3213 N.3     1  UNL1       -0.2672
     16 C         -22.4158   -8.1079   -8.7389 C.3     1  UNL1        0.0898
     17 C         -21.5763   -5.9451   -9.3793 C.3     1  UNL1        0.0898
     18 C         -22.4925  -12.1300  -15.0448 C.ar    1  UNL1       -0.0003
     19 C         -22.1275  -13.4686  -14.8249 C.ar    1  UNL1       -0.0000
     20 C         -21.6048  -14.2359  -15.8702 C.ar    1  UNL1       -0.0000
     21 C         -21.4594  -13.6782  -17.1436 C.ar    1  UNL1       -0.0000
     22 C         -21.8437  -12.3545  -17.3754 C.ar    1  UNL1       -0.0000
     23 C         -22.3671  -11.5842  -16.3326 C.ar    1  UNL1       -0.0000
     24 C         -24.9840  -10.1592  -12.8606 C.ar    1  UNL1       -0.0040
     25 C         -24.8361  -10.3718  -11.4792 C.ar    1  UNL1       -0.0003
     26 C         -25.3423   -9.4433  -10.5643 C.ar    1  UNL1       -0.0000
     27 C         -26.0063   -8.3011  -11.0187 C.ar    1  UNL1       -0.0000
     28 C         -26.1717   -8.0879  -12.3891 C.ar    1  UNL1       -0.0000
     29 C         -25.6687   -9.0138  -13.3075 C.ar    1  UNL1       -0.0003
     30 C         -25.8245  -13.2267  -14.0777 C.3     1  UNL1        0.0050
     31 C         -25.4267  -11.8901  -14.7030 C.3     1  UNL1        0.0264
@<TRIPOS>BOND
     1    30    31    1
     2    31     1    1
     3     1     2    2
     4     2    18    1
     5    18    19   ar
     6    19    20   ar
     7    20    21   ar
     8    21    22   ar
     9    22    23   ar
    10     2     3    1
    11     3     4   ar
    12     4     5   ar
    13     5     6   ar
    14     6    12    1
    15    12    13    1
    16    13    14    1
    17    14    15    1
    18    15    16    1
    19    15    17    1
    20     6     7   ar
    21     7     8    1
    22     7     9   ar
    23     1    24    1
    24    24    25   ar
    25    25    26   ar
    26    26    27   ar
    27    27    28   ar
    28    28    29   ar
    29    23    18   ar
    30     9     3   ar
    31    29    24   ar
    32     8    10    1
    33     8    11    1
@<TRIPOS>MOLECULE
*****
 31 33 0 0 0
SMALL
GASTEIGER

@<TRIPOS>ATOM
      1 C         -24.1473   -9.6993  -12.5967 C.2     1  UNL1       -0.0222
      2 C         -22.8578   -9.2707  -12.7091 C.2     1  UNL1       -0.0039
      3 C         -22.0464   -8.9365  -11.5116 C.ar    1  UNL1        0.0011
      4 C         -21.0207   -9.7953  -11.0966 C.ar    1  UNL1        0.0032
      5 C         -20.2199   -9.4606  -10.0034 C.ar    1  UNL1        0.0382
      6 C         -20.4354   -8.2590   -9.3016 C.ar    1  UNL1        0.1513
      7 C         -21.4981   -7.4195   -9.6851 C.ar    1  UNL1        0.0760
      8 N         -21.7551   -6.1990   -8.9811 N.pl3   1  UNL1       -0.3546
      9 C         -22.2971   -7.7631  -10.7841 C.ar    1  UNL1        0.0171
     10 H         -21.1722   -5.9068   -8.1657 H       1  UNL1        0.1424
     11 H         -22.5353   -5.5695   -9.2742 H       1  UNL1        0.1424
     12 O         -19.6179   -7.8678   -8.2283 O.3     1  UNL1       -0.4727
     13 C         -19.5295   -8.5362   -6.9686 C.3     1  UNL1        0.2227
     14 C         -18.5704   -7.8040   -6.0192 C.3     1  UNL1        0.1201
     15 N         -17.3761   -8.6296   -5.7343 N.3     1  UNL1       -0.2672
     16 C         -16.6696   -8.1424   -4.5375 C.3     1  UNL1        0.0898
     17 C         -17.7590  -10.0376   -5.5446 C.3     1  UNL1        0.0898
     18 C         -22.1843   -9.1358  -14.0213 C.ar    1  UNL1       -0.0003
     19 C         -21.7639  -10.2742  -14.7289 C.ar    1  UNL1       -0.0000
     20 C         -21.1643  -10.1400  -15.9848 C.ar    1  UNL1       -0.0000
     21 C         -20.9964   -8.8721  -16.5489 C.ar    1  UNL1       -0.0000
     22 C         -21.4348   -7.7371  -15.8611 C.ar    1  UNL1       -0.0000
     23 C         -22.0352   -7.8673  -14.6052 C.ar    1  UNL1       -0.0000
     24 C         -24.8604   -9.6344  -11.2914 C.ar    1  UNL1       -0.0040
     25 C         -24.5908  -10.5736  -10.2813 C.ar    1  UNL1       -0.0003
     26 C         -25.2513  -10.4961   -9.0512 C.ar    1  UNL1       -0.0000
     27 C         -26.1909   -9.4877   -8.8218 C.ar    1  UNL1       -0.0000
     28 C         -26.4769   -8.5583   -9.8244 C.ar    1  UNL1       -0.0000
     29 C         -25.8203   -8.6326  -11.0561 C.ar    1  UNL1       -0.0003
     30 C         -24.9677  -11.7774  -13.7737 C.3     1  UNL1        0.0050
     31 C         -24.9202  -10.2499  -13.7822 C.3     1  UNL1        0.0264
@<TRIPOS>BOND
     1    30    31    1
     2    31     1    1
     3     1     2    2
     4     2    18    1
     5    18    19   ar
     6    19    20   ar
     7    20    21   ar
     8    21    22   ar
     9    22    23   ar
    10     2     3    1
    11     3     4   ar
    12     4     5   ar
    13     5     6   ar
    14     6    12    1
    15    12    13    1
    16    13    14    1
    17    14    15    1
    18    15    16    1
    19    15    17    1
    20     6     7   ar
    21     7     8    1
    22     7     9   ar
    23     1    24    1
    24    24    25   ar
    25    25    26   ar
    26    26    27   ar
    27    27    28   ar
    28    28    29   ar
    29    23    18   ar
    30     9     3   ar
    31    29    24   ar
    32     8    10    1
    33     8    11    1
@<TRIPOS>MOLECULE
*****
 31 33 0 0 0
SMALL
GASTEIGER

@<TRIPOS>ATOM
      1 C         -22.6838   -9.8955  -12.7284 C.2     1  UNL1       -0.0222
      2 C         -23.9461  -10.0447  -13.2220 C.2     1  UNL1       -0.0039
      3 C         -24.8882   -8.8996  -13.2959 C.ar    1  UNL1        0.0011
      4 C         -24.5729   -7.7804  -14.0766 C.ar    1  UNL1        0.0032
      5 C         -25.4779   -6.7240  -14.1926 C.ar    1  UNL1        0.0382
      6 C         -26.7160   -6.7676  -13.5235 C.ar    1  UNL1        0.1513
      7 C         -27.0132   -7.8679  -12.6975 C.ar    1  UNL1        0.0760
      8 N         -28.2563   -7.9346  -11.9893 N.pl3   1  UNL1       -0.3546
      9 C         -26.0989   -8.9244  -12.5870 C.ar    1  UNL1        0.0171
     10 H         -28.9648   -7.1710  -12.0584 H       1  UNL1        0.1424
     11 H         -28.4824   -8.7576  -11.3871 H       1  UNL1        0.1424
     12 O         -27.6700   -5.7451  -13.6572 O.3     1  UNL1       -0.4727
     13 C         -28.0981   -5.1688  -14.8924 C.3     1  UNL1        0.2227
     14 C         -29.6280   -5.1998  -15.0173 C.3     1  UNL1        0.1201
     15 N         -30.1735   -3.8332  -15.1721 N.3     1  UNL1       -0.2672
     16 C         -30.0416   -3.3654  -16.5623 C.3     1  UNL1        0.0898
     17 C         -31.5882   -3.7966  -14.7693 C.3     1  UNL1        0.0898
     18 C         -24.4435  -11.3427  -13.7330 C.ar    1  UNL1       -0.0003
     19 C         -24.8225  -12.3625  -12.8443 C.ar    1  UNL1       -0.0000
     20 C         -25.3281  -13.5704  -13.3343 C.ar    1  UNL1       -0.0000
     21 C         -25.4743  -13.7614  -14.7113 C.ar    1  UNL1       -0.0000
     22 C         -25.1223  -12.7416  -15.5999 C.ar    1  UNL1       -0.0000
     23 C         -24.6168  -11.5321  -15.1137 C.ar    1  UNL1       -0.0000
     24 C         -22.2787   -8.6389  -12.0403 C.ar    1  UNL1       -0.0040
     25 C         -21.3687   -7.7541  -12.6438 C.ar    1  UNL1       -0.0003
     26 C         -21.0061   -6.5670  -11.9998 C.ar    1  UNL1       -0.0000
     27 C         -21.5410   -6.2571  -10.7468 C.ar    1  UNL1       -0.0000
     28 C         -22.4348   -7.1368  -10.1317 C.ar    1  UNL1       -0.0000
     29 C         -22.7991   -8.3253  -10.7710 C.ar    1  UNL1       -0.0003
     30 C         -21.1009  -11.4127  -11.4756 C.3     1  UNL1        0.0050
     31 C         -21.6386  -10.9912  -12.8426 C.3     1  UNL1        0.0264
@<TRIPOS>BOND
     1    30    31    1
     2    31     1    1
     3     1     2    2
     4     2    18    1
     5    18    19   ar
     6    19    20   ar
     7    20    21   ar
     8    21    22   ar
     9    22    23   ar
    10     2     3    1
    11     3     4   ar
    12     4     5   ar
    13     5     6   ar
    14     6    12    1
    15    12    13    1
    16    13    14    1
    17    14    15    1
    18    15    16    1
    19    15    17    1
    20     6     7   ar
    21     7     8    1
    22     7     9   ar
    23     1    24    1
    24    24    25   ar
    25    25    26   ar
    26    26    27   ar
    27    27    28   ar
    28    28    29   ar
    29    23    18   ar
    30     9     3   ar
    31    29    24   ar
    32     8    10    1
    33     8    11    1
@<TRIPOS>MOLECULE
*****
 31 33 0 0 0
SMALL
GASTEIGER

@<TRIPOS>ATOM
      1 C         -23.5669  -11.5132  -15.7200 C.2     1  UNL1       -0.0222
      2 C         -23.0563  -10.4496  -15.0363 C.2     1  UNL1       -0.0039
      3 C         -23.0552  -10.4122  -13.5521 C.ar    1  UNL1        0.0011
      4 C         -21.9964  -10.9851  -12.8363 C.ar    1  UNL1        0.0032
      5 C         -21.9632  -10.9066  -11.4430 C.ar    1  UNL1        0.0382
      6 C         -22.9945  -10.2552  -10.7397 C.ar    1  UNL1        0.1513
      7 C         -24.0850   -9.7239  -11.4537 C.ar    1  UNL1        0.0760
      8 N         -25.1589   -9.0706  -10.7670 N.pl3   1  UNL1       -0.3546
      9 C         -24.1102   -9.8069  -12.8525 C.ar    1  UNL1        0.0171
     10 H         -25.1662   -8.9807   -9.7269 H       1  UNL1        0.1424
     11 H         -25.9614   -8.6645  -11.2980 H       1  UNL1        0.1424
     12 O         -22.9682  -10.1149   -9.3422 O.3     1  UNL1       -0.4727
     13 C         -22.7133   -8.8988   -8.6370 C.3     1  UNL1        0.2227
     14 C         -21.5160   -8.1498   -9.2395 C.3     1  UNL1        0.1201
     15 N         -21.9685   -7.0233  -10.0853 N.3     1  UNL1       -0.2672
     16 C         -21.6798   -5.7301   -9.4428 C.3     1  UNL1        0.0898
     17 C         -21.3174   -7.0777  -11.4037 C.3     1  UNL1        0.0898
     18 C         -22.4543   -9.2855  -15.7263 C.ar    1  UNL1       -0.0003
     19 C         -23.2585   -8.2201  -16.1638 C.ar    1  UNL1       -0.0000
     20 C         -22.6776   -7.1070  -16.7792 C.ar    1  UNL1       -0.0000
     21 C         -21.2913   -7.0429  -16.9459 C.ar    1  UNL1       -0.0000
     22 C         -20.4832   -8.0884  -16.4906 C.ar    1  UNL1       -0.0000
     23 C         -21.0603   -9.2028  -15.8745 C.ar    1  UNL1       -0.0000
     24 C         -24.3420  -12.5707  -15.0148 C.ar    1  UNL1       -0.0040
     25 C         -23.7331  -13.7859  -14.6572 C.ar    1  UNL1       -0.0003
     26 C         -24.4622  -14.7678  -13.9793 C.ar    1  UNL1       -0.0000
     27 C         -25.8049  -14.5495  -13.6602 C.ar    1  UNL1       -0.0000
     28 C         -26.4236  -13.3513  -14.0242 C.ar    1  UNL1       -0.0000
     29 C         -25.6992  -12.3674  -14.7032 C.ar    1  UNL1       -0.0003
     30 C         -22.0767  -12.3831  -17.5637 C.3     1  UNL1        0.0050
     31 C         -23.3842  -11.6709  -17.2192 C.3     1  UNL1        0.0264
@<TRIPOS>BOND
     1    30    31    1
     2    31     1    1
     3     1     2    2
     4     2    18    1
     5    18    19   ar
     6    19    20   ar
     7    20    21   ar
     8    21    22   ar
     9    22    23   ar
    10     2     3    1
    11     3     4   ar
    12     4     5   ar
    13     5     6   ar
    14     6    12    1
    15    12    13    1
    16    13    14    1
    17    14    15    1
    18    15    16    1
    19    15    17    1
    20     6     7   ar
    21     7     8    1
    22     7     9   ar
    23     1    24    1
    24    24    25   ar
    25    25    26   ar
    26    26    27   ar
    27    27    28   ar
    28    28    29   ar
    29    23    18   ar
    30     9     3   ar
    31    29    24   ar
    32     8    10    1
    33     8    11    1
@<TRIPOS>MOLECULE
*****
 31 33 0 0 0
SMALL
GASTEIGER

@<TRIPOS>ATOM
      1 C         -22.9026   -9.1633  -12.7639 C.2     1  UNL1       -0.0222
      2 C         -23.4107   -7.9489  -12.4085 C.2     1  UNL1       -0.0039
      3 C         -24.7593   -7.5146  -12.8522 C.ar    1  UNL1        0.0011
      4 C         -24.8967   -6.6881  -13.9746 C.ar    1  UNL1        0.0032
      5 C         -26.1645   -6.3198  -14.4280 C.ar    1  UNL1        0.0382
      6 C         -27.3200   -6.7701  -13.7613 C.ar    1  UNL1        0.1513
      7 C         -27.1829   -7.5584  -12.6032 C.ar    1  UNL1        0.0760
      8 N         -28.3380   -8.0179  -11.8918 N.pl3   1  UNL1       -0.3546
      9 C         -25.9063   -7.9237  -12.1550 C.ar    1  UNL1        0.0171
     10 H         -29.3037   -7.7744  -12.2048 H       1  UNL1        0.1424
     11 H         -28.2363   -8.6141  -11.0402 H       1  UNL1        0.1424
     12 O         -28.6113   -6.4593  -14.2189 O.3     1  UNL1       -0.4727
     13 C         -28.9880   -5.2462  -14.8729 C.3     1  UNL1        0.2227
     14 C         -30.4975   -5.2130  -15.1516 C.3     1  UNL1        0.1201
     15 N         -31.0803   -3.9130  -14.7522 N.3     1  UNL1       -0.2672
     16 C         -31.0011   -2.9374  -15.8526 C.3     1  UNL1        0.0898
     17 C         -32.4829   -4.0838  -14.3418 C.3     1  UNL1        0.0898
     18 C         -22.6643   -7.0051  -11.5450 C.ar    1  UNL1       -0.0003
     19 C         -21.9664   -5.9227  -12.1059 C.ar    1  UNL1       -0.0000
     20 C         -21.2969   -5.0140  -11.2808 C.ar    1  UNL1       -0.0000
     21 C         -21.3341   -5.1699   -9.8922 C.ar    1  UNL1       -0.0000
     22 C         -22.0471   -6.2305   -9.3265 C.ar    1  UNL1       -0.0000
     23 C         -22.7182   -7.1410  -10.1483 C.ar    1  UNL1       -0.0000
     24 C         -23.5818  -10.0026  -13.7890 C.ar    1  UNL1       -0.0040
     25 C         -23.1660   -9.9691  -15.1311 C.ar    1  UNL1       -0.0003
     26 C         -23.7968  -10.7732  -16.0855 C.ar    1  UNL1       -0.0000
     27 C         -24.8515  -11.6099  -15.7113 C.ar    1  UNL1       -0.0000
     28 C         -25.2822  -11.6395  -14.3829 C.ar    1  UNL1       -0.0000
     29 C         -24.6556  -10.8365  -13.4256 C.ar    1  UNL1       -0.0003
     30 C         -21.9194  -10.6916  -11.0104 C.3     1  UNL1        0.0050
     31 C         -21.6283   -9.7153  -12.1496 C.3     1  UNL1        0.0264
@<TRIPOS>BOND
     1    30    31    1
     2    31     1    1
     3     1     2    2
     4     2    18    1
     5    18    19   ar
     6    19    20   ar
     7    20    21   ar
     8    21    22   ar
     9    22    23   ar
    10     2     3    1
    11     3     4   ar
    12     4     5   ar
    13     5     6   ar
    14     6    12    1
    15    12    13    1
    16    13    14    1
    17    14    15    1
    18    15    16    1
    19    15    17    1
    20     6     7   ar
    21     7     8    1
    22     7     9   ar
    23     1    24    1
    24    24    25   ar
    25    25    26   ar
    26    26    27   ar
    27    27    28   ar
    28    28    29   ar
    29    23    18   ar
    30     9     3   ar
    31    29    24   ar
    32     8    10    1
    33     8    11    1
@<TRIPOS>MOLECULE
*****
 31 33 0 0 0
SMALL
GASTEIGER

@<TRIPOS>ATOM
      1 C         -22.2492  -11.1044  -12.4492 C.2     1  UNL1       -0.0222
      2 C         -23.4469  -10.9718  -13.0875 C.2     1  UNL1       -0.0039
      3 C         -24.1617   -9.6713  -13.1289 C.ar    1  UNL1        0.0011
      4 C         -23.8031   -8.7030  -14.0752 C.ar    1  UNL1        0.0032
      5 C         -24.5062   -7.4997  -14.1539 C.ar    1  UNL1        0.0382
      6 C         -25.5808   -7.2420  -13.2813 C.ar    1  UNL1        0.1513
      7 C         -25.9098   -8.1919  -12.2960 C.ar    1  UNL1        0.0760
      8 N         -26.9859   -7.9528  -11.3816 N.pl3   1  UNL1       -0.3546
      9 C         -25.1988   -9.3976  -12.2242 C.ar    1  UNL1        0.0171
     10 H         -27.5437   -7.0710  -11.4148 H       1  UNL1        0.1424
     11 H         -27.2386   -8.6637  -10.6593 H       1  UNL1        0.1424
     12 O         -26.3407   -6.0635  -13.3650 O.3     1  UNL1       -0.4727
     13 C         -27.2679   -5.7487  -14.4055 C.3     1  UNL1        0.2227
     14 C         -26.8795   -4.4451  -15.1177 C.3     1  UNL1        0.1201
     15 N         -26.9889   -4.5921  -16.5858 N.3     1  UNL1       -0.2672
     16 C         -27.5787   -3.3882  -17.1955 C.3     1  UNL1        0.0898
     17 C         -25.6656   -4.8485  -17.1759 C.3     1  UNL1        0.0898
     18 C         -24.0922  -12.1024  -13.7938 C.ar    1  UNL1       -0.0003
     19 C         -24.9857  -12.9502  -13.1184 C.ar    1  UNL1       -0.0000
     20 C         -25.6207  -13.9912  -13.8024 C.ar    1  UNL1       -0.0000
     21 C         -25.3815  -14.1817  -15.1663 C.ar    1  UNL1       -0.0000
     22 C         -24.5126  -13.3265  -15.8499 C.ar    1  UNL1       -0.0000
     23 C         -23.8760  -12.2842  -15.1695 C.ar    1  UNL1       -0.0000
     24 C         -21.7233  -10.0140  -11.5826 C.ar    1  UNL1       -0.0040
     25 C         -22.0969   -9.9317  -10.2303 C.ar    1  UNL1       -0.0003
     26 C         -21.5852   -8.9153   -9.4176 C.ar    1  UNL1       -0.0000
     27 C         -20.7046   -7.9692   -9.9483 C.ar    1  UNL1       -0.0000
     28 C         -20.3386   -8.0334  -11.2947 C.ar    1  UNL1       -0.0000
     29 C         -20.8486   -9.0467  -12.1113 C.ar    1  UNL1       -0.0003
     30 C         -20.3364  -12.4414  -11.4846 C.3     1  UNL1        0.0050
     31 C         -21.4018  -12.3580  -12.5772 C.3     1  UNL1        0.0264
@<TRIPOS>BOND
     1    30    31    1
     2    31     1    1
     3     1     2    2
     4     2    18    1
     5    18    19   ar
     6    19    20   ar
     7    20    21   ar
     8    21    22   ar
     9    22    23   ar
    10     2     3    1
    11     3     4   ar
    12     4     5   ar
    13     5     6   ar
    14     6    12    1
    15    12    13    1
    16    13    14    1
    17    14    15    1
    18    15    16    1
    19    15    17    1
    20     6     7   ar
    21     7     8    1
    22     7     9   ar
    23     1    24    1
    24    24    25   ar
    25    25    26   ar
    26    26    27   ar
    27    27    28   ar
    28    28    29   ar
    29    23    18   ar
    30     9     3   ar
    31    29    24   ar
    32     8    10    1
    33     8    11    1
@<TRIPOS>MOLECULE
*****
 31 33 0 0 0
SMALL
GASTEIGER

@<TRIPOS>ATOM
      1 C         -24.3414  -11.2442  -13.3260 C.2     1  UNL1       -0.0222
      2 C         -23.0071  -11.4035  -13.5573 C.2     1  UNL1       -0.0039
      3 C         -21.9898  -10.8717  -12.6158 C.ar    1  UNL1        0.0011
      4 C         -21.3349  -11.7352  -11.7286 C.ar    1  UNL1        0.0032
      5 C         -20.3398  -11.2504  -10.8782 C.ar    1  UNL1        0.0382
      6 C         -19.9849   -9.8880  -10.8979 C.ar    1  UNL1        0.1513
      7 C         -20.6772   -9.0091  -11.7521 C.ar    1  UNL1        0.0760
      8 N         -20.3526   -7.6145  -11.7835 N.pl3   1  UNL1       -0.3546
      9 C         -21.6748   -9.5043  -12.6028 C.ar    1  UNL1        0.0171
     10 H         -19.6071   -7.2144  -11.1719 H       1  UNL1        0.1424
     11 H         -20.8572   -6.9648  -12.4271 H       1  UNL1        0.1424
     12 O         -18.9550   -9.3760  -10.0913 O.3     1  UNL1       -0.4727
     13 C         -18.7481   -9.6920   -8.7134 C.3     1  UNL1        0.2227
     14 C         -19.4237   -8.6587   -7.8007 C.3     1  UNL1        0.1201
     15 N         -19.0672   -8.8918   -6.3838 N.3     1  UNL1       -0.2672
     16 C         -18.0077   -9.9078   -6.2652 C.3     1  UNL1        0.0898
     17 C         -18.6242   -7.6383   -5.7532 C.3     1  UNL1        0.0898
     18 C         -22.4945  -12.1321  -14.7405 C.ar    1  UNL1       -0.0003
     19 C         -22.3802  -11.4864  -15.9828 C.ar    1  UNL1       -0.0000
     20 C         -21.8585  -12.1699  -17.0853 C.ar    1  UNL1       -0.0000
     21 C         -21.4325  -13.4943  -16.9508 C.ar    1  UNL1       -0.0000
     22 C         -21.5205  -14.1348  -15.7117 C.ar    1  UNL1       -0.0000
     23 C         -22.0413  -13.4545  -14.6068 C.ar    1  UNL1       -0.0000
     24 C         -24.8245  -10.3416  -12.2449 C.ar    1  UNL1       -0.0040
     25 C         -25.4067   -9.1008  -12.5555 C.ar    1  UNL1       -0.0003
     26 C         -25.8744   -8.2658  -11.5359 C.ar    1  UNL1       -0.0000
     27 C         -25.7578   -8.6573  -10.1998 C.ar    1  UNL1       -0.0000
     28 C         -25.1672   -9.8820   -9.8796 C.ar    1  UNL1       -0.0000
     29 C         -24.6970  -10.7193  -10.8952 C.ar    1  UNL1       -0.0003
     30 C         -25.6588  -13.3756  -13.6395 C.3     1  UNL1        0.0050
     31 C         -25.3944  -11.9607  -14.1529 C.3     1  UNL1        0.0264
@<TRIPOS>BOND
     1    30    31    1
     2    31     1    1
     3     1     2    2
     4     2    18    1
     5    18    19   ar
     6    19    20   ar
     7    20    21   ar
     8    21    22   ar
     9    22    23   ar
    10     2     3    1
    11     3     4   ar
    12     4     5   ar
    13     5     6   ar
    14     6    12    1
    15    12    13    1
    16    13    14    1
    17    14    15    1
    18    15    16    1
    19    15    17    1
    20     6     7   ar
    21     7     8    1
    22     7     9   ar
    23     1    24    1
    24    24    25   ar
    25    25    26   ar
    26    26    27   ar
    27    27    28   ar
    28    28    29   ar
    29    23    18   ar
    30     9     3   ar
    31    29    24   ar
    32     8    10    1
    33     8    11    1
