@<TRIPOS>MOLECULE
*****
 45 50 0 0 0
SMALL
GASTEIGER

@<TRIPOS>ATOM
      1 C          12.0284   81.6988   25.8089 C.ar    1  UNL1        0.0702
      2 C          12.9979   82.3905   26.5437 C.ar    1  UNL1        0.0191
      3 C          13.7228   83.4261   25.9527 C.ar    1  UNL1        0.0356
      4 C          13.4894   83.7553   24.6071 C.ar    1  UNL1        0.1318
      5 N          12.5564   83.0534   23.9056 N.ar    1  UNL1       -0.2279
      6 C          11.8351   82.0447   24.4623 C.ar    1  UNL1        0.1149
      7 N          14.2127   84.8217   23.9594 N.pl3   1  UNL1       -0.2932
      8 C          14.1032   86.2051   24.4429 C.3     1  UNL1        0.0923
      9 C          15.4431   86.9397   24.3093 C.3     1  UNL1        0.0252
     10 C          16.0913   86.7804   22.9186 C.3     1  UNL1        0.0472
     11 C          16.1426   85.2993   22.4909 C.3     1  UNL1        0.0252
     12 C          14.7936   84.5859   22.6314 C.3     1  UNL1        0.0923
     13 C          15.4729   87.7039   21.8489 C.3     1  UNL1        0.2054
     14 O          15.6707   87.1877   20.5365 O.3     1  UNL1       -0.4755
     15 C          14.7172   86.4606   19.8111 C.ar    1  UNL1        0.1388
     16 C          13.3391   86.7279   19.8970 C.ar    1  UNL1        0.0369
     17 C          12.4307   85.9655   19.1610 C.ar    1  UNL1        0.0033
     18 C          12.8844   84.9376   18.3315 C.ar    1  UNL1        0.0066
     19 C          14.2592   84.6639   18.2218 C.ar    1  UNL1        0.0785
     20 C          15.1669   85.4300   18.9767 C.ar    1  UNL1        0.0433
     21 C          14.7280   83.5678   17.3391 C.2     1  UNL1        0.3381
     22 O          15.6834   83.7715   16.5436 O.2     1  UNL1       -0.2451
     23 O          14.1493   82.2993   17.3717 O.3     1  UNL1       -0.4771
     24 H          13.4515   82.0351   18.0548 H       1  UNL1        0.2954
     25 C          11.4231   79.2416   26.0308 C.2     1  UNL1        0.2839
     26 O          12.2478   78.8993   25.1419 O.2     1  UNL1       -0.2665
     27 N          11.3075   80.6198   26.4267 N.am    1  UNL1       -0.2766
     28 H          10.6204   80.8731   27.1696 H       1  UNL1        0.1553
     29 C           8.3016   78.5726   25.4879 C.3     1  UNL1        0.0345
     30 C           9.2488   77.9161   26.4458 C.ar    1  UNL1        0.0202
     31 C          10.6037   78.1946   26.6652 C.ar    1  UNL1        0.1946
     32 O          11.1016   77.3464   27.5477 O.2     1  UNL1       -0.4492
     33 C          10.1345   76.5485   27.9299 C.ar    1  UNL1        0.1456
     34 C          10.2087   75.5128   28.8546 C.ar    1  UNL1        0.0433
     35 C           9.0413   74.7721   29.1223 C.ar    1  UNL1        0.0331
     36 I           9.1679   73.2640   30.6096 I       1  UNL1       -0.0424
     37 C           7.8243   75.0839   28.4467 C.ar    1  UNL1        0.0056
     38 C           7.7908   76.1510   27.5211 C.ar    1  UNL1        0.0032
     39 C           8.9679   76.8594   27.2881 C.ar    1  UNL1        0.0337
     40 C           6.5859   74.3168   28.6900 C.ar    1  UNL1        0.0004
     41 C           6.2153   73.2704   27.8290 C.ar    1  UNL1        0.0000
     42 C           5.0305   72.5618   28.0517 C.ar    1  UNL1        0.0000
     43 C           4.2041   72.8991   29.1272 C.ar    1  UNL1        0.0000
     44 C           4.5590   73.9486   29.9792 C.ar    1  UNL1        0.0000
     45 C           5.7430   74.6597   29.7600 C.ar    1  UNL1        0.0000
@<TRIPOS>BOND
     1    29    30    1
     2    30    31   ar
     3    31    25    1
     4    25    26    2
     5    25    27   am
     6    27     1    1
     7     1     2   ar
     8     2     3   ar
     9     3     4   ar
    10     4     7    1
    11     7     8    1
    12     8     9    1
    13     9    10    1
    14    10    13    1
    15    13    14    1
    16    14    15    1
    17    15    16   ar
    18    16    17   ar
    19    17    18   ar
    20    18    19   ar
    21    19    21    1
    22    21    22    2
    23    21    23    1
    24    19    20   ar
    25    10    11    1
    26    11    12    1
    27     4     5   ar
    28     5     6   ar
    29    31    32   ar
    30    32    33   ar
    31    33    34   ar
    32    34    35   ar
    33    35    36    1
    34    35    37   ar
    35    37    40    1
    36    40    41   ar
    37    41    42   ar
    38    42    43   ar
    39    43    44   ar
    40    44    45   ar
    41    37    38   ar
    42    38    39   ar
    43    39    30   ar
    44     6     1   ar
    45    39    33   ar
    46    12     7    1
    47    45    40   ar
    48    20    15   ar
    49    27    28    1
    50    23    24    1
@<TRIPOS>MOLECULE
*****
 45 50 0 0 0
SMALL
GASTEIGER

@<TRIPOS>ATOM
      1 C          13.0204   83.3535   25.4152 C.ar    1  UNL1        0.0702
      2 C          13.1092   83.4719   24.0236 C.ar    1  UNL1        0.0191
      3 C          13.8522   84.5051   23.4512 C.ar    1  UNL1        0.0356
      4 C          14.4923   85.4406   24.2811 C.ar    1  UNL1        0.1318
      5 N          14.3733   85.3179   25.6324 N.ar    1  UNL1       -0.2279
      6 C          13.6594   84.3167   26.2117 C.ar    1  UNL1        0.1149
      7 N          15.2740   86.5204   23.7308 N.pl3   1  UNL1       -0.2932
      8 C          14.6540   87.8181   23.4286 C.3     1  UNL1        0.0923
      9 C          15.6230   88.9699   23.7233 C.3     1  UNL1        0.0252
     10 C          17.0267   88.7572   23.1198 C.3     1  UNL1        0.0472
     11 C          17.5833   87.3630   23.4741 C.3     1  UNL1        0.0252
     12 C          16.5995   86.2280   23.1704 C.3     1  UNL1        0.0923
     13 C          17.0966   89.0778   21.6126 C.3     1  UNL1        0.2054
     14 O          15.8029   89.3245   21.0710 O.3     1  UNL1       -0.4755
     15 C          15.1795   88.5329   20.0970 C.ar    1  UNL1        0.1388
     16 C          14.5463   89.0842   18.9688 C.ar    1  UNL1        0.0369
     17 C          13.9303   88.2503   18.0340 C.ar    1  UNL1        0.0033
     18 C          13.9440   86.8650   18.2103 C.ar    1  UNL1        0.0066
     19 C          14.5837   86.2940   19.3247 C.ar    1  UNL1        0.0785
     20 C          15.1918   87.1431   20.2680 C.ar    1  UNL1        0.0433
     21 C          14.5890   84.8213   19.5015 C.2     1  UNL1        0.3381
     22 O          15.3621   84.2962   20.3463 O.2     1  UNL1       -0.2451
     23 O          13.7453   83.9896   18.7656 O.3     1  UNL1       -0.4771
     24 H          13.0287   84.3477   18.1479 H       1  UNL1        0.2954
     25 C          11.2237   81.5636   25.2695 C.2     1  UNL1        0.2839
     26 O          11.0332   81.7738   24.0420 O.2     1  UNL1       -0.2665
     27 N          12.2321   82.2968   25.9873 N.am    1  UNL1       -0.2766
     28 H          12.3717   82.0974   27.0016 H       1  UNL1        0.1553
     29 C           9.9858   78.8672   23.9720 C.3     1  UNL1        0.0345
     30 C           9.8545   79.3793   25.3743 C.ar    1  UNL1        0.0202
     31 C          10.4068   80.5362   25.9383 C.ar    1  UNL1        0.1946
     32 O          10.1098   80.5973   27.2244 O.2     1  UNL1       -0.4492
     33 C           9.3736   79.5533   27.5180 C.ar    1  UNL1        0.1456
     34 C           8.8301   79.2229   28.7545 C.ar    1  UNL1        0.0433
     35 C           8.0633   78.0460   28.8535 C.ar    1  UNL1        0.0331
     36 I           7.1689   77.6250   30.7311 I       1  UNL1       -0.0424
     37 C           7.8664   77.2205   27.7069 C.ar    1  UNL1        0.0056
     38 C           8.4289   77.5985   26.4671 C.ar    1  UNL1        0.0032
     39 C           9.1783   78.7721   26.4130 C.ar    1  UNL1        0.0337
     40 C           7.0828   75.9707   27.7788 C.ar    1  UNL1        0.0004
     41 C           5.7317   75.9538   27.3941 C.ar    1  UNL1        0.0000
     42 C           4.9887   74.7726   27.4849 C.ar    1  UNL1        0.0000
     43 C           5.5855   73.6052   27.9691 C.ar    1  UNL1        0.0000
     44 C           6.9250   73.6182   28.3677 C.ar    1  UNL1        0.0000
     45 C           7.6715   74.7973   28.2784 C.ar    1  UNL1        0.0000
@<TRIPOS>BOND
     1    29    30    1
     2    30    31   ar
     3    31    25    1
     4    25    26    2
     5    25    27   am
     6    27     1    1
     7     1     2   ar
     8     2     3   ar
     9     3     4   ar
    10     4     7    1
    11     7     8    1
    12     8     9    1
    13     9    10    1
    14    10    13    1
    15    13    14    1
    16    14    15    1
    17    15    16   ar
    18    16    17   ar
    19    17    18   ar
    20    18    19   ar
    21    19    21    1
    22    21    22    2
    23    21    23    1
    24    19    20   ar
    25    10    11    1
    26    11    12    1
    27     4     5   ar
    28     5     6   ar
    29    31    32   ar
    30    32    33   ar
    31    33    34   ar
    32    34    35   ar
    33    35    36    1
    34    35    37   ar
    35    37    40    1
    36    40    41   ar
    37    41    42   ar
    38    42    43   ar
    39    43    44   ar
    40    44    45   ar
    41    37    38   ar
    42    38    39   ar
    43    39    30   ar
    44     6     1   ar
    45    39    33   ar
    46    12     7    1
    47    45    40   ar
    48    20    15   ar
    49    27    28    1
    50    23    24    1
@<TRIPOS>MOLECULE
*****
 45 50 0 0 0
SMALL
GASTEIGER

@<TRIPOS>ATOM
      1 C          10.8487   79.9146   23.9739 C.ar    1  UNL1        0.0702
      2 C           9.7841   79.8406   23.0685 C.ar    1  UNL1        0.0191
      3 C           8.9488   78.7229   23.0543 C.ar    1  UNL1        0.0356
      4 C           9.1971   77.6608   23.9397 C.ar    1  UNL1        0.1318
      5 N          10.2524   77.7457   24.7966 N.ar    1  UNL1       -0.2279
      6 C          11.0757   78.8267   24.8315 C.ar    1  UNL1        0.1149
      7 N           8.3554   76.4899   23.9613 N.pl3   1  UNL1       -0.2932
      8 C           8.5761   75.4247   24.9493 C.3     1  UNL1        0.0923
      9 C           7.2437   74.8202   25.4099 C.3     1  UNL1        0.0252
     10 C           6.3055   74.4486   24.2432 C.3     1  UNL1        0.0472
     11 C           6.1533   75.6203   23.2516 C.3     1  UNL1        0.0252
     12 C           7.4962   76.2075   22.8043 C.3     1  UNL1        0.0923
     13 C           6.6796   73.1163   23.5615 C.3     1  UNL1        0.2054
     14 O           7.3847   73.3335   22.3434 O.3     1  UNL1       -0.4755
     15 C           8.7584   73.1205   22.1657 C.ar    1  UNL1        0.1388
     16 C           9.3607   71.8670   22.3746 C.ar    1  UNL1        0.0369
     17 C          10.7362   71.7122   22.1942 C.ar    1  UNL1        0.0033
     18 C          11.5207   72.7983   21.8001 C.ar    1  UNL1        0.0066
     19 C          10.9349   74.0563   21.5732 C.ar    1  UNL1        0.0785
     20 C           9.5493   74.2059   21.7691 C.ar    1  UNL1        0.0433
     21 C          11.7796   75.2024   21.1573 C.2     1  UNL1        0.3381
     22 O          12.0975   76.0827   22.0006 O.2     1  UNL1       -0.2451
     23 O          12.2522   75.3315   19.8515 O.3     1  UNL1       -0.4771
     24 H          12.1243   74.6129   19.1512 H       1  UNL1        0.2954
     25 C          11.7911   82.0271   25.0238 C.2     1  UNL1        0.2839
     26 O          11.1360   81.8595   26.0868 O.2     1  UNL1       -0.2665
     27 N          11.7127   81.0629   23.9590 N.am    1  UNL1       -0.2766
     28 H          12.2708   81.2247   23.0927 H       1  UNL1        0.1553
     29 C          14.1592   82.9498   27.0306 C.3     1  UNL1        0.0345
     30 C          13.6635   83.6284   25.7898 C.ar    1  UNL1        0.0202
     31 C          12.6518   83.2175   24.9128 C.ar    1  UNL1        0.1946
     32 O          12.5626   84.0611   23.8997 O.2     1  UNL1       -0.4492
     33 C          13.4469   85.0104   24.0867 C.ar    1  UNL1        0.1456
     34 C          13.6915   86.1103   23.2720 C.ar    1  UNL1        0.0433
     35 C          14.6956   87.0182   23.6601 C.ar    1  UNL1        0.0331
     36 I          14.9743   88.7353   22.4451 I       1  UNL1       -0.0424
     37 C          15.4394   86.7954   24.8567 C.ar    1  UNL1        0.0056
     38 C          15.1519   85.6694   25.6605 C.ar    1  UNL1        0.0032
     39 C          14.1486   84.7981   25.2408 C.ar    1  UNL1        0.0337
     40 C          16.5110   87.7173   25.2845 C.ar    1  UNL1        0.0004
     41 C          16.3526   88.5094   26.4339 C.ar    1  UNL1        0.0000
     42 C          17.3615   89.3965   26.8220 C.ar    1  UNL1        0.0000
     43 C          18.5286   89.5062   26.0610 C.ar    1  UNL1        0.0000
     44 C          18.6868   88.7322   24.9080 C.ar    1  UNL1        0.0000
     45 C          17.6803   87.8438   24.5166 C.ar    1  UNL1        0.0000
@<TRIPOS>BOND
     1    29    30    1
     2    30    31   ar
     3    31    25    1
     4    25    26    2
     5    25    27   am
     6    27     1    1
     7     1     2   ar
     8     2     3   ar
     9     3     4   ar
    10     4     7    1
    11     7     8    1
    12     8     9    1
    13     9    10    1
    14    10    13    1
    15    13    14    1
    16    14    15    1
    17    15    16   ar
    18    16    17   ar
    19    17    18   ar
    20    18    19   ar
    21    19    21    1
    22    21    22    2
    23    21    23    1
    24    19    20   ar
    25    10    11    1
    26    11    12    1
    27     4     5   ar
    28     5     6   ar
    29    31    32   ar
    30    32    33   ar
    31    33    34   ar
    32    34    35   ar
    33    35    36    1
    34    35    37   ar
    35    37    40    1
    36    40    41   ar
    37    41    42   ar
    38    42    43   ar
    39    43    44   ar
    40    44    45   ar
    41    37    38   ar
    42    38    39   ar
    43    39    30   ar
    44     6     1   ar
    45    39    33   ar
    46    12     7    1
    47    45    40   ar
    48    20    15   ar
    49    27    28    1
    50    23    24    1
@<TRIPOS>MOLECULE
*****
 45 50 0 0 0
SMALL
GASTEIGER

@<TRIPOS>ATOM
      1 C          10.8898   79.9044   24.3989 C.ar    1  UNL1        0.0702
      2 C           9.9627   79.6013   23.3955 C.ar    1  UNL1        0.0191
      3 C           9.0947   78.5186   23.5430 C.ar    1  UNL1        0.0356
      4 C           9.1728   77.7198   24.6960 C.ar    1  UNL1        0.1318
      5 N          10.0982   78.0211   25.6491 N.ar    1  UNL1       -0.2279
      6 C          10.9499   79.0736   25.5288 C.ar    1  UNL1        0.1149
      7 N           8.2914   76.5951   24.8905 N.pl3   1  UNL1       -0.2932
      8 C           6.9901   76.7663   25.5514 C.3     1  UNL1        0.0923
      9 C           5.9316   75.8519   24.9220 C.3     1  UNL1        0.0252
     10 C           6.4009   74.3907   24.7662 C.3     1  UNL1        0.0472
     11 C           7.7814   74.3157   24.0822 C.3     1  UNL1        0.0252
     12 C           8.8230   75.2357   24.7279 C.3     1  UNL1        0.0923
     13 C           6.3248   73.5834   26.0784 C.3     1  UNL1        0.2054
     14 O           5.2994   74.0757   26.9352 O.3     1  UNL1       -0.4755
     15 C           5.5038   74.5425   28.2407 C.ar    1  UNL1        0.1388
     16 C           6.5941   74.1299   29.0274 C.ar    1  UNL1        0.0369
     17 C           6.7446   74.6175   30.3266 C.ar    1  UNL1        0.0033
     18 C           5.8176   75.5212   30.8507 C.ar    1  UNL1        0.0066
     19 C           4.7283   75.9559   30.0750 C.ar    1  UNL1        0.0785
     20 C           4.5782   75.4499   28.7704 C.ar    1  UNL1        0.0433
     21 C           3.7495   76.9141   30.6443 C.2     1  UNL1        0.3381
     22 O           4.1467   78.0260   31.0837 O.2     1  UNL1       -0.2451
     23 O           2.3855   76.6279   30.6960 O.3     1  UNL1       -0.4771
     24 H           1.9842   75.8033   30.2691 H       1  UNL1        0.2954
     25 C          11.8136   82.1764   25.0604 C.2     1  UNL1        0.2839
     26 O          11.0660   82.2496   26.0719 O.2     1  UNL1       -0.2665
     27 N          11.7915   81.0091   24.2199 N.am    1  UNL1       -0.2766
     28 H          12.4259   80.9736   23.3926 H       1  UNL1        0.1553
     29 C          14.1077   83.3982   26.9919 C.3     1  UNL1        0.0345
     30 C          13.7012   83.8439   25.6201 C.ar    1  UNL1        0.0202
     31 C          12.7216   83.3018   24.7788 C.ar    1  UNL1        0.1946
     32 O          12.7151   83.9417   23.6227 O.2     1  UNL1       -0.4492
     33 C          13.6226   84.8858   23.6797 C.ar    1  UNL1        0.1456
     34 C          13.9484   85.8061   22.6895 C.ar    1  UNL1        0.0433
     35 C          14.9636   86.7442   22.9582 C.ar    1  UNL1        0.0331
     36 I          15.3664   88.1942   21.4622 I       1  UNL1       -0.0424
     37 C          15.6365   86.7313   24.2158 C.ar    1  UNL1        0.0056
     38 C          15.2675   85.7846   25.1977 C.ar    1  UNL1        0.0032
     39 C          14.2560   84.8763   24.8913 C.ar    1  UNL1        0.0337
     40 C          16.7176   87.6890   24.5247 C.ar    1  UNL1        0.0004
     41 C          17.9224   87.6604   23.8028 C.ar    1  UNL1        0.0000
     42 C          18.9510   88.5552   24.1141 C.ar    1  UNL1        0.0000
     43 C          18.7879   89.4758   25.1530 C.ar    1  UNL1        0.0000
     44 C          17.5978   89.5001   25.8852 C.ar    1  UNL1        0.0000
     45 C          16.5667   88.6070   25.5770 C.ar    1  UNL1        0.0000
@<TRIPOS>BOND
     1    29    30    1
     2    30    31   ar
     3    31    25    1
     4    25    26    2
     5    25    27   am
     6    27     1    1
     7     1     2   ar
     8     2     3   ar
     9     3     4   ar
    10     4     7    1
    11     7     8    1
    12     8     9    1
    13     9    10    1
    14    10    13    1
    15    13    14    1
    16    14    15    1
    17    15    16   ar
    18    16    17   ar
    19    17    18   ar
    20    18    19   ar
    21    19    21    1
    22    21    22    2
    23    21    23    1
    24    19    20   ar
    25    10    11    1
    26    11    12    1
    27     4     5   ar
    28     5     6   ar
    29    31    32   ar
    30    32    33   ar
    31    33    34   ar
    32    34    35   ar
    33    35    36    1
    34    35    37   ar
    35    37    40    1
    36    40    41   ar
    37    41    42   ar
    38    42    43   ar
    39    43    44   ar
    40    44    45   ar
    41    37    38   ar
    42    38    39   ar
    43    39    30   ar
    44     6     1   ar
    45    39    33   ar
    46    12     7    1
    47    45    40   ar
    48    20    15   ar
    49    27    28    1
    50    23    24    1
@<TRIPOS>MOLECULE
*****
 45 50 0 0 0
SMALL
GASTEIGER

@<TRIPOS>ATOM
      1 C          10.0009   80.2347   23.9039 C.ar    1  UNL1        0.0702
      2 C           9.5539   79.8961   22.6217 C.ar    1  UNL1        0.0191
      3 C           8.8929   78.6867   22.4034 C.ar    1  UNL1        0.0356
      4 C           8.6991   77.7995   23.4753 C.ar    1  UNL1        0.1318
      5 N           9.1625   78.1409   24.7098 N.ar    1  UNL1       -0.2279
      6 C           9.8042   79.3156   24.9465 C.ar    1  UNL1        0.1149
      7 N           8.0167   76.5420   23.2942 N.pl3   1  UNL1       -0.2932
      8 C           8.0648   75.8406   22.0037 C.3     1  UNL1        0.0923
      9 C           8.1156   74.3212   22.2076 C.3     1  UNL1        0.0252
     10 C           7.0525   73.8016   23.1973 C.3     1  UNL1        0.0472
     11 C           7.0659   74.6115   24.5100 C.3     1  UNL1        0.0252
     12 C           7.0132   76.1260   24.2824 C.3     1  UNL1        0.0923
     13 C           5.6481   73.6754   22.5718 C.3     1  UNL1        0.2054
     14 O           5.6543   74.0447   21.1965 O.3     1  UNL1       -0.4755
     15 C           4.6687   74.8215   20.5726 C.ar    1  UNL1        0.1388
     16 C           4.4040   74.7393   19.1939 C.ar    1  UNL1        0.0369
     17 C           3.4181   75.5444   18.6208 C.ar    1  UNL1        0.0033
     18 C           2.6857   76.4311   19.4130 C.ar    1  UNL1        0.0066
     19 C           2.9264   76.5181   20.7957 C.ar    1  UNL1        0.0785
     20 C           3.9303   75.7111   21.3627 C.ar    1  UNL1        0.0433
     21 C           2.1432   77.4658   21.6255 C.2     1  UNL1        0.3381
     22 O           2.6080   78.6100   21.8743 O.2     1  UNL1       -0.2451
     23 O           0.8873   77.1339   22.1330 O.3     1  UNL1       -0.4771
     24 H           0.4087   76.2769   21.8884 H       1  UNL1        0.2954
     25 C          12.1098   81.5699   24.3760 C.2     1  UNL1        0.2839
     26 O          12.8325   80.5379   24.3729 O.2     1  UNL1       -0.2665
     27 N          10.7000   81.4739   24.1060 N.am    1  UNL1       -0.2766
     28 H          10.1275   82.3459   24.1092 H       1  UNL1        0.1553
     29 C          13.9224   82.4042   26.9264 C.3     1  UNL1        0.0345
     30 C          13.5175   83.2395   25.7498 C.ar    1  UNL1        0.0202
     31 C          12.7492   82.8708   24.6384 C.ar    1  UNL1        0.1946
     32 O          12.6729   83.8792   23.7879 O.2     1  UNL1       -0.4492
     33 C          13.3310   84.8899   24.3013 C.ar    1  UNL1        0.1456
     34 C          13.5009   86.1553   23.7505 C.ar    1  UNL1        0.0433
     35 C          14.2507   87.1028   24.4738 C.ar    1  UNL1        0.0331
     36 I          14.4069   89.0517   23.6492 I       1  UNL1       -0.0424
     37 C          14.8217   86.7542   25.7336 C.ar    1  UNL1        0.0056
     38 C          14.6164   85.4596   26.2612 C.ar    1  UNL1        0.0032
     39 C          13.8660   84.5539   25.5138 C.ar    1  UNL1        0.0337
     40 C          15.6281   87.7172   26.5106 C.ar    1  UNL1        0.0004
     41 C          16.9495   88.0081   26.1327 C.ar    1  UNL1        0.0000
     42 C          17.7157   88.9041   26.8848 C.ar    1  UNL1        0.0000
     43 C          17.1723   89.5067   28.0228 C.ar    1  UNL1        0.0000
     44 C          15.8634   89.2107   28.4132 C.ar    1  UNL1        0.0000
     45 C          15.0939   88.3152   27.6639 C.ar    1  UNL1        0.0000
@<TRIPOS>BOND
     1    29    30    1
     2    30    31   ar
     3    31    25    1
     4    25    26    2
     5    25    27   am
     6    27     1    1
     7     1     2   ar
     8     2     3   ar
     9     3     4   ar
    10     4     7    1
    11     7     8    1
    12     8     9    1
    13     9    10    1
    14    10    13    1
    15    13    14    1
    16    14    15    1
    17    15    16   ar
    18    16    17   ar
    19    17    18   ar
    20    18    19   ar
    21    19    21    1
    22    21    22    2
    23    21    23    1
    24    19    20   ar
    25    10    11    1
    26    11    12    1
    27     4     5   ar
    28     5     6   ar
    29    31    32   ar
    30    32    33   ar
    31    33    34   ar
    32    34    35   ar
    33    35    36    1
    34    35    37   ar
    35    37    40    1
    36    40    41   ar
    37    41    42   ar
    38    42    43   ar
    39    43    44   ar
    40    44    45   ar
    41    37    38   ar
    42    38    39   ar
    43    39    30   ar
    44     6     1   ar
    45    39    33   ar
    46    12     7    1
    47    45    40   ar
    48    20    15   ar
    49    27    28    1
    50    23    24    1
@<TRIPOS>MOLECULE
*****
 45 50 0 0 0
SMALL
GASTEIGER

@<TRIPOS>ATOM
      1 C          10.6454   81.2374   25.0512 C.ar    1  UNL1        0.0702
      2 C          10.5151   80.7730   26.3648 C.ar    1  UNL1        0.0191
      3 C           9.6910   79.6830   26.6474 C.ar    1  UNL1        0.0356
      4 C           8.9740   79.0682   25.6074 C.ar    1  UNL1        0.1318
      5 N           9.0996   79.5517   24.3402 N.ar    1  UNL1       -0.2279
      6 C           9.9003   80.6086   24.0412 C.ar    1  UNL1        0.1149
      7 N           8.1154   77.9362   25.8552 N.pl3   1  UNL1       -0.2932
      8 C           7.6438   77.0947   24.7467 C.3     1  UNL1        0.0923
      9 C           7.5647   75.6229   25.1715 C.3     1  UNL1        0.0252
     10 C           6.8319   75.4125   26.5125 C.3     1  UNL1        0.0472
     11 C           7.3822   76.3521   27.6050 C.3     1  UNL1        0.0252
     12 C           7.4511   77.8167   27.1595 C.3     1  UNL1        0.0923
     13 C           5.2957   75.4621   26.3815 C.3     1  UNL1        0.2054
     14 O           4.8950   75.7498   25.0456 O.3     1  UNL1       -0.4755
     15 C           3.9004   76.6707   24.6898 C.ar    1  UNL1        0.1388
     16 C           2.9356   77.1299   25.6042 C.ar    1  UNL1        0.0369
     17 C           1.9594   78.0396   25.1944 C.ar    1  UNL1        0.0033
     18 C           1.9382   78.5030   23.8771 C.ar    1  UNL1        0.0066
     19 C           2.9025   78.0660   22.9517 C.ar    1  UNL1        0.0785
     20 C           3.8757   77.1398   23.3707 C.ar    1  UNL1        0.0433
     21 C           2.8675   78.5640   21.5549 C.2     1  UNL1        0.3381
     22 O           3.4755   77.9316   20.6507 O.2     1  UNL1       -0.2451
     23 O           2.1627   79.7145   21.2022 O.3     1  UNL1       -0.4771
     24 H           1.5689   80.2120   21.8528 H       1  UNL1        0.2954
     25 C          12.9100   82.3101   24.6338 C.2     1  UNL1        0.2839
     26 O          13.5048   81.1998   24.6611 O.2     1  UNL1       -0.2665
     27 N          11.4805   82.3756   24.7818 N.am    1  UNL1       -0.2766
     28 H          11.0143   83.3082   24.7490 H       1  UNL1        0.1553
     29 C          15.1162   82.8524   22.3263 C.3     1  UNL1        0.0345
     30 C          14.6797   83.7575   23.4381 C.ar    1  UNL1        0.0202
     31 C          13.7115   83.5281   24.4237 C.ar    1  UNL1        0.1946
     32 O          13.5751   84.6023   25.1811 O.2     1  UNL1       -0.4492
     33 C          14.4215   85.5070   24.7532 C.ar    1  UNL1        0.1456
     34 C          14.6244   86.7839   25.2649 C.ar    1  UNL1        0.0433
     35 C          15.5917   87.6030   24.6513 C.ar    1  UNL1        0.0331
     36 I          15.9431   89.5073   25.5188 I       1  UNL1       -0.0424
     37 C          16.3293   87.1227   23.5288 C.ar    1  UNL1        0.0056
     38 C          16.0982   85.8148   23.0466 C.ar    1  UNL1        0.0032
     39 C          15.1340   85.0372   23.6850 C.ar    1  UNL1        0.0337
     40 C          17.3385   87.9608   22.8502 C.ar    1  UNL1        0.0004
     41 C          17.0503   88.5618   21.6135 C.ar    1  UNL1        0.0000
     42 C          18.0172   89.3365   20.9650 C.ar    1  UNL1        0.0000
     43 C          19.2793   89.5075   21.5407 C.ar    1  UNL1        0.0000
     44 C          19.5780   88.9005   22.7636 C.ar    1  UNL1        0.0000
     45 C          18.6139   88.1251   23.4153 C.ar    1  UNL1        0.0000
@<TRIPOS>BOND
     1    29    30    1
     2    30    31   ar
     3    31    25    1
     4    25    26    2
     5    25    27   am
     6    27     1    1
     7     1     2   ar
     8     2     3   ar
     9     3     4   ar
    10     4     7    1
    11     7     8    1
    12     8     9    1
    13     9    10    1
    14    10    13    1
    15    13    14    1
    16    14    15    1
    17    15    16   ar
    18    16    17   ar
    19    17    18   ar
    20    18    19   ar
    21    19    21    1
    22    21    22    2
    23    21    23    1
    24    19    20   ar
    25    10    11    1
    26    11    12    1
    27     4     5   ar
    28     5     6   ar
    29    31    32   ar
    30    32    33   ar
    31    33    34   ar
    32    34    35   ar
    33    35    36    1
    34    35    37   ar
    35    37    40    1
    36    40    41   ar
    37    41    42   ar
    38    42    43   ar
    39    43    44   ar
    40    44    45   ar
    41    37    38   ar
    42    38    39   ar
    43    39    30   ar
    44     6     1   ar
    45    39    33   ar
    46    12     7    1
    47    45    40   ar
    48    20    15   ar
    49    27    28    1
    50    23    24    1
@<TRIPOS>MOLECULE
*****
 45 50 0 0 0
SMALL
GASTEIGER

@<TRIPOS>ATOM
      1 C          10.2279   80.5412   24.7550 C.ar    1  UNL1        0.0702
      2 C          10.0180   80.2938   26.1162 C.ar    1  UNL1        0.0191
      3 C           9.2667   79.1906   26.5234 C.ar    1  UNL1        0.0356
      4 C           8.7024   78.3416   25.5568 C.ar    1  UNL1        0.1318
      5 N           8.9019   78.6150   24.2374 N.ar    1  UNL1       -0.2279
      6 C           9.6342   79.6806   23.8182 C.ar    1  UNL1        0.1149
      7 N           7.9237   77.1880   25.9346 N.pl3   1  UNL1       -0.2932
      8 C           6.5529   77.3406   26.4417 C.3     1  UNL1        0.0923
      9 C           5.6590   76.1915   25.9585 C.3     1  UNL1        0.0252
     10 C           6.2860   74.7983   26.1720 C.3     1  UNL1        0.0472
     11 C           7.7279   74.7434   25.6267 C.3     1  UNL1        0.0252
     12 C           8.6027   75.8995   26.1230 C.3     1  UNL1        0.0923
     13 C           6.1623   74.2906   27.6233 C.3     1  UNL1        0.2054
     14 O           7.2050   74.8037   28.4463 O.3     1  UNL1       -0.4755
     15 C           7.0151   75.6746   29.5277 C.ar    1  UNL1        0.1388
     16 C           5.9926   75.4890   30.4753 C.ar    1  UNL1        0.0369
     17 C           5.8405   76.3932   31.5277 C.ar    1  UNL1        0.0033
     18 C           6.7052   77.4832   31.6492 C.ar    1  UNL1        0.0066
     19 C           7.7419   77.6783   30.7196 C.ar    1  UNL1        0.0785
     20 C           7.8803   76.7682   29.6551 C.ar    1  UNL1        0.0433
     21 C           8.6520   78.8414   30.8585 C.2     1  UNL1        0.3381
     22 O           8.6366   79.7540   29.9902 O.2     1  UNL1       -0.2451
     23 O           9.5239   78.9674   31.9397 O.3     1  UNL1       -0.4771
     24 H           9.5165   78.3289   32.7243 H       1  UNL1        0.2954
     25 C          12.3450   81.9452   24.7493 C.2     1  UNL1        0.2839
     26 O          12.9788   81.0953   25.4299 O.2     1  UNL1       -0.2665
     27 N          10.9848   81.6949   24.3532 N.am    1  UNL1       -0.2766
     28 H          10.4867   82.4139   23.7848 H       1  UNL1        0.1553
     29 C          15.4087   82.2615   23.7494 C.3     1  UNL1        0.0345
     30 C          14.3694   83.3243   23.9391 C.ar    1  UNL1        0.0202
     31 C          13.0391   83.1828   24.3535 C.ar    1  UNL1        0.1946
     32 O          12.4319   84.3562   24.3301 O.2     1  UNL1       -0.4492
     33 C          13.3056   85.2545   23.9457 C.ar    1  UNL1        0.1456
     34 C          13.1009   86.6211   23.7915 C.ar    1  UNL1        0.0433
     35 C          14.1834   87.4142   23.3647 C.ar    1  UNL1        0.0331
     36 I          13.8615   89.5075   23.2345 I       1  UNL1       -0.0424
     37 C          15.4485   86.8136   23.0934 C.ar    1  UNL1        0.0056
     38 C          15.6157   85.4219   23.2723 C.ar    1  UNL1        0.0032
     39 C          14.5191   84.6751   23.6985 C.ar    1  UNL1        0.0337
     40 C          16.6001   87.6123   22.6275 C.ar    1  UNL1        0.0004
     41 C          16.7035   87.9943   21.2796 C.ar    1  UNL1        0.0000
     42 C          17.8070   88.7319   20.8396 C.ar    1  UNL1        0.0000
     43 C          18.8180   89.0835   21.7384 C.ar    1  UNL1        0.0000
     44 C          18.7291   88.6942   23.0778 C.ar    1  UNL1        0.0000
     45 C          17.6272   87.9565   23.5218 C.ar    1  UNL1        0.0000
@<TRIPOS>BOND
     1    29    30    1
     2    30    31   ar
     3    31    25    1
     4    25    26    2
     5    25    27   am
     6    27     1    1
     7     1     2   ar
     8     2     3   ar
     9     3     4   ar
    10     4     7    1
    11     7     8    1
    12     8     9    1
    13     9    10    1
    14    10    13    1
    15    13    14    1
    16    14    15    1
    17    15    16   ar
    18    16    17   ar
    19    17    18   ar
    20    18    19   ar
    21    19    21    1
    22    21    22    2
    23    21    23    1
    24    19    20   ar
    25    10    11    1
    26    11    12    1
    27     4     5   ar
    28     5     6   ar
    29    31    32   ar
    30    32    33   ar
    31    33    34   ar
    32    34    35   ar
    33    35    36    1
    34    35    37   ar
    35    37    40    1
    36    40    41   ar
    37    41    42   ar
    38    42    43   ar
    39    43    44   ar
    40    44    45   ar
    41    37    38   ar
    42    38    39   ar
    43    39    30   ar
    44     6     1   ar
    45    39    33   ar
    46    12     7    1
    47    45    40   ar
    48    20    15   ar
    49    27    28    1
    50    23    24    1
@<TRIPOS>MOLECULE
*****
 45 50 0 0 0
SMALL
GASTEIGER

@<TRIPOS>ATOM
      1 C          10.9290   79.9085   24.0566 C.ar    1  UNL1        0.0702
      2 C           9.8312   79.8498   23.1907 C.ar    1  UNL1        0.0191
      3 C           8.9561   78.7638   23.2364 C.ar    1  UNL1        0.0356
      4 C           9.1969   77.7173   24.1422 C.ar    1  UNL1        0.1318
      5 N          10.2842   77.7860   24.9598 N.ar    1  UNL1       -0.2279
      6 C          11.1467   78.8363   24.9361 C.ar    1  UNL1        0.1149
      7 N           8.3148   76.5794   24.2255 N.pl3   1  UNL1       -0.2932
      8 C           8.0223   75.7675   23.0360 C.3     1  UNL1        0.0923
      9 C           7.8845   74.2851   23.4051 C.3     1  UNL1        0.0252
     10 C           6.9552   74.0395   24.6116 C.3     1  UNL1        0.0472
     11 C           7.3276   74.9498   25.7999 C.3     1  UNL1        0.0252
     12 C           7.4585   76.4256   25.4086 C.3     1  UNL1        0.0923
     13 C           5.4572   74.0929   24.2474 C.3     1  UNL1        0.2054
     14 O           5.1297   75.2970   23.5613 O.3     1  UNL1       -0.4755
     15 C           4.1396   76.2032   23.9645 C.ar    1  UNL1        0.1388
     16 C           3.7259   76.3220   25.3034 C.ar    1  UNL1        0.0369
     17 C           2.7270   77.2335   25.6494 C.ar    1  UNL1        0.0033
     18 C           2.1371   78.0361   24.6704 C.ar    1  UNL1        0.0066
     19 C           2.5467   77.9415   23.3286 C.ar    1  UNL1        0.0785
     20 C           3.5461   77.0114   22.9871 C.ar    1  UNL1        0.0433
     21 C           1.9105   78.7979   22.2980 C.2     1  UNL1        0.3381
     22 O           2.6192   79.5833   21.6138 O.2     1  UNL1       -0.2451
     23 O           0.5393   78.7511   22.0476 O.3     1  UNL1       -0.4771
     24 H          -0.0724   78.0734   22.4835 H       1  UNL1        0.2954
     25 C          11.9475   82.0396   24.9916 C.2     1  UNL1        0.2839
     26 O          11.2893   81.9523   26.0623 O.2     1  UNL1       -0.2665
     27 N          11.8328   81.0232   23.9799 N.am    1  UNL1       -0.2766
     28 H          12.3944   81.1186   23.1061 H       1  UNL1        0.1553
     29 C          14.0119   83.2817   27.1552 C.3     1  UNL1        0.0345
     30 C          13.7288   83.7417   25.7574 C.ar    1  UNL1        0.0202
     31 C          12.8493   83.1913   24.8167 C.ar    1  UNL1        0.1946
     32 O          12.9383   83.8512   23.6754 O.2     1  UNL1       -0.4492
     33 C          13.8115   84.8157   23.8347 C.ar    1  UNL1        0.1456
     34 C          14.2079   85.7609   22.8950 C.ar    1  UNL1        0.0433
     35 C          15.1680   86.7182   23.2754 C.ar    1  UNL1        0.0331
     36 I          15.6764   88.2037   21.8480 I       1  UNL1       -0.0424
     37 C          15.7163   86.6992   24.5921 C.ar    1  UNL1        0.0056
     38 C          15.2783   85.7267   25.5189 C.ar    1  UNL1        0.0032
     39 C          14.3249   84.7999   25.1018 C.ar    1  UNL1        0.0337
     40 C          16.7375   87.6769   25.0192 C.ar    1  UNL1        0.0004
     41 C          17.9610   87.7737   24.3356 C.ar    1  UNL1        0.0000
     42 C          18.9330   88.6861   24.7578 C.ar    1  UNL1        0.0000
     43 C          18.6947   89.4991   25.8694 C.ar    1  UNL1        0.0000
     44 C          17.4858   89.3978   26.5633 C.ar    1  UNL1        0.0000
     45 C          16.5112   88.4867   26.1443 C.ar    1  UNL1        0.0000
@<TRIPOS>BOND
     1    29    30    1
     2    30    31   ar
     3    31    25    1
     4    25    26    2
     5    25    27   am
     6    27     1    1
     7     1     2   ar
     8     2     3   ar
     9     3     4   ar
    10     4     7    1
    11     7     8    1
    12     8     9    1
    13     9    10    1
    14    10    13    1
    15    13    14    1
    16    14    15    1
    17    15    16   ar
    18    16    17   ar
    19    17    18   ar
    20    18    19   ar
    21    19    21    1
    22    21    22    2
    23    21    23    1
    24    19    20   ar
    25    10    11    1
    26    11    12    1
    27     4     5   ar
    28     5     6   ar
    29    31    32   ar
    30    32    33   ar
    31    33    34   ar
    32    34    35   ar
    33    35    36    1
    34    35    37   ar
    35    37    40    1
    36    40    41   ar
    37    41    42   ar
    38    42    43   ar
    39    43    44   ar
    40    44    45   ar
    41    37    38   ar
    42    38    39   ar
    43    39    30   ar
    44     6     1   ar
    45    39    33   ar
    46    12     7    1
    47    45    40   ar
    48    20    15   ar
    49    27    28    1
    50    23    24    1
@<TRIPOS>MOLECULE
*****
 45 50 0 0 0
SMALL
GASTEIGER

@<TRIPOS>ATOM
      1 C          10.0317   80.2050   26.7684 C.ar    1  UNL1        0.0702
      2 C           9.1113   79.5776   25.9213 C.ar    1  UNL1        0.0191
      3 C           8.3827   78.4743   26.3674 C.ar    1  UNL1        0.0356
      4 C           8.5956   77.9823   27.6659 C.ar    1  UNL1        0.1318
      5 N           9.5126   78.5958   28.4647 N.ar    1  UNL1       -0.2279
      6 C          10.2296   79.6747   28.0530 C.ar    1  UNL1        0.1149
      7 N           7.8603   76.8478   28.1682 N.pl3   1  UNL1       -0.2932
      8 C           8.3221   75.4777   27.9057 C.3     1  UNL1        0.0923
      9 C           8.0477   74.5672   29.1092 C.3     1  UNL1        0.0252
     10 C           6.6061   74.6818   29.6461 C.3     1  UNL1        0.0472
     11 C           6.2073   76.1549   29.8701 C.3     1  UNL1        0.0252
     12 C           6.4890   77.0454   28.6552 C.3     1  UNL1        0.0923
     13 C           5.5796   73.8918   28.8084 C.3     1  UNL1        0.2054
     14 O           6.1172   73.5140   27.5450 O.3     1  UNL1       -0.4755
     15 C           5.8864   74.1946   26.3419 C.ar    1  UNL1        0.1388
     16 C           5.0596   75.3296   26.2638 C.ar    1  UNL1        0.0369
     17 C           4.8545   75.9636   25.0373 C.ar    1  UNL1        0.0033
     18 C           5.4726   75.4786   23.8826 C.ar    1  UNL1        0.0066
     19 C           6.3134   74.3532   23.9427 C.ar    1  UNL1        0.0785
     20 C           6.5051   73.7135   25.1815 C.ar    1  UNL1        0.0433
     21 C           6.9621   73.8468   22.7086 C.2     1  UNL1        0.3381
     22 O           6.7098   74.3921   21.6012 O.2     1  UNL1       -0.2451
     23 O           7.8646   72.7839   22.7356 O.3     1  UNL1       -0.4771
     24 H           8.1924   72.3680   23.5975 H       1  UNL1        0.2954
     25 C          11.9631   81.2102   25.4598 C.2     1  UNL1        0.2839
     26 O          12.3469   80.0825   25.0495 O.2     1  UNL1       -0.2665
     27 N          10.7901   81.3258   26.2846 N.am    1  UNL1       -0.2766
     28 H          10.4924   82.2729   26.6045 H       1  UNL1        0.1553
     29 C          13.7029   83.1812   27.3504 C.3     1  UNL1        0.0345
     30 C          13.4677   83.2650   25.8728 C.ar    1  UNL1        0.0202
     31 C          12.7304   82.4004   25.0540 C.ar    1  UNL1        0.1946
     32 O          12.8214   82.7857   23.7933 O.2     1  UNL1       -0.4492
     33 C          13.5588   83.8686   23.7551 C.ar    1  UNL1        0.1456
     34 C          13.9054   84.6164   22.6352 C.ar    1  UNL1        0.0433
     35 C          14.7139   85.7549   22.8168 C.ar    1  UNL1        0.0331
     36 I          15.1416   86.9261   21.0999 I       1  UNL1       -0.0424
     37 C          15.1645   86.1128   24.1221 C.ar    1  UNL1        0.0056
     38 C          14.7810   85.3303   25.2343 C.ar    1  UNL1        0.0032
     39 C          13.9780   84.2137   25.0100 C.ar    1  UNL1        0.0337
     40 C          16.0278   87.2900   24.3468 C.ar    1  UNL1        0.0004
     41 C          17.3438   87.3124   23.8557 C.ar    1  UNL1        0.0000
     42 C          18.1638   88.4206   24.0902 C.ar    1  UNL1        0.0000
     43 C          17.6799   89.5072   24.8240 C.ar    1  UNL1        0.0000
     44 C          16.3767   89.4856   25.3283 C.ar    1  UNL1        0.0000
     45 C          15.5534   88.3793   25.0960 C.ar    1  UNL1        0.0000
@<TRIPOS>BOND
     1    29    30    1
     2    30    31   ar
     3    31    25    1
     4    25    26    2
     5    25    27   am
     6    27     1    1
     7     1     2   ar
     8     2     3   ar
     9     3     4   ar
    10     4     7    1
    11     7     8    1
    12     8     9    1
    13     9    10    1
    14    10    13    1
    15    13    14    1
    16    14    15    1
    17    15    16   ar
    18    16    17   ar
    19    17    18   ar
    20    18    19   ar
    21    19    21    1
    22    21    22    2
    23    21    23    1
    24    19    20   ar
    25    10    11    1
    26    11    12    1
    27     4     5   ar
    28     5     6   ar
    29    31    32   ar
    30    32    33   ar
    31    33    34   ar
    32    34    35   ar
    33    35    36    1
    34    35    37   ar
    35    37    40    1
    36    40    41   ar
    37    41    42   ar
    38    42    43   ar
    39    43    44   ar
    40    44    45   ar
    41    37    38   ar
    42    38    39   ar
    43    39    30   ar
    44     6     1   ar
    45    39    33   ar
    46    12     7    1
    47    45    40   ar
    48    20    15   ar
    49    27    28    1
    50    23    24    1
