@<TRIPOS>MOLECULE
*****
 51 56 0 0 0
SMALL
GASTEIGER

@<TRIPOS>ATOM
      1 C           9.3104   76.3869   26.4809 C.2     1  UNL1        0.2484
      2 O          10.4000   75.7567   26.5691 O.2     1  UNL1       -0.2701
      3 N           8.9872   77.3911   27.4559 N.am    1  UNL1       -0.2945
      4 H           8.2129   78.0624   27.2489 H       1  UNL1        0.1501
      5 C           8.0269   75.0930   23.1521 C.ar    1  UNL1        0.1522
      6 C           8.8695   75.3725   24.2455 C.ar    1  UNL1        0.0449
      7 C           8.3982   76.1031   25.3497 C.ar    1  UNL1        0.0839
      8 C           7.0588   76.5339   25.3647 C.ar    1  UNL1        0.1459
      9 F           6.5424   77.1778   26.4419 F       1  UNL1       -0.2040
     10 C           6.2193   76.2545   24.2845 C.ar    1  UNL1        0.0474
     11 C           6.6932   75.5362   23.1795 C.ar    1  UNL1        0.0846
     12 N           5.8122   75.2551   22.0805 N.pl3   1  UNL1       -0.3017
     13 C           5.4133   76.3255   21.1629 C.3     1  UNL1        0.1124
     14 C           3.9081   76.2428   20.8990 C.3     1  UNL1        0.1136
     15 N           3.4876   74.8722   20.5528 N.pl3   1  UNL1       -0.2897
     16 C           4.4638   73.7710   20.6137 C.3     1  UNL1        0.1136
     17 C           5.3357   73.8825   21.8711 C.3     1  UNL1        0.1124
     18 C           2.1777   74.6355   19.9860 C.ar    1  UNL1        0.1318
     19 C           1.5170   75.6188   19.2281 C.ar    1  UNL1        0.0343
     20 C           0.2545   75.3502   18.6968 C.ar    1  UNL1        0.0083
     21 C          -0.3645   74.1144   18.9329 C.ar    1  UNL1        0.0906
     22 C           0.3353   73.1505   19.6735 C.ar    1  UNL1        0.1041
     23 N           1.5646   73.4334   20.1789 N.ar    1  UNL1       -0.2292
     24 C          -1.7053   73.7946   18.3228 C.3     1  UNL1        0.4200
     25 F          -1.8607   74.4516   17.1143 F       1  UNL1       -0.1658
     26 F          -1.7950   72.4318   18.1095 F       1  UNL1       -0.1658
     27 F          -2.7313   74.1881   19.1645 F       1  UNL1       -0.1658
     28 C           9.1941   73.1623   22.0649 C.3     1  UNL1        0.2525
     29 O           8.4808   74.3934   22.0223 O.3     1  UNL1       -0.4702
     30 C           9.8223   77.6214   28.6382 C.3     1  UNL1        0.1535
     31 C           9.7155   79.0622   29.0688 C.2     1  UNL1        0.2443
     32 O           9.2577   79.9176   28.2627 O.2     1  UNL1       -0.2730
     33 N          10.0269   79.4262   30.4241 N.am    1  UNL1       -0.2825
     34 H          10.2700   78.6566   31.0884 H       1  UNL1        0.1549
     35 C           9.7670   80.7245   30.9806 C.ar    1  UNL1        0.0535
     36 C           9.1021   80.8253   32.2100 C.ar    1  UNL1        0.0353
     37 C           8.8457   82.0850   32.7553 C.ar    1  UNL1        0.1002
     38 N           9.2581   83.2056   32.1058 N.ar    1  UNL1       -0.2422
     39 C           9.9254   83.1382   30.9232 C.ar    1  UNL1        0.1002
     40 C          10.1982   81.8977   30.3409 C.ar    1  UNL1        0.0353
     41 C           9.3961   76.6791   29.7802 C.3     1  UNL1        0.0569
     42 C           7.9010   76.5386   29.8545 C.ar    1  UNL1       -0.0017
     43 C           7.0111   77.4751   30.3720 C.ar    1  UNL1        0.0681
     44 N           5.7345   77.0852   30.1542 N.ar    1  UNL1       -0.3523
     45 C           5.8099   75.9183   29.4912 C.ar    1  UNL1        0.0563
     46 C           4.7500   75.1544   29.0042 C.ar    1  UNL1        0.0170
     47 C           5.0578   73.9822   28.2898 C.ar    1  UNL1        0.0015
     48 C           6.4024   73.6054   28.0783 C.ar    1  UNL1        0.0001
     49 C           7.4515   74.3963   28.5802 C.ar    1  UNL1        0.0012
     50 C           7.1158   75.5516   29.2878 C.ar    1  UNL1        0.0131
     51 H           4.8687   77.6042   30.4213 H       1  UNL1        0.1660
@<TRIPOS>BOND
     1    28    29    1
     2    29     5    1
     3     5     6   ar
     4     6     7   ar
     5     7     1    1
     6     1     2    2
     7     1     3   am
     8     3    30    1
     9    30    41    1
    10    41    42    1
    11    42    43   ar
    12    43    44   ar
    13    44    45   ar
    14    45    46   ar
    15    46    47   ar
    16    47    48   ar
    17    48    49   ar
    18    49    50   ar
    19    30    31    1
    20    31    32    2
    21    31    33   am
    22    33    35    1
    23    35    36   ar
    24    36    37   ar
    25    37    38   ar
    26    38    39   ar
    27    39    40   ar
    28     7     8   ar
    29     8     9    1
    30     8    10   ar
    31    10    11   ar
    32    11    12    1
    33    12    13    1
    34    13    14    1
    35    14    15    1
    36    15    18    1
    37    18    19   ar
    38    19    20   ar
    39    20    21   ar
    40    21    24    1
    41    24    25    1
    42    24    26    1
    43    24    27    1
    44    21    22   ar
    45    22    23   ar
    46    15    16    1
    47    16    17    1
    48    11     5   ar
    49    17    12    1
    50    50    42   ar
    51    40    35   ar
    52    23    18   ar
    53    50    45   ar
    54     3     4    1
    55    44    51    1
    56    33    34    1
@<TRIPOS>MOLECULE
*****
 51 56 0 0 0
SMALL
GASTEIGER

@<TRIPOS>ATOM
      1 C           9.4507   76.5237   26.2125 C.2     1  UNL1        0.2484
      2 O          10.5792   75.9602   26.2452 O.2     1  UNL1       -0.2701
      3 N           9.0941   77.4647   27.2376 N.am    1  UNL1       -0.2945
      4 H           8.2742   78.0938   27.0798 H       1  UNL1        0.1501
      5 C           6.2398   75.8769   24.2956 C.ar    1  UNL1        0.1522
      6 C           7.1432   76.1611   25.3381 C.ar    1  UNL1        0.0449
      7 C           8.5257   76.2298   25.0943 C.ar    1  UNL1        0.0839
      8 C           9.0005   76.0366   23.7840 C.ar    1  UNL1        0.1459
      9 F          10.3191   76.1666   23.4908 F       1  UNL1       -0.2040
     10 C           8.1073   75.7593   22.7473 C.ar    1  UNL1        0.0474
     11 C           6.7308   75.6796   22.9934 C.ar    1  UNL1        0.0846
     12 N           5.8282   75.3981   21.9122 N.pl3   1  UNL1       -0.3017
     13 C           5.3462   76.4827   21.0529 C.3     1  UNL1        0.1124
     14 C           3.8389   76.3343   20.8335 C.3     1  UNL1        0.1136
     15 N           3.4752   74.9590   20.4441 N.pl3   1  UNL1       -0.2897
     16 C           4.5061   73.9072   20.4283 C.3     1  UNL1        0.1136
     17 C           5.4133   74.0126   21.6611 C.3     1  UNL1        0.1124
     18 C           2.1603   74.6789   19.9098 C.ar    1  UNL1        0.1318
     19 C           1.4511   75.6378   19.1645 C.ar    1  UNL1        0.0343
     20 C           0.1854   75.3275   18.6645 C.ar    1  UNL1        0.0083
     21 C          -0.3886   74.0739   18.9196 C.ar    1  UNL1        0.0906
     22 C           0.3586   73.1355   19.6466 C.ar    1  UNL1        0.1041
     23 N           1.5902   73.4590   20.1214 N.ar    1  UNL1       -0.2292
     24 C          -1.7329   73.7096   18.3429 C.3     1  UNL1        0.4200
     25 F          -1.9221   74.3270   17.1186 F       1  UNL1       -0.1658
     26 F          -1.7985   72.3395   18.1715 F       1  UNL1       -0.1658
     27 F          -2.7521   74.1075   19.1906 F       1  UNL1       -0.1658
     28 C           4.0875   76.6875   25.2871 C.3     1  UNL1        0.2525
     29 O           4.8572   75.7704   24.5172 O.3     1  UNL1       -0.4702
     30 C           9.9469   77.6983   28.4065 C.3     1  UNL1        0.1535
     31 C           9.7792   79.1169   28.8884 C.2     1  UNL1        0.2443
     32 O           9.2285   79.9660   28.1357 O.2     1  UNL1       -0.2730
     33 N          10.1424   79.4595   30.2364 N.am    1  UNL1       -0.2825
     34 H          10.4664   78.6871   30.8618 H       1  UNL1        0.1549
     35 C           9.8374   80.7230   30.8475 C.ar    1  UNL1        0.0535
     36 C           9.1388   80.7489   32.0619 C.ar    1  UNL1        0.0353
     37 C           8.8385   81.9745   32.6599 C.ar    1  UNL1        0.1002
     38 N           9.2409   83.1344   32.0764 N.ar    1  UNL1       -0.2422
     39 C           9.9399   83.1396   30.9104 C.ar    1  UNL1        0.1002
     40 C          10.2571   81.9354   30.2767 C.ar    1  UNL1        0.0353
     41 C           9.5981   76.6986   29.5258 C.3     1  UNL1        0.0569
     42 C           8.1113   76.5606   29.7026 C.ar    1  UNL1       -0.0017
     43 C           7.2587   77.5041   30.2679 C.ar    1  UNL1        0.0681
     44 N           5.9702   77.1130   30.1416 N.ar    1  UNL1       -0.3523
     45 C           6.0002   75.9384   29.4888 C.ar    1  UNL1        0.0563
     46 C           4.9097   75.1699   29.0836 C.ar    1  UNL1        0.0170
     47 C           5.1681   73.9890   28.3640 C.ar    1  UNL1        0.0015
     48 C           6.4952   73.6083   28.0666 C.ar    1  UNL1        0.0001
     49 C           7.5761   74.4039   28.4870 C.ar    1  UNL1        0.0012
     50 C           7.2893   75.5679   29.2020 C.ar    1  UNL1        0.0131
     51 H           5.1246   77.6361   30.4604 H       1  UNL1        0.1660
@<TRIPOS>BOND
     1    28    29    1
     2    29     5    1
     3     5     6   ar
     4     6     7   ar
     5     7     1    1
     6     1     2    2
     7     1     3   am
     8     3    30    1
     9    30    41    1
    10    41    42    1
    11    42    43   ar
    12    43    44   ar
    13    44    45   ar
    14    45    46   ar
    15    46    47   ar
    16    47    48   ar
    17    48    49   ar
    18    49    50   ar
    19    30    31    1
    20    31    32    2
    21    31    33   am
    22    33    35    1
    23    35    36   ar
    24    36    37   ar
    25    37    38   ar
    26    38    39   ar
    27    39    40   ar
    28     7     8   ar
    29     8     9    1
    30     8    10   ar
    31    10    11   ar
    32    11    12    1
    33    12    13    1
    34    13    14    1
    35    14    15    1
    36    15    18    1
    37    18    19   ar
    38    19    20   ar
    39    20    21   ar
    40    21    24    1
    41    24    25    1
    42    24    26    1
    43    24    27    1
    44    21    22   ar
    45    22    23   ar
    46    15    16    1
    47    16    17    1
    48    11     5   ar
    49    17    12    1
    50    50    42   ar
    51    40    35   ar
    52    23    18   ar
    53    50    45   ar
    54     3     4    1
    55    44    51    1
    56    33    34    1
@<TRIPOS>MOLECULE
*****
 51 56 0 0 0
SMALL
GASTEIGER

@<TRIPOS>ATOM
      1 C           7.8922   75.6667   23.9254 C.2     1  UNL1        0.2484
      2 O           7.4749   74.9576   24.8820 O.2     1  UNL1       -0.2701
      3 N           7.4567   75.3842   22.5860 N.am    1  UNL1       -0.2945
      4 H           7.6114   76.1045   21.8443 H       1  UNL1        0.1501
      5 C          10.3038   77.9574   25.7529 C.ar    1  UNL1        0.1522
      6 C           9.4414   76.8847   25.4541 C.ar    1  UNL1        0.0449
      7 C           8.7985   76.8033   24.2070 C.ar    1  UNL1        0.0839
      8 C           9.0465   77.7971   23.2424 C.ar    1  UNL1        0.1459
      9 F           8.5048   77.7184   22.0007 F       1  UNL1       -0.2040
     10 C           9.9045   78.8595   23.5335 C.ar    1  UNL1        0.0474
     11 C          10.5357   78.9459   24.7808 C.ar    1  UNL1        0.0846
     12 N          11.4186   80.0443   25.0587 N.pl3   1  UNL1       -0.3017
     13 C          10.9145   81.2424   25.7349 C.3     1  UNL1        0.1124
     14 C          11.4391   82.4929   25.0254 C.3     1  UNL1        0.1136
     15 N          12.8930   82.4186   24.7891 N.pl3   1  UNL1       -0.2897
     16 C          13.6252   81.1842   25.1203 C.3     1  UNL1        0.1136
     17 C          12.8338   79.9452   24.6818 C.3     1  UNL1        0.1124
     18 C          13.6279   83.6037   24.4039 C.ar    1  UNL1        0.1318
     19 C          13.7497   84.7057   25.2692 C.ar    1  UNL1        0.0343
     20 C          14.4690   85.8299   24.8605 C.ar    1  UNL1        0.0083
     21 C          15.0515   85.8726   23.5857 C.ar    1  UNL1        0.0906
     22 C          14.9285   84.7454   22.7599 C.ar    1  UNL1        0.1041
     23 N          14.2255   83.6610   23.1801 N.ar    1  UNL1       -0.2292
     24 C          15.8725   87.0602   23.1525 C.3     1  UNL1        0.4200
     25 F          16.1198   87.0120   21.7913 F       1  UNL1       -0.1658
     26 F          15.1820   88.2217   23.4440 F       1  UNL1       -0.1658
     27 F          17.0887   87.0804   23.8130 F       1  UNL1       -0.1658
     28 C          10.2862   77.8985   28.2566 C.3     1  UNL1        0.2525
     29 O          10.9335   78.0807   27.0020 O.3     1  UNL1       -0.4702
     30 C           6.6423   74.2080   22.2672 C.3     1  UNL1        0.1535
     31 C           5.2979   74.6424   21.7411 C.2     1  UNL1        0.2443
     32 O           4.4974   75.2442   22.5079 O.2     1  UNL1       -0.2730
     33 N           4.9878   74.4697   20.3481 N.am    1  UNL1       -0.2825
     34 H           5.7392   74.0905   19.7282 H       1  UNL1        0.1549
     35 C           3.8252   75.0272   19.7153 C.ar    1  UNL1        0.0535
     36 C           3.9854   75.9502   18.6731 C.ar    1  UNL1        0.0353
     37 C           2.8586   76.4963   18.0550 C.ar    1  UNL1        0.1002
     38 N           1.6141   76.1176   18.4492 N.ar    1  UNL1       -0.2422
     39 C           1.4279   75.2072   19.4417 C.ar    1  UNL1        0.1002
     40 C           2.5284   74.6400   20.0894 C.ar    1  UNL1        0.0353
     41 C           7.3696   73.3228   21.2370 C.3     1  UNL1        0.0569
     42 C           8.5607   72.6326   21.8415 C.ar    1  UNL1       -0.0017
     43 C           8.6717   71.2730   22.1173 C.ar    1  UNL1        0.0681
     44 N           9.9255   70.9744   22.5270 N.ar    1  UNL1       -0.3523
     45 C          10.6114   72.1301   22.4986 C.ar    1  UNL1        0.0563
     46 C          11.9617   72.3174   22.7909 C.ar    1  UNL1        0.0170
     47 C          12.4921   73.6126   22.6483 C.ar    1  UNL1        0.0015
     48 C          11.6711   74.6787   22.2193 C.ar    1  UNL1        0.0001
     49 C          10.3122   74.4600   21.9302 C.ar    1  UNL1        0.0012
     50 C           9.8133   73.1656   22.0840 C.ar    1  UNL1        0.0131
     51 H          10.2908   70.0301   22.7827 H       1  UNL1        0.1660
@<TRIPOS>BOND
     1    28    29    1
     2    29     5    1
     3     5     6   ar
     4     6     7   ar
     5     7     1    1
     6     1     2    2
     7     1     3   am
     8     3    30    1
     9    30    41    1
    10    41    42    1
    11    42    43   ar
    12    43    44   ar
    13    44    45   ar
    14    45    46   ar
    15    46    47   ar
    16    47    48   ar
    17    48    49   ar
    18    49    50   ar
    19    30    31    1
    20    31    32    2
    21    31    33   am
    22    33    35    1
    23    35    36   ar
    24    36    37   ar
    25    37    38   ar
    26    38    39   ar
    27    39    40   ar
    28     7     8   ar
    29     8     9    1
    30     8    10   ar
    31    10    11   ar
    32    11    12    1
    33    12    13    1
    34    13    14    1
    35    14    15    1
    36    15    18    1
    37    18    19   ar
    38    19    20   ar
    39    20    21   ar
    40    21    24    1
    41    24    25    1
    42    24    26    1
    43    24    27    1
    44    21    22   ar
    45    22    23   ar
    46    15    16    1
    47    16    17    1
    48    11     5   ar
    49    17    12    1
    50    50    42   ar
    51    40    35   ar
    52    23    18   ar
    53    50    45   ar
    54     3     4    1
    55    44    51    1
    56    33    34    1
@<TRIPOS>MOLECULE
*****
 51 56 0 0 0
SMALL
GASTEIGER

@<TRIPOS>ATOM
      1 C           7.9956   75.8652   24.1301 C.2     1  UNL1        0.2484
      2 O           7.6945   75.1048   25.0909 O.2     1  UNL1       -0.2701
      3 N           7.4208   75.6371   22.8335 N.am    1  UNL1       -0.2945
      4 H           7.4842   76.3937   22.1150 H       1  UNL1        0.1501
      5 C          10.2538   78.3336   25.9218 C.ar    1  UNL1        0.1522
      6 C           9.3866   77.2539   25.6655 C.ar    1  UNL1        0.0449
      7 C           8.9118   77.0042   24.3664 C.ar    1  UNL1        0.0839
      8 C           9.3348   77.8334   23.3115 C.ar    1  UNL1        0.1459
      9 F           8.9597   77.5842   22.0313 F       1  UNL1       -0.2040
     10 C          10.1982   78.9019   23.5611 C.ar    1  UNL1        0.0474
     11 C          10.6617   79.1569   24.8581 C.ar    1  UNL1        0.0846
     12 N          11.5532   80.2582   25.0931 N.pl3   1  UNL1       -0.3017
     13 C          11.0550   81.4920   25.7067 C.3     1  UNL1        0.1124
     14 C          11.5998   82.7022   24.9447 C.3     1  UNL1        0.1136
     15 N          13.0552   82.6023   24.7273 N.pl3   1  UNL1       -0.2897
     16 C          13.7709   81.3776   25.1239 C.3     1  UNL1        0.1136
     17 C          12.9710   80.1273   24.7361 C.3     1  UNL1        0.1124
     18 C          13.8063   83.7605   24.2944 C.ar    1  UNL1        0.1318
     19 C          13.8964   84.9165   25.0901 C.ar    1  UNL1        0.0343
     20 C          14.6328   86.0124   24.6371 C.ar    1  UNL1        0.0083
     21 C          15.2641   85.9724   23.3857 C.ar    1  UNL1        0.0906
     22 C          15.1712   84.7938   22.6310 C.ar    1  UNL1        0.1041
     23 N          14.4507   83.7384   23.0934 N.ar    1  UNL1       -0.2292
     24 C          16.1031   87.1301   22.9081 C.3     1  UNL1        0.4200
     25 F          17.3597   87.0938   23.4877 F       1  UNL1       -0.1658
     26 F          16.2384   87.0579   21.5343 F       1  UNL1       -0.1658
     27 F          15.5077   88.3347   23.2402 F       1  UNL1       -0.1658
     28 C          10.1230   78.1445   28.4157 C.3     1  UNL1        0.2525
     29 O          10.7173   78.6253   27.2149 O.3     1  UNL1       -0.4702
     30 C           6.5925   74.4620   22.5483 C.3     1  UNL1        0.1535
     31 C           5.1848   74.8933   22.2241 C.2     1  UNL1        0.2443
     32 O           4.3483   74.0345   21.8318 O.2     1  UNL1       -0.2730
     33 N           4.7797   76.2499   22.4729 N.am    1  UNL1       -0.2825
     34 H           5.4731   76.8868   22.9271 H       1  UNL1        0.1549
     35 C           3.4199   76.7042   22.3870 C.ar    1  UNL1        0.0535
     36 C           2.8229   77.3034   23.5042 C.ar    1  UNL1        0.0353
     37 C           1.5008   77.7460   23.4267 C.ar    1  UNL1        0.1002
     38 N           0.8049   77.6145   22.2665 N.ar    1  UNL1       -0.2422
     39 C           1.3649   77.0582   21.1596 C.ar    1  UNL1        0.1002
     40 C           2.6838   76.5983   21.1959 C.ar    1  UNL1        0.0353
     41 C           7.1972   73.6572   21.3819 C.3     1  UNL1        0.0569
     42 C           8.3591   72.8158   21.8323 C.ar    1  UNL1       -0.0017
     43 C           8.3738   71.4293   21.9511 C.ar    1  UNL1        0.0681
     44 N           9.6194   70.9932   22.2468 N.ar    1  UNL1       -0.3523
     45 C          10.3945   72.0901   22.3015 C.ar    1  UNL1        0.0563
     46 C          11.7693   72.1416   22.5275 C.ar    1  UNL1        0.0170
     47 C          12.3947   73.4013   22.4938 C.ar    1  UNL1        0.0015
     48 C          11.6413   74.5676   22.2353 C.ar    1  UNL1        0.0001
     49 C          10.2555   74.4853   22.0096 C.ar    1  UNL1        0.0012
     50 C           9.6620   73.2227   22.0526 C.ar    1  UNL1        0.0131
     51 H           9.9200   70.0014   22.3750 H       1  UNL1        0.1660
@<TRIPOS>BOND
     1    28    29    1
     2    29     5    1
     3     5     6   ar
     4     6     7   ar
     5     7     1    1
     6     1     2    2
     7     1     3   am
     8     3    30    1
     9    30    41    1
    10    41    42    1
    11    42    43   ar
    12    43    44   ar
    13    44    45   ar
    14    45    46   ar
    15    46    47   ar
    16    47    48   ar
    17    48    49   ar
    18    49    50   ar
    19    30    31    1
    20    31    32    2
    21    31    33   am
    22    33    35    1
    23    35    36   ar
    24    36    37   ar
    25    37    38   ar
    26    38    39   ar
    27    39    40   ar
    28     7     8   ar
    29     8     9    1
    30     8    10   ar
    31    10    11   ar
    32    11    12    1
    33    12    13    1
    34    13    14    1
    35    14    15    1
    36    15    18    1
    37    18    19   ar
    38    19    20   ar
    39    20    21   ar
    40    21    24    1
    41    24    25    1
    42    24    26    1
    43    24    27    1
    44    21    22   ar
    45    22    23   ar
    46    15    16    1
    47    16    17    1
    48    11     5   ar
    49    17    12    1
    50    50    42   ar
    51    40    35   ar
    52    23    18   ar
    53    50    45   ar
    54     3     4    1
    55    44    51    1
    56    33    34    1
@<TRIPOS>MOLECULE
*****
 51 56 0 0 0
SMALL
GASTEIGER

@<TRIPOS>ATOM
      1 C          13.5245   82.8129   24.8316 C.2     1  UNL1        0.2484
      2 O          14.0151   83.4065   25.8311 O.2     1  UNL1       -0.2701
      3 N          13.7355   83.3433   23.5134 N.am    1  UNL1       -0.2945
      4 H          13.5359   82.7337   22.6880 H       1  UNL1        0.1501
      5 C          12.7523   79.1147   25.1917 C.ar    1  UNL1        0.1522
      6 C          13.4467   80.3263   25.0089 C.ar    1  UNL1        0.0449
      7 C          12.7675   81.5565   25.0340 C.ar    1  UNL1        0.0839
      8 C          11.3807   81.5685   25.2713 C.ar    1  UNL1        0.1459
      9 F          10.6984   82.7368   25.3767 F       1  UNL1       -0.2040
     10 C          10.6899   80.3695   25.4576 C.ar    1  UNL1        0.0474
     11 C          11.3658   79.1433   25.4210 C.ar    1  UNL1        0.0846
     12 N          10.6375   77.9214   25.6198 N.pl3   1  UNL1       -0.3017
     13 C           9.6676   77.4700   24.6186 C.3     1  UNL1        0.1124
     14 C           8.3870   77.0049   25.3157 C.3     1  UNL1        0.1136
     15 N           8.6747   76.0852   26.4322 N.pl3   1  UNL1       -0.2897
     16 C          10.0707   75.8217   26.8208 C.3     1  UNL1        0.1136
     17 C          10.8917   77.1177   26.8216 C.3     1  UNL1        0.1124
     18 C           7.6087   75.3087   27.0269 C.ar    1  UNL1        0.1318
     19 C           6.8444   74.4067   26.2652 C.ar    1  UNL1        0.0343
     20 C           5.8257   73.6746   26.8772 C.ar    1  UNL1        0.0083
     21 C           5.5488   73.8501   28.2405 C.ar    1  UNL1        0.0906
     22 C           6.3476   74.7410   28.9724 C.ar    1  UNL1        0.1041
     23 N           7.3356   75.4413   28.3558 N.ar    1  UNL1       -0.2292
     24 C           4.4849   73.0289   28.9232 C.3     1  UNL1        0.4200
     25 F           3.2246   73.4134   28.4989 F       1  UNL1       -0.1658
     26 F           4.6749   71.6940   28.6187 F       1  UNL1       -0.1658
     27 F           4.5480   73.1919   30.2962 F       1  UNL1       -0.1658
     28 C          14.3156   77.4760   24.1226 C.3     1  UNL1        0.2525
     29 O          13.4004   77.8700   25.1392 O.3     1  UNL1       -0.4702
     30 C          14.3931   84.6346   23.2933 C.3     1  UNL1        0.1535
     31 C          14.7103   84.8056   21.8294 C.2     1  UNL1        0.2443
     32 O          15.5385   84.0289   21.2800 O.2     1  UNL1       -0.2730
     33 N          13.9853   85.7725   21.0510 N.am    1  UNL1       -0.2825
     34 H          13.2137   86.2950   21.5246 H       1  UNL1        0.1549
     35 C          14.0718   85.8710   19.6208 C.ar    1  UNL1        0.0535
     36 C          13.8691   87.1125   19.0033 C.ar    1  UNL1        0.0353
     37 C          13.9509   87.2140   17.6130 C.ar    1  UNL1        0.1002
     38 N          14.2464   86.1176   16.8659 N.ar    1  UNL1       -0.2422
     39 C          14.4706   84.9051   17.4385 C.ar    1  UNL1        0.1002
     40 C          14.3940   84.7592   18.8260 C.ar    1  UNL1        0.0353
     41 C          13.4921   85.7805   23.7922 C.3     1  UNL1        0.0569
     42 C          14.3001   86.9145   24.3596 C.ar    1  UNL1       -0.0017
     43 C          14.7585   88.0281   23.6620 C.ar    1  UNL1        0.0681
     44 N          15.3304   88.9141   24.5088 N.ar    1  UNL1       -0.3523
     45 C          15.2244   88.3771   25.7365 C.ar    1  UNL1        0.0563
     46 C          15.6279   88.9456   26.9440 C.ar    1  UNL1        0.0170
     47 C          15.3753   88.2266   28.1265 C.ar    1  UNL1        0.0015
     48 C          14.7302   86.9712   28.0766 C.ar    1  UNL1        0.0001
     49 C          14.3331   86.4226   26.8440 C.ar    1  UNL1        0.0012
     50 C          14.5999   87.1570   25.6875 C.ar    1  UNL1        0.0131
     51 H          15.7418   89.8408   24.2589 H       1  UNL1        0.1660
@<TRIPOS>BOND
     1    28    29    1
     2    29     5    1
     3     5     6   ar
     4     6     7   ar
     5     7     1    1
     6     1     2    2
     7     1     3   am
     8     3    30    1
     9    30    41    1
    10    41    42    1
    11    42    43   ar
    12    43    44   ar
    13    44    45   ar
    14    45    46   ar
    15    46    47   ar
    16    47    48   ar
    17    48    49   ar
    18    49    50   ar
    19    30    31    1
    20    31    32    2
    21    31    33   am
    22    33    35    1
    23    35    36   ar
    24    36    37   ar
    25    37    38   ar
    26    38    39   ar
    27    39    40   ar
    28     7     8   ar
    29     8     9    1
    30     8    10   ar
    31    10    11   ar
    32    11    12    1
    33    12    13    1
    34    13    14    1
    35    14    15    1
    36    15    18    1
    37    18    19   ar
    38    19    20   ar
    39    20    21   ar
    40    21    24    1
    41    24    25    1
    42    24    26    1
    43    24    27    1
    44    21    22   ar
    45    22    23   ar
    46    15    16    1
    47    16    17    1
    48    11     5   ar
    49    17    12    1
    50    50    42   ar
    51    40    35   ar
    52    23    18   ar
    53    50    45   ar
    54     3     4    1
    55    44    51    1
    56    33    34    1
@<TRIPOS>MOLECULE
*****
 51 56 0 0 0
SMALL
GASTEIGER

@<TRIPOS>ATOM
      1 C          13.4565   82.9488   24.8381 C.2     1  UNL1        0.2484
      2 O          13.9909   83.5259   25.8247 O.2     1  UNL1       -0.2701
      3 N          13.5804   83.5197   23.5257 N.am    1  UNL1       -0.2945
      4 H          13.3467   82.9284   22.6959 H       1  UNL1        0.1501
      5 C          12.8019   79.2314   25.2317 C.ar    1  UNL1        0.1522
      6 C          13.4581   80.4631   25.0421 C.ar    1  UNL1        0.0449
      7 C          12.7390   81.6706   25.0471 C.ar    1  UNL1        0.0839
      8 C          11.3503   81.6397   25.2711 C.ar    1  UNL1        0.1459
      9 F          10.6292   82.7862   25.3571 F       1  UNL1       -0.2040
     10 C          10.6971   80.4208   25.4641 C.ar    1  UNL1        0.0474
     11 C          11.4130   79.2171   25.4474 C.ar    1  UNL1        0.0846
     12 N          10.7231   77.9742   25.6529 N.pl3   1  UNL1       -0.3017
     13 C           9.7660   77.4887   24.6553 C.3     1  UNL1        0.1124
     14 C           8.5014   76.9875   25.3566 C.3     1  UNL1        0.1136
     15 N           8.8191   76.0820   26.4766 N.pl3   1  UNL1       -0.2897
     16 C          10.2232   75.8633   26.8639 C.3     1  UNL1        0.1136
     17 C          11.0038   77.1840   26.8577 C.3     1  UNL1        0.1124
     18 C           7.7785   75.2756   27.0765 C.ar    1  UNL1        0.1318
     19 C           7.8312   74.8972   28.4300 C.ar    1  UNL1        0.0343
     20 C           6.8060   74.1200   28.9714 C.ar    1  UNL1        0.0083
     21 C           5.7370   73.6990   28.1676 C.ar    1  UNL1        0.0906
     22 C           5.7071   74.1157   26.8286 C.ar    1  UNL1        0.1041
     23 N           6.7152   74.8744   26.3238 N.ar    1  UNL1       -0.2292
     24 C           4.5993   72.9020   28.7530 C.3     1  UNL1        0.4200
     25 F           3.3855   73.3515   28.2623 F       1  UNL1       -0.1658
     26 F           4.7560   71.5704   28.4166 F       1  UNL1       -0.1658
     27 F           4.5792   73.0197   30.1320 F       1  UNL1       -0.1658
     28 C          14.7057   77.7817   24.4927 C.3     1  UNL1        0.2525
     29 O          13.4908   78.0082   25.1990 O.3     1  UNL1       -0.4702
     30 C          14.1970   84.8310   23.3055 C.3     1  UNL1        0.1535
     31 C          14.8156   84.8827   21.9317 C.2     1  UNL1        0.2443
     32 O          16.0588   84.7118   21.8050 O.2     1  UNL1       -0.2730
     33 N          13.9724   85.0114   20.7746 N.am    1  UNL1       -0.2825
     34 H          12.9382   85.0116   20.9267 H       1  UNL1        0.1549
     35 C          14.4436   84.8700   19.4252 C.ar    1  UNL1        0.0535
     36 C          13.9925   85.7610   18.4422 C.ar    1  UNL1        0.0353
     37 C          14.4465   85.6275   17.1284 C.ar    1  UNL1        0.1002
     38 N          15.3373   84.6511   16.8110 N.ar    1  UNL1       -0.2422
     39 C          15.8101   83.7867   17.7478 C.ar    1  UNL1        0.1002
     40 C          15.3779   83.8827   19.0731 C.ar    1  UNL1        0.0353
     41 C          13.1463   85.9457   23.4715 C.3     1  UNL1        0.0569
     42 C          13.5314   87.1877   22.7166 C.ar    1  UNL1       -0.0017
     43 C          14.6903   87.9361   22.9001 C.ar    1  UNL1        0.0681
     44 N          14.7814   88.9047   21.9607 N.ar    1  UNL1       -0.3523
     45 C          13.6984   88.7658   21.1767 C.ar    1  UNL1        0.0563
     46 C          13.3783   89.5076   20.0404 C.ar    1  UNL1        0.0170
     47 C          12.2121   89.1598   19.3347 C.ar    1  UNL1        0.0015
     48 C          11.4025   88.0891   19.7740 C.ar    1  UNL1        0.0001
     49 C          11.7507   87.3573   20.9234 C.ar    1  UNL1        0.0012
     50 C          12.9113   87.7274   21.6049 C.ar    1  UNL1        0.0131
     51 H          15.5545   89.5982   21.8515 H       1  UNL1        0.1660
@<TRIPOS>BOND
     1    28    29    1
     2    29     5    1
     3     5     6   ar
     4     6     7   ar
     5     7     1    1
     6     1     2    2
     7     1     3   am
     8     3    30    1
     9    30    41    1
    10    41    42    1
    11    42    43   ar
    12    43    44   ar
    13    44    45   ar
    14    45    46   ar
    15    46    47   ar
    16    47    48   ar
    17    48    49   ar
    18    49    50   ar
    19    30    31    1
    20    31    32    2
    21    31    33   am
    22    33    35    1
    23    35    36   ar
    24    36    37   ar
    25    37    38   ar
    26    38    39   ar
    27    39    40   ar
    28     7     8   ar
    29     8     9    1
    30     8    10   ar
    31    10    11   ar
    32    11    12    1
    33    12    13    1
    34    13    14    1
    35    14    15    1
    36    15    18    1
    37    18    19   ar
    38    19    20   ar
    39    20    21   ar
    40    21    24    1
    41    24    25    1
    42    24    26    1
    43    24    27    1
    44    21    22   ar
    45    22    23   ar
    46    15    16    1
    47    16    17    1
    48    11     5   ar
    49    17    12    1
    50    50    42   ar
    51    40    35   ar
    52    23    18   ar
    53    50    45   ar
    54     3     4    1
    55    44    51    1
    56    33    34    1
@<TRIPOS>MOLECULE
*****
 51 56 0 0 0
SMALL
GASTEIGER

@<TRIPOS>ATOM
      1 C           9.8408   75.8545   25.4756 C.2     1  UNL1        0.2484
      2 O          10.4782   74.8041   25.7625 O.2     1  UNL1       -0.2701
      3 N          10.1725   77.0902   26.1286 N.am    1  UNL1       -0.2945
      4 H           9.8131   77.9849   25.7247 H       1  UNL1        0.1501
      5 C           8.0194   76.3600   22.1847 C.ar    1  UNL1        0.1522
      6 C           9.0098   76.3897   23.1857 C.ar    1  UNL1        0.0449
      7 C           8.7825   75.8007   24.4414 C.ar    1  UNL1        0.0839
      8 C           7.5568   75.1532   24.6824 C.ar    1  UNL1        0.1459
      9 F           7.3239   74.5085   25.8536 F       1  UNL1       -0.2040
     10 C           6.5745   75.1178   23.6907 C.ar    1  UNL1        0.0474
     11 C           6.7976   75.7151   22.4436 C.ar    1  UNL1        0.0846
     12 N           5.7761   75.6634   21.4353 N.pl3   1  UNL1       -0.3017
     13 C           4.9461   76.8404   21.1656 C.3     1  UNL1        0.1124
     14 C           3.4795   76.4197   21.0471 C.3     1  UNL1        0.1136
     15 N           3.3130   75.2623   20.1482 N.pl3   1  UNL1       -0.2897
     16 C           4.5008   74.5925   19.5915 C.3     1  UNL1        0.1136
     17 C           5.5883   74.4302   20.6615 C.3     1  UNL1        0.1124
     18 C           1.9971   74.8957   19.6719 C.ar    1  UNL1        0.1318
     19 C           1.1611   75.8289   19.0332 C.ar    1  UNL1        0.0343
     20 C          -0.1012   75.4348   18.5864 C.ar    1  UNL1        0.0083
     21 C          -0.5456   74.1206   18.7902 C.ar    1  UNL1        0.0906
     22 C           0.3252   73.2122   19.4099 C.ar    1  UNL1        0.1041
     23 N           1.5508   73.6180   19.8344 N.ar    1  UNL1       -0.2292
     24 C          -1.8860   73.6701   18.2679 C.3     1  UNL1        0.4200
     25 F          -1.9413   72.2890   18.1927 F       1  UNL1       -0.1658
     26 F          -2.8794   74.1151   19.1198 F       1  UNL1       -0.1658
     27 F          -2.1142   74.1821   17.0023 F       1  UNL1       -0.1658
     28 C           8.6269   78.3153   20.7424 C.3     1  UNL1        0.2525
     29 O           8.2076   76.9684   20.9331 O.3     1  UNL1       -0.4702
     30 C          11.1440   77.1518   27.2245 C.3     1  UNL1        0.1535
     31 C          12.4993   77.5357   26.6874 C.2     1  UNL1        0.2443
     32 O          13.5371   77.1560   27.2954 O.2     1  UNL1       -0.2730
     33 N          12.5983   78.2296   25.4324 N.am    1  UNL1       -0.2825
     34 H          11.7138   78.3995   24.9019 H       1  UNL1        0.1549
     35 C          13.8381   78.4601   24.7447 C.ar    1  UNL1        0.0535
     36 C          14.3289   77.4850   23.8662 C.ar    1  UNL1        0.0353
     37 C          15.5342   77.7033   23.1958 C.ar    1  UNL1        0.1002
     38 N          16.2157   78.8649   23.3796 N.ar    1  UNL1       -0.2422
     39 C          15.7527   79.8386   24.2078 C.ar    1  UNL1        0.1002
     40 C          14.5531   79.6584   24.9012 C.ar    1  UNL1        0.0353
     41 C          10.6762   78.1596   28.2919 C.3     1  UNL1        0.0569
     42 C           9.3810   77.7344   28.9263 C.ar    1  UNL1       -0.0017
     43 C           8.2748   78.5454   29.1617 C.ar    1  UNL1        0.0681
     44 N           7.2364   77.8083   29.6173 N.ar    1  UNL1       -0.3523
     45 C           7.6719   76.5372   29.6579 C.ar    1  UNL1        0.0563
     46 C           6.9407   75.4056   30.0166 C.ar    1  UNL1        0.0170
     47 C           7.5828   74.1561   29.9409 C.ar    1  UNL1        0.0015
     48 C           8.9250   74.0664   29.5108 C.ar    1  UNL1        0.0001
     49 C           9.6380   75.2249   29.1538 C.ar    1  UNL1        0.0012
     50 C           8.9761   76.4506   29.2423 C.ar    1  UNL1        0.0131
     51 H           6.2816   78.1559   29.8579 H       1  UNL1        0.1660
@<TRIPOS>BOND
     1    28    29    1
     2    29     5    1
     3     5     6   ar
     4     6     7   ar
     5     7     1    1
     6     1     2    2
     7     1     3   am
     8     3    30    1
     9    30    41    1
    10    41    42    1
    11    42    43   ar
    12    43    44   ar
    13    44    45   ar
    14    45    46   ar
    15    46    47   ar
    16    47    48   ar
    17    48    49   ar
    18    49    50   ar
    19    30    31    1
    20    31    32    2
    21    31    33   am
    22    33    35    1
    23    35    36   ar
    24    36    37   ar
    25    37    38   ar
    26    38    39   ar
    27    39    40   ar
    28     7     8   ar
    29     8     9    1
    30     8    10   ar
    31    10    11   ar
    32    11    12    1
    33    12    13    1
    34    13    14    1
    35    14    15    1
    36    15    18    1
    37    18    19   ar
    38    19    20   ar
    39    20    21   ar
    40    21    24    1
    41    24    25    1
    42    24    26    1
    43    24    27    1
    44    21    22   ar
    45    22    23   ar
    46    15    16    1
    47    16    17    1
    48    11     5   ar
    49    17    12    1
    50    50    42   ar
    51    40    35   ar
    52    23    18   ar
    53    50    45   ar
    54     3     4    1
    55    44    51    1
    56    33    34    1
@<TRIPOS>MOLECULE
*****
 51 56 0 0 0
SMALL
GASTEIGER

@<TRIPOS>ATOM
      1 C           9.7784   76.1797   25.4805 C.2     1  UNL1        0.2484
      2 O          10.5871   75.2718   25.8175 O.2     1  UNL1       -0.2701
      3 N           9.8690   77.4771   26.0906 N.am    1  UNL1       -0.2945
      4 H           9.3642   78.2779   25.6470 H       1  UNL1        0.1501
      5 C           6.4223   75.6575   23.7876 C.ar    1  UNL1        0.1522
      6 C           7.4038   75.9256   24.7614 C.ar    1  UNL1        0.0449
      7 C           8.7701   75.9004   24.4328 C.ar    1  UNL1        0.0839
      8 C           9.1505   75.6284   23.1059 C.ar    1  UNL1        0.1459
      9 F          10.4537   75.6663   22.7292 F       1  UNL1       -0.2040
     10 C           8.1799   75.3667   22.1368 C.ar    1  UNL1        0.0474
     11 C           6.8190   75.3808   22.4678 C.ar    1  UNL1        0.0846
     12 N           5.8361   75.1139   21.4552 N.pl3   1  UNL1       -0.3017
     13 C           5.4119   76.1774   20.5408 C.3     1  UNL1        0.1124
     14 C           3.8876   76.1622   20.4055 C.3     1  UNL1        0.1136
     15 N           3.3754   74.8052   20.1383 N.pl3   1  UNL1       -0.2897
     16 C           4.3003   73.6590   20.1524 C.3     1  UNL1        0.1136
     17 C           5.2795   73.7614   21.3290 C.3     1  UNL1        0.1124
     18 C           2.0126   74.6183   19.6900 C.ar    1  UNL1        0.1318
     19 C           1.2828   75.6668   19.1019 C.ar    1  UNL1        0.0343
     20 C          -0.0293   75.4451   18.6808 C.ar    1  UNL1        0.0083
     21 C          -0.6277   74.1897   18.8602 C.ar    1  UNL1        0.0906
     22 C           0.1393   73.1622   19.4290 C.ar    1  UNL1        0.1041
     23 N           1.4159   73.4007   19.8293 N.ar    1  UNL1       -0.2292
     24 C          -2.0262   73.9242   18.3642 C.3     1  UNL1        0.4200
     25 F          -2.2388   74.5481   17.1470 F       1  UNL1       -0.1658
     26 F          -2.2032   72.5620   18.2093 F       1  UNL1       -0.1658
     27 F          -2.9627   74.4014   19.2648 F       1  UNL1       -0.1658
     28 C           4.3360   76.7430   24.6487 C.3     1  UNL1        0.2525
     29 O           5.0522   75.6443   24.0956 O.3     1  UNL1       -0.4702
     30 C          10.7891   77.7506   27.1983 C.3     1  UNL1        0.1535
     31 C          12.2015   77.8465   26.6799 C.2     1  UNL1        0.2443
     32 O          13.1020   77.1320   27.1992 O.2     1  UNL1       -0.2730
     33 N          12.4852   78.6614   25.5302 N.am    1  UNL1       -0.2825
     34 H          11.6782   79.1250   25.0543 H       1  UNL1        0.1549
     35 C          13.7475   78.6613   24.8450 C.ar    1  UNL1        0.0535
     36 C          14.0886   77.5722   24.0318 C.ar    1  UNL1        0.0353
     37 C          15.3150   77.5662   23.3641 C.ar    1  UNL1        0.1002
     38 N          16.1630   78.6215   23.4868 N.ar    1  UNL1       -0.2422
     39 C          15.8493   79.7018   24.2501 C.ar    1  UNL1        0.1002
     40 C          14.6342   79.7459   24.9386 C.ar    1  UNL1        0.0353
     41 C          10.3833   79.0523   27.9157 C.3     1  UNL1        0.0569
     42 C           9.5129   78.7787   29.1109 C.ar    1  UNL1       -0.0017
     43 C           9.8518   78.9968   30.4429 C.ar    1  UNL1        0.0681
     44 N           8.7861   78.7728   31.2448 N.ar    1  UNL1       -0.3523
     45 C           7.7733   78.4295   30.4304 C.ar    1  UNL1        0.0563
     46 C           6.4560   78.1513   30.7929 C.ar    1  UNL1        0.0170
     47 C           5.5390   77.8596   29.7666 C.ar    1  UNL1        0.0015
     48 C           5.9536   77.8550   28.4166 C.ar    1  UNL1        0.0001
     49 C           7.2890   78.1407   28.0802 C.ar    1  UNL1        0.0012
     50 C           8.1768   78.4230   29.1196 C.ar    1  UNL1        0.0131
     51 H           8.7529   78.8770   32.2833 H       1  UNL1        0.1660
@<TRIPOS>BOND
     1    28    29    1
     2    29     5    1
     3     5     6   ar
     4     6     7   ar
     5     7     1    1
     6     1     2    2
     7     1     3   am
     8     3    30    1
     9    30    41    1
    10    41    42    1
    11    42    43   ar
    12    43    44   ar
    13    44    45   ar
    14    45    46   ar
    15    46    47   ar
    16    47    48   ar
    17    48    49   ar
    18    49    50   ar
    19    30    31    1
    20    31    32    2
    21    31    33   am
    22    33    35    1
    23    35    36   ar
    24    36    37   ar
    25    37    38   ar
    26    38    39   ar
    27    39    40   ar
    28     7     8   ar
    29     8     9    1
    30     8    10   ar
    31    10    11   ar
    32    11    12    1
    33    12    13    1
    34    13    14    1
    35    14    15    1
    36    15    18    1
    37    18    19   ar
    38    19    20   ar
    39    20    21   ar
    40    21    24    1
    41    24    25    1
    42    24    26    1
    43    24    27    1
    44    21    22   ar
    45    22    23   ar
    46    15    16    1
    47    16    17    1
    48    11     5   ar
    49    17    12    1
    50    50    42   ar
    51    40    35   ar
    52    23    18   ar
    53    50    45   ar
    54     3     4    1
    55    44    51    1
    56    33    34    1
@<TRIPOS>MOLECULE
*****
 51 56 0 0 0
SMALL
GASTEIGER

@<TRIPOS>ATOM
      1 C           9.9284   75.6255   25.2724 C.2     1  UNL1        0.2484
      2 O          10.5951   74.5735   25.4741 O.2     1  UNL1       -0.2701
      3 N           8.5011   75.5482   25.1295 N.am    1  UNL1       -0.2945
      4 H           7.9401   76.4274   25.2002 H       1  UNL1        0.1501
      5 C          10.8636   79.2212   26.0461 C.ar    1  UNL1        0.1522
      6 C          10.2209   77.9683   26.0760 C.ar    1  UNL1        0.0449
      7 C          10.6285   76.9292   25.2221 C.ar    1  UNL1        0.0839
      8 C          11.7100   77.1451   24.3484 C.ar    1  UNL1        0.1459
      9 F          12.1832   76.1471   23.5599 F       1  UNL1       -0.2040
     10 C          12.3525   78.3844   24.3193 C.ar    1  UNL1        0.0474
     11 C          11.9381   79.4231   25.1626 C.ar    1  UNL1        0.0846
     12 N          12.6154   80.6890   25.1207 N.pl3   1  UNL1       -0.3017
     13 C          14.0447   80.7710   25.4325 C.3     1  UNL1        0.1124
     14 C          14.3014   81.9595   26.3618 C.3     1  UNL1        0.1136
     15 N          13.6512   83.1888   25.8705 N.pl3   1  UNL1       -0.2897
     16 C          12.7765   83.1300   24.6869 C.3     1  UNL1        0.1136
     17 C          11.8691   81.8940   24.7390 C.3     1  UNL1        0.1124
     18 C          14.0069   84.4734   26.4330 C.ar    1  UNL1        0.1318
     19 C          14.2684   84.6265   27.8063 C.ar    1  UNL1        0.0343
     20 C          14.6103   85.8828   28.3095 C.ar    1  UNL1        0.0083
     21 C          14.6737   86.9937   27.4562 C.ar    1  UNL1        0.0906
     22 C          14.4293   86.7974   26.0890 C.ar    1  UNL1        0.1041
     23 N          14.1005   85.5645   25.6213 N.ar    1  UNL1       -0.2292
     24 C          15.0905   88.3447   27.9790 C.3     1  UNL1        0.4200
     25 F          14.8034   88.4554   29.3286 F       1  UNL1       -0.1658
     26 F          16.4509   88.5048   27.7932 F       1  UNL1       -0.1658
     27 F          14.4217   89.3550   27.3098 F       1  UNL1       -0.1658
     28 C           9.8450   80.1386   28.1421 C.3     1  UNL1        0.2525
     29 O          10.4559   80.2867   26.8650 O.3     1  UNL1       -0.4702
     30 C           7.7956   74.2645   25.0750 C.3     1  UNL1        0.1535
     31 C           6.6041   74.2946   25.9982 C.2     1  UNL1        0.2443
     32 O           5.4655   74.5719   25.5316 O.2     1  UNL1       -0.2730
     33 N           6.7560   73.8976   27.3714 N.am    1  UNL1       -0.2825
     34 H           7.6929   73.5455   27.6728 H       1  UNL1        0.1549
     35 C           5.6537   73.7016   28.2711 C.ar    1  UNL1        0.0535
     36 C           5.3269   74.7095   29.1882 C.ar    1  UNL1        0.0353
     37 C           4.2569   74.5239   30.0660 C.ar    1  UNL1        0.1002
     38 N           3.5243   73.3801   30.0155 N.ar    1  UNL1       -0.2422
     39 C           3.8033   72.3948   29.1213 C.ar    1  UNL1        0.1002
     40 C           4.8683   72.5384   28.2282 C.ar    1  UNL1        0.0353
     41 C           7.3565   73.9616   23.6296 C.3     1  UNL1        0.0569
     42 C           8.4520   74.2584   22.6434 C.ar    1  UNL1       -0.0017
     43 C           8.5693   75.4055   21.8643 C.ar    1  UNL1        0.0681
     44 N           9.7442   75.4041   21.1944 N.ar    1  UNL1       -0.3523
     45 C          10.3764   74.2737   21.5544 C.ar    1  UNL1        0.0563
     46 C          11.6466   73.8550   21.1604 C.ar    1  UNL1        0.0170
     47 C          12.1398   72.6530   21.6999 C.ar    1  UNL1        0.0015
     48 C          11.3625   71.9063   22.6125 C.ar    1  UNL1        0.0001
     49 C          10.0846   72.3538   22.9931 C.ar    1  UNL1        0.0012
     50 C           9.6204   73.5478   22.4390 C.ar    1  UNL1        0.0131
     51 H          10.0982   76.1478   20.5526 H       1  UNL1        0.1660
@<TRIPOS>BOND
     1    28    29    1
     2    29     5    1
     3     5     6   ar
     4     6     7   ar
     5     7     1    1
     6     1     2    2
     7     1     3   am
     8     3    30    1
     9    30    41    1
    10    41    42    1
    11    42    43   ar
    12    43    44   ar
    13    44    45   ar
    14    45    46   ar
    15    46    47   ar
    16    47    48   ar
    17    48    49   ar
    18    49    50   ar
    19    30    31    1
    20    31    32    2
    21    31    33   am
    22    33    35    1
    23    35    36   ar
    24    36    37   ar
    25    37    38   ar
    26    38    39   ar
    27    39    40   ar
    28     7     8   ar
    29     8     9    1
    30     8    10   ar
    31    10    11   ar
    32    11    12    1
    33    12    13    1
    34    13    14    1
    35    14    15    1
    36    15    18    1
    37    18    19   ar
    38    19    20   ar
    39    20    21   ar
    40    21    24    1
    41    24    25    1
    42    24    26    1
    43    24    27    1
    44    21    22   ar
    45    22    23   ar
    46    15    16    1
    47    16    17    1
    48    11     5   ar
    49    17    12    1
    50    50    42   ar
    51    40    35   ar
    52    23    18   ar
    53    50    45   ar
    54     3     4    1
    55    44    51    1
    56    33    34    1
