@<TRIPOS>MOLECULE
*****
 45 50 0 0 0
SMALL
GASTEIGER

@<TRIPOS>ATOM
      1 C          61.2303   88.4821    9.0614 C.ar    1  UNL1        0.0702
      2 C          62.2817   88.7752    9.9371 C.ar    1  UNL1        0.0191
      3 C          62.3360   88.1772   11.1967 C.ar    1  UNL1        0.0356
      4 C          61.3153   87.2957   11.5900 C.ar    1  UNL1        0.1318
      5 N          60.2904   87.0428   10.7292 N.ar    1  UNL1       -0.2279
      6 C          60.2199   87.6097    9.4958 C.ar    1  UNL1        0.1149
      7 N          61.3356   86.6526   12.8806 N.pl3   1  UNL1       -0.2932
      8 C          62.5200   86.7426   13.7459 C.3     1  UNL1        0.0923
      9 C          62.1141   86.8331   15.2223 C.3     1  UNL1        0.0252
     10 C          61.0779   85.7685   15.6376 C.3     1  UNL1        0.0472
     11 C          59.8852   85.7364   14.6599 C.3     1  UNL1        0.0252
     12 C          60.3139   85.6446   13.1916 C.3     1  UNL1        0.0923
     13 C          61.6993   84.3791   15.8887 C.3     1  UNL1        0.2054
     14 O          61.3391   83.4542   14.8675 O.3     1  UNL1       -0.4755
     15 C          62.2363   82.6067   14.2036 C.ar    1  UNL1        0.1388
     16 C          62.8569   81.5171   14.8405 C.ar    1  UNL1        0.0369
     17 C          63.7517   80.7107   14.1354 C.ar    1  UNL1        0.0033
     18 C          64.0317   80.9770   12.7933 C.ar    1  UNL1        0.0066
     19 C          63.4110   82.0536   12.1353 C.ar    1  UNL1        0.0785
     20 C          62.5192   82.8683   12.8574 C.ar    1  UNL1        0.0433
     21 C          63.7188   82.3272   10.7103 C.2     1  UNL1        0.3381
     22 O          64.5798   81.6289   10.1118 O.2     1  UNL1       -0.2451
     23 O          63.0679   83.3341    9.9979 O.3     1  UNL1       -0.4771
     24 H          62.2956   83.8626   10.3819 H       1  UNL1        0.2954
     25 C          60.0788   89.0009    6.8573 C.2     1  UNL1        0.2839
     26 O          59.0436   88.3603    7.1817 O.2     1  UNL1       -0.2665
     27 N          61.1781   89.1246    7.7770 N.am    1  UNL1       -0.2766
     28 H          62.0200   89.6661    7.4835 H       1  UNL1        0.1553
     29 C          57.6014   90.2281    5.1713 C.3     1  UNL1        0.0345
     30 C          59.0483   90.1491    4.7893 C.ar    1  UNL1        0.0202
     31 C          60.1212   89.6351    5.5283 C.ar    1  UNL1        0.1946
     32 O          61.2509   89.8109    4.8658 O.2     1  UNL1       -0.4492
     33 C          60.9634   90.3898    3.7255 C.ar    1  UNL1        0.1456
     34 C          61.8469   90.7510    2.7143 C.ar    1  UNL1        0.0433
     35 C          61.3251   91.3676    1.5609 C.ar    1  UNL1        0.0331
     36 I          62.6888   91.8159   -0.0017 I       1  UNL1       -0.0424
     37 C          59.9246   91.6162    1.4525 C.ar    1  UNL1        0.0056
     38 C          59.0609   91.2244    2.4999 C.ar    1  UNL1        0.0032
     39 C          59.6187   90.6148    3.6220 C.ar    1  UNL1        0.0337
     40 C          59.3457   92.2766    0.2651 C.ar    1  UNL1        0.0004
     41 C          60.1026   93.1980   -0.4776 C.ar    1  UNL1        0.0000
     42 C          59.5420   93.8366   -1.5881 C.ar    1  UNL1        0.0000
     43 C          58.2212   93.5680   -1.9578 C.ar    1  UNL1        0.0000
     44 C          57.4573   92.6637   -1.2149 C.ar    1  UNL1        0.0000
     45 C          58.0143   92.0229   -0.1037 C.ar    1  UNL1        0.0000
@<TRIPOS>BOND
     1    29    30    1
     2    30    31   ar
     3    31    25    1
     4    25    26    2
     5    25    27   am
     6    27     1    1
     7     1     2   ar
     8     2     3   ar
     9     3     4   ar
    10     4     7    1
    11     7     8    1
    12     8     9    1
    13     9    10    1
    14    10    13    1
    15    13    14    1
    16    14    15    1
    17    15    16   ar
    18    16    17   ar
    19    17    18   ar
    20    18    19   ar
    21    19    21    1
    22    21    22    2
    23    21    23    1
    24    19    20   ar
    25    10    11    1
    26    11    12    1
    27     4     5   ar
    28     5     6   ar
    29    31    32   ar
    30    32    33   ar
    31    33    34   ar
    32    34    35   ar
    33    35    36    1
    34    35    37   ar
    35    37    40    1
    36    40    41   ar
    37    41    42   ar
    38    42    43   ar
    39    43    44   ar
    40    44    45   ar
    41    37    38   ar
    42    38    39   ar
    43    39    30   ar
    44     6     1   ar
    45    39    33   ar
    46    12     7    1
    47    45    40   ar
    48    20    15   ar
    49    27    28    1
    50    23    24    1
@<TRIPOS>MOLECULE
*****
 45 50 0 0 0
SMALL
GASTEIGER

@<TRIPOS>ATOM
      1 C          61.2124   88.2747    8.9630 C.ar    1  UNL1        0.0702
      2 C          60.4726   87.0979    9.1254 C.ar    1  UNL1        0.0191
      3 C          60.4830   86.4230   10.3467 C.ar    1  UNL1        0.0356
      4 C          61.2596   86.9200   11.4066 C.ar    1  UNL1        0.1318
      5 N          61.9888   88.0550   11.2181 N.ar    1  UNL1       -0.2279
      6 C          61.9896   88.7314   10.0391 C.ar    1  UNL1        0.1149
      7 N          61.2945   86.2563   12.6865 N.pl3   1  UNL1       -0.2932
      8 C          60.5484   86.7949   13.8322 C.3     1  UNL1        0.0923
      9 C          59.9809   85.6626   14.6975 C.3     1  UNL1        0.0252
     10 C          61.0215   84.5779   15.0439 C.3     1  UNL1        0.0472
     11 C          61.7647   84.0915   13.7827 C.3     1  UNL1        0.0252
     12 C          62.3240   85.2387   12.9346 C.3     1  UNL1        0.0923
     13 C          61.9683   84.9864   16.1911 C.3     1  UNL1        0.2054
     14 O          63.1178   85.6692   15.7010 O.3     1  UNL1       -0.4755
     15 C          63.2529   87.0625   15.6355 C.ar    1  UNL1        0.1388
     16 C          62.7091   87.9198   16.6088 C.ar    1  UNL1        0.0369
     17 C          62.8633   89.3019   16.4895 C.ar    1  UNL1        0.0033
     18 C          63.5625   89.8410   15.4073 C.ar    1  UNL1        0.0066
     19 C          64.1251   88.9997   14.4312 C.ar    1  UNL1        0.0785
     20 C          63.9544   87.6082   14.5534 C.ar    1  UNL1        0.0433
     21 C          64.8632   89.5851   13.2854 C.2     1  UNL1        0.3381
     22 O          65.8115   90.3870   13.4972 O.2     1  UNL1       -0.2451
     23 O          64.5486   89.2616   11.9658 O.3     1  UNL1       -0.4771
     24 H          63.8720   88.5492   11.7249 H       1  UNL1        0.2954
     25 C          60.0897   88.9506    6.7868 C.2     1  UNL1        0.2839
     26 O          58.9991   88.4124    7.1158 O.2     1  UNL1       -0.2665
     27 N          61.2084   88.9440    7.6913 N.am    1  UNL1       -0.2766
     28 H          62.0970   89.4027    7.3945 H       1  UNL1        0.1553
     29 C          57.6814   90.2558    5.0598 C.3     1  UNL1        0.0345
     30 C          59.1352   90.1508    4.7119 C.ar    1  UNL1        0.0202
     31 C          60.1783   89.6028    5.4689 C.ar    1  UNL1        0.1946
     32 O          61.3275   89.7634    4.8366 O.2     1  UNL1       -0.4492
     33 C          61.0806   90.3650    3.6985 C.ar    1  UNL1        0.1456
     34 C          61.9962   90.7213    2.7146 C.ar    1  UNL1        0.0433
     35 C          61.5163   91.3658    1.5582 C.ar    1  UNL1        0.0331
     36 I          62.9273   91.8067    0.0360 I       1  UNL1       -0.0424
     37 C          60.1245   91.6464    1.4197 C.ar    1  UNL1        0.0056
     38 C          59.2271   91.2585    2.4398 C.ar    1  UNL1        0.0032
     39 C          59.7440   90.6208    3.5659 C.ar    1  UNL1        0.0337
     40 C          59.5892   92.3364    0.2286 C.ar    1  UNL1        0.0004
     41 C          60.4124   93.1797   -0.5362 C.ar    1  UNL1        0.0000
     42 C          59.8945   93.8475   -1.6503 C.ar    1  UNL1        0.0000
     43 C          58.5513   93.6864   -2.0016 C.ar    1  UNL1        0.0000
     44 C          57.7227   92.8608   -1.2367 C.ar    1  UNL1        0.0000
     45 C          58.2368   92.1911   -0.1219 C.ar    1  UNL1        0.0000
@<TRIPOS>BOND
     1    29    30    1
     2    30    31   ar
     3    31    25    1
     4    25    26    2
     5    25    27   am
     6    27     1    1
     7     1     2   ar
     8     2     3   ar
     9     3     4   ar
    10     4     7    1
    11     7     8    1
    12     8     9    1
    13     9    10    1
    14    10    13    1
    15    13    14    1
    16    14    15    1
    17    15    16   ar
    18    16    17   ar
    19    17    18   ar
    20    18    19   ar
    21    19    21    1
    22    21    22    2
    23    21    23    1
    24    19    20   ar
    25    10    11    1
    26    11    12    1
    27     4     5   ar
    28     5     6   ar
    29    31    32   ar
    30    32    33   ar
    31    33    34   ar
    32    34    35   ar
    33    35    36    1
    34    35    37   ar
    35    37    40    1
    36    40    41   ar
    37    41    42   ar
    38    42    43   ar
    39    43    44   ar
    40    44    45   ar
    41    37    38   ar
    42    38    39   ar
    43    39    30   ar
    44     6     1   ar
    45    39    33   ar
    46    12     7    1
    47    45    40   ar
    48    20    15   ar
    49    27    28    1
    50    23    24    1
@<TRIPOS>MOLECULE
*****
 45 50 0 0 0
SMALL
GASTEIGER

@<TRIPOS>ATOM
      1 C          61.1898   88.0974    8.9714 C.ar    1  UNL1        0.0702
      2 C          60.6576   86.8049    9.0404 C.ar    1  UNL1        0.0191
      3 C          60.6797   86.0981   10.2434 C.ar    1  UNL1        0.0356
      4 C          61.2610   86.6833   11.3805 C.ar    1  UNL1        0.1318
      5 N          61.7926   87.9337   11.2836 N.ar    1  UNL1       -0.2279
      6 C          61.7773   88.6425   10.1238 C.ar    1  UNL1        0.1149
      7 N          61.3001   85.9896   12.6442 N.pl3   1  UNL1       -0.2932
      8 C          62.4702   86.1014   13.5263 C.3     1  UNL1        0.0923
      9 C          62.0459   86.1116   15.0003 C.3     1  UNL1        0.0252
     10 C          61.0590   84.9818   15.3599 C.3     1  UNL1        0.0472
     11 C          59.8790   84.9320   14.3678 C.3     1  UNL1        0.0252
     12 C          60.3259   84.9213   12.9021 C.3     1  UNL1        0.0923
     13 C          61.7451   83.6151   15.5620 C.3     1  UNL1        0.2054
     14 O          62.7580   83.3905   14.5865 O.3     1  UNL1       -0.4755
     15 C          62.6896   82.4288   13.5694 C.ar    1  UNL1        0.1388
     16 C          63.5133   82.4752   12.4305 C.ar    1  UNL1        0.0369
     17 C          63.3963   81.4975   11.4412 C.ar    1  UNL1        0.0033
     18 C          62.4656   80.4652   11.5789 C.ar    1  UNL1        0.0066
     19 C          61.6425   80.3940   12.7166 C.ar    1  UNL1        0.0785
     20 C          61.7593   81.3907   13.7033 C.ar    1  UNL1        0.0433
     21 C          60.6564   79.2939   12.8495 C.2     1  UNL1        0.3381
     22 O          60.8675   78.1929   12.2748 O.2     1  UNL1       -0.2451
     23 O          59.4967   79.4344   13.6113 O.3     1  UNL1       -0.4771
     24 H          59.3139   80.2493   14.1821 H       1  UNL1        0.2954
     25 C          60.0562   88.8326    6.8202 C.2     1  UNL1        0.2839
     26 O          58.9675   88.2846    7.1394 O.2     1  UNL1       -0.2665
     27 N          61.1793   88.8017    7.7187 N.am    1  UNL1       -0.2766
     28 H          62.0662   89.2691    7.4305 H       1  UNL1        0.1553
     29 C          57.6323   90.1460    5.1215 C.3     1  UNL1        0.0345
     30 C          59.0885   90.0729    4.7753 C.ar    1  UNL1        0.0202
     31 C          60.1381   89.5212    5.5205 C.ar    1  UNL1        0.1946
     32 O          61.2862   89.7165    4.8962 O.2     1  UNL1       -0.4492
     33 C          61.0329   90.3444    3.7739 C.ar    1  UNL1        0.1456
     34 C          61.9454   90.7412    2.8026 C.ar    1  UNL1        0.0433
     35 C          61.4585   91.4089    1.6624 C.ar    1  UNL1        0.0331
     36 I          62.8664   91.9123    0.1568 I       1  UNL1       -0.0424
     37 C          60.0629   91.6714    1.5272 C.ar    1  UNL1        0.0056
     38 C          59.1690   91.2424    2.5339 C.ar    1  UNL1        0.0032
     39 C          59.6929   90.5829    3.6441 C.ar    1  UNL1        0.0337
     40 C          59.5200   92.3847    0.3534 C.ar    1  UNL1        0.0004
     41 C          58.1730   92.2295   -0.0142 C.ar    1  UNL1        0.0000
     42 C          57.6698   92.8901   -1.1393 C.ar    1  UNL1        0.0000
     43 C          58.5088   93.7002   -1.9095 C.ar    1  UNL1        0.0000
     44 C          59.8536   93.8474   -1.5584 C.ar    1  UNL1        0.0000
     45 C          60.3607   93.1886   -0.4339 C.ar    1  UNL1        0.0000
@<TRIPOS>BOND
     1    29    30    1
     2    30    31   ar
     3    31    25    1
     4    25    26    2
     5    25    27   am
     6    27     1    1
     7     1     2   ar
     8     2     3   ar
     9     3     4   ar
    10     4     7    1
    11     7     8    1
    12     8     9    1
    13     9    10    1
    14    10    13    1
    15    13    14    1
    16    14    15    1
    17    15    16   ar
    18    16    17   ar
    19    17    18   ar
    20    18    19   ar
    21    19    21    1
    22    21    22    2
    23    21    23    1
    24    19    20   ar
    25    10    11    1
    26    11    12    1
    27     4     5   ar
    28     5     6   ar
    29    31    32   ar
    30    32    33   ar
    31    33    34   ar
    32    34    35   ar
    33    35    36    1
    34    35    37   ar
    35    37    40    1
    36    40    41   ar
    37    41    42   ar
    38    42    43   ar
    39    43    44   ar
    40    44    45   ar
    41    37    38   ar
    42    38    39   ar
    43    39    30   ar
    44     6     1   ar
    45    39    33   ar
    46    12     7    1
    47    45    40   ar
    48    20    15   ar
    49    27    28    1
    50    23    24    1
