@<TRIPOS>MOLECULE
*****
 29 31 0 0 0
SMALL
GASTEIGER

@<TRIPOS>ATOM
      1 C         -24.7300   -8.1262  -13.3637 C.ar    1  UNL1       -0.0131
      2 C         -25.7375   -9.0593  -13.7220 C.ar    1  UNL1       -0.0024
      3 C         -25.4605  -10.4301  -13.7911 C.ar    1  UNL1        0.0143
      4 C         -24.1688  -10.8627  -13.5015 C.ar    1  UNL1        0.0506
      5 C         -23.1851   -9.9884  -13.1375 C.ar    1  UNL1        0.0026
      6 C         -23.4240   -8.6093  -13.0625 C.ar    1  UNL1        0.0617
      7 C         -21.9033  -10.7244  -12.9078 C.3     1  UNL1        0.0502
      8 C         -22.2684  -12.1992  -13.2027 C.3     1  UNL1        0.1030
      9 N         -23.6780  -12.1871  -13.5897 N.am    1  UNL1       -0.2566
     10 C         -24.4223  -13.3154  -14.0676 C.2     1  UNL1        0.2571
     11 O         -25.2795  -13.8433  -13.3091 O.2     1  UNL1       -0.2719
     12 C         -24.1922  -13.8936  -15.4529 C.3     1  UNL1        0.1973
     13 C         -22.8460  -14.6402  -15.4641 C.3     1  UNL1        0.0427
     14 O         -25.2325  -14.8046  -15.7250 O.3     1  UNL1       -0.3751
     15 H         -25.0742  -15.1955  -16.6247 H       1  UNL1        0.2110
     16 C         -24.1967  -12.7808  -16.5277 C.3     1  UNL1        0.2408
     17 O         -22.8720  -12.2866  -16.7206 O.3     1  UNL1       -0.4724
     18 C         -22.5101  -10.9320  -16.6871 C.ar    1  UNL1        0.1388
     19 C         -21.2124  -10.5018  -16.3464 C.ar    1  UNL1        0.0392
     20 C         -20.9158   -9.1359  -16.2949 C.ar    1  UNL1        0.0327
     21 C         -21.9038   -8.1915  -16.5872 C.ar    1  UNL1        0.1403
     22 F         -21.6151   -6.8680  -16.5317 F       1  UNL1       -0.2042
     23 C         -23.1884   -8.6124  -16.9397 C.ar    1  UNL1        0.0327
     24 C         -23.4881   -9.9765  -16.9923 C.ar    1  UNL1        0.0392
     25 C         -25.8294   -6.2365  -14.6121 C.3     1  UNL1        0.0047
     26 C         -25.0619   -6.6379  -13.3467 C.3     1  UNL1        0.0230
     27 C         -25.8419   -6.2538  -12.0827 C.3     1  UNL1        0.0047
     28 C         -22.3388   -7.7272  -12.7020 C.1     1  UNL1        0.0998
     29 N         -21.4701   -7.0200  -12.4117 N.1     1  UNL1       -0.1909
@<TRIPOS>BOND
     1    25    26    1
     2    26    27    1
     3    26     1    1
     4     1     2   ar
     5     2     3   ar
     6     3     4   ar
     7     4     5   ar
     8     5     6   ar
     9     6    28    1
    10    28    29    3
    11     5     7    1
    12     7     8    1
    13     8     9    1
    14     9    10   am
    15    10    11    2
    16    10    12    1
    17    12    13    1
    18    12    14    1
    19    12    16    1
    20    16    17    1
    21    17    18    1
    22    18    19   ar
    23    19    20   ar
    24    20    21   ar
    25    21    22    1
    26    21    23   ar
    27    23    24   ar
    28     6     1   ar
    29    24    18   ar
    30     9     4    1
    31    14    15    1
@<TRIPOS>MOLECULE
*****
 29 31 0 0 0
SMALL
GASTEIGER

@<TRIPOS>ATOM
      1 C         -22.7366  -12.9678  -14.3736 C.ar    1  UNL1       -0.0131
      2 C         -21.4451  -12.5425  -13.9669 C.ar    1  UNL1       -0.0024
      3 C         -21.2815  -11.6478  -12.9023 C.ar    1  UNL1        0.0143
      4 C         -22.4176  -11.1789  -12.2475 C.ar    1  UNL1        0.0506
      5 C         -23.6707  -11.5849  -12.6071 C.ar    1  UNL1        0.0026
      6 C         -23.8736  -12.4752  -13.6705 C.ar    1  UNL1        0.0617
      7 C         -24.6946  -10.9089  -11.7514 C.3     1  UNL1        0.0502
      8 C         -23.8538  -10.0117  -10.8116 C.3     1  UNL1        0.1030
      9 N         -22.4623  -10.2195  -11.2081 N.am    1  UNL1       -0.2566
     10 C         -21.3316   -9.5044  -10.6927 C.2     1  UNL1        0.2571
     11 O         -20.5437  -10.0977   -9.9077 O.2     1  UNL1       -0.2719
     12 C         -21.0718   -8.0534  -11.0578 C.3     1  UNL1        0.1973
     13 C         -20.9852   -7.2220   -9.7652 C.3     1  UNL1        0.0427
     14 O         -19.8391   -7.9874  -11.7378 O.3     1  UNL1       -0.3751
     15 H         -19.6605   -7.0363  -11.9632 H       1  UNL1        0.2110
     16 C         -22.1888   -7.5023  -11.9755 C.3     1  UNL1        0.2408
     17 O         -21.6954   -7.3551  -13.3064 O.3     1  UNL1       -0.4724
     18 C         -22.0254   -8.1948  -14.3801 C.ar    1  UNL1        0.1388
     19 C         -23.3410   -8.6392  -14.6189 C.ar    1  UNL1        0.0392
     20 C         -23.6078   -9.5045  -15.6849 C.ar    1  UNL1        0.0327
     21 C         -22.5715   -9.9274  -16.5221 C.ar    1  UNL1        0.1403
     22 F         -22.8319  -10.7700  -17.5517 F       1  UNL1       -0.2042
     23 C         -21.2675   -9.4786  -16.2989 C.ar    1  UNL1        0.0327
     24 C         -20.9975   -8.6138  -15.2347 C.ar    1  UNL1        0.0392
     25 C         -21.6749  -13.7602  -16.5144 C.3     1  UNL1        0.0047
     26 C         -22.8727  -13.9059  -15.5681 C.3     1  UNL1        0.0230
     27 C         -23.0466  -15.3621  -15.1179 C.3     1  UNL1        0.0047
     28 C         -25.2227  -12.8470  -14.0274 C.1     1  UNL1        0.0998
     29 N         -26.3031  -13.1464  -14.3141 N.1     1  UNL1       -0.1909
@<TRIPOS>BOND
     1    25    26    1
     2    26    27    1
     3    26     1    1
     4     1     2   ar
     5     2     3   ar
     6     3     4   ar
     7     4     5   ar
     8     5     6   ar
     9     6    28    1
    10    28    29    3
    11     5     7    1
    12     7     8    1
    13     8     9    1
    14     9    10   am
    15    10    11    2
    16    10    12    1
    17    12    13    1
    18    12    14    1
    19    12    16    1
    20    16    17    1
    21    17    18    1
    22    18    19   ar
    23    19    20   ar
    24    20    21   ar
    25    21    22    1
    26    21    23   ar
    27    23    24   ar
    28     6     1   ar
    29    24    18   ar
    30     9     4    1
    31    14    15    1
@<TRIPOS>MOLECULE
*****
 29 31 0 0 0
SMALL
GASTEIGER

@<TRIPOS>ATOM
      1 C         -24.7645   -6.8876  -13.1721 C.ar    1  UNL1       -0.0131
      2 C         -24.7594   -6.4868  -11.8106 C.ar    1  UNL1       -0.0024
      3 C         -23.5923   -6.5605  -11.0405 C.ar    1  UNL1        0.0143
      4 C         -22.4298   -7.0394  -11.6395 C.ar    1  UNL1        0.0506
      5 C         -22.4026   -7.4156  -12.9518 C.ar    1  UNL1        0.0026
      6 C         -23.5521   -7.3603  -13.7520 C.ar    1  UNL1        0.0617
      7 C         -21.0372   -7.9049  -13.3173 C.3     1  UNL1        0.0502
      8 C         -20.2347   -7.7727  -12.0006 C.3     1  UNL1        0.1030
      9 N         -21.1806   -7.2587  -11.0118 N.am    1  UNL1       -0.2566
     10 C         -20.9158   -7.0877   -9.6132 C.2     1  UNL1        0.2571
     11 O         -20.7689   -5.9203   -9.1608 O.2     1  UNL1       -0.2719
     12 C         -20.7950   -8.2746   -8.6735 C.3     1  UNL1        0.1973
     13 C         -19.6126   -9.1503   -9.1261 C.3     1  UNL1        0.0427
     14 O         -20.5412   -7.7825   -7.3775 O.3     1  UNL1       -0.3751
     15 H         -20.4462   -8.5589   -6.7648 H       1  UNL1        0.2110
     16 C         -22.1005   -9.1047   -8.6556 C.3     1  UNL1        0.2408
     17 O         -21.9754  -10.2255   -9.5300 O.3     1  UNL1       -0.4724
     18 C         -22.7581  -10.4398  -10.6738 C.ar    1  UNL1        0.1388
     19 C         -22.2370  -11.0049  -11.8546 C.ar    1  UNL1        0.0392
     20 C         -23.0548  -11.1639  -12.9780 C.ar    1  UNL1        0.0327
     21 C         -24.3947  -10.7687  -12.9325 C.ar    1  UNL1        0.1403
     22 F         -25.1841  -10.9192  -14.0243 F       1  UNL1       -0.2042
     23 C         -24.9208  -10.2210  -11.7598 C.ar    1  UNL1        0.0327
     24 C         -24.1063  -10.0609  -10.6355 C.ar    1  UNL1        0.0392
     25 C         -27.1648   -7.6422  -13.2553 C.3     1  UNL1        0.0047
     26 C         -26.0682   -6.8359  -13.9614 C.3     1  UNL1        0.0230
     27 C         -26.5168   -5.3892  -14.2052 C.3     1  UNL1        0.0047
     28 C         -23.4732   -7.7995  -15.1255 C.1     1  UNL1        0.0998
     29 N         -23.4084   -8.1516  -16.2260 N.1     1  UNL1       -0.1909
@<TRIPOS>BOND
     1    25    26    1
     2    26    27    1
     3    26     1    1
     4     1     2   ar
     5     2     3   ar
     6     3     4   ar
     7     4     5   ar
     8     5     6   ar
     9     6    28    1
    10    28    29    3
    11     5     7    1
    12     7     8    1
    13     8     9    1
    14     9    10   am
    15    10    11    2
    16    10    12    1
    17    12    13    1
    18    12    14    1
    19    12    16    1
    20    16    17    1
    21    17    18    1
    22    18    19   ar
    23    19    20   ar
    24    20    21   ar
    25    21    22    1
    26    21    23   ar
    27    23    24   ar
    28     6     1   ar
    29    24    18   ar
    30     9     4    1
    31    14    15    1
@<TRIPOS>MOLECULE
*****
 29 31 0 0 0
SMALL
GASTEIGER

@<TRIPOS>ATOM
      1 C         -20.8987   -9.9945  -11.4134 C.ar    1  UNL1       -0.0131
      2 C         -20.9003  -11.4137  -11.4047 C.ar    1  UNL1       -0.0024
      3 C         -21.2609  -12.1423  -12.5448 C.ar    1  UNL1        0.0143
      4 C         -21.6220  -11.4432  -13.6939 C.ar    1  UNL1        0.0506
      5 C         -21.6127  -10.0784  -13.7347 C.ar    1  UNL1        0.0026
      6 C         -21.2623   -9.3158  -12.6121 C.ar    1  UNL1        0.0617
      7 C         -22.0623   -9.6020  -15.0796 C.3     1  UNL1        0.0502
      8 C         -22.3577  -10.9098  -15.8528 C.3     1  UNL1        0.1030
      9 N         -22.0867  -11.9947  -14.9114 N.am    1  UNL1       -0.2566
     10 C         -22.3348  -13.3868  -15.1480 C.2     1  UNL1        0.2571
     11 O         -21.3544  -14.1533  -15.3487 O.2     1  UNL1       -0.2719
     12 C         -23.7441  -13.9520  -15.1762 C.3     1  UNL1        0.1973
     13 C         -24.4687  -13.4222  -16.4268 C.3     1  UNL1        0.0427
     14 O         -23.6508  -15.3563  -15.2516 O.3     1  UNL1       -0.3751
     15 H         -24.5723  -15.7263  -15.2862 H       1  UNL1        0.2110
     16 C         -24.5252  -13.5622  -13.8989 C.3     1  UNL1        0.2408
     17 O         -25.2262  -12.3378  -14.1130 O.3     1  UNL1       -0.4724
     18 C         -25.1128  -11.1982  -13.3035 C.ar    1  UNL1        0.1388
     19 C         -25.4106   -9.9029  -13.7711 C.ar    1  UNL1        0.0392
     20 C         -25.2462   -8.7973  -12.9304 C.ar    1  UNL1        0.0327
     21 C         -24.7918   -8.9729  -11.6203 C.ar    1  UNL1        0.1403
     22 F         -24.6286   -7.8991  -10.8090 F       1  UNL1       -0.2042
     23 C         -24.5087  -10.2563  -11.1465 C.ar    1  UNL1        0.0327
     24 C         -24.6719  -11.3632  -11.9840 C.ar    1  UNL1        0.0392
     25 C         -21.6998   -9.3034   -9.1288 C.3     1  UNL1        0.0047
     26 C         -20.5454   -9.2398  -10.1362 C.3     1  UNL1        0.0230
     27 C         -19.2437   -9.7663   -9.5182 C.3     1  UNL1        0.0047
     28 C         -21.2993   -7.8749  -12.7026 C.1     1  UNL1        0.0998
     29 N         -21.3283   -6.7203  -12.7735 N.1     1  UNL1       -0.1909
@<TRIPOS>BOND
     1    25    26    1
     2    26    27    1
     3    26     1    1
     4     1     2   ar
     5     2     3   ar
     6     3     4   ar
     7     4     5   ar
     8     5     6   ar
     9     6    28    1
    10    28    29    3
    11     5     7    1
    12     7     8    1
    13     8     9    1
    14     9    10   am
    15    10    11    2
    16    10    12    1
    17    12    13    1
    18    12    14    1
    19    12    16    1
    20    16    17    1
    21    17    18    1
    22    18    19   ar
    23    19    20   ar
    24    20    21   ar
    25    21    22    1
    26    21    23   ar
    27    23    24   ar
    28     6     1   ar
    29    24    18   ar
    30     9     4    1
    31    14    15    1
@<TRIPOS>MOLECULE
*****
 29 31 0 0 0
SMALL
GASTEIGER

@<TRIPOS>ATOM
      1 C         -24.1883  -13.0334  -15.4285 C.ar    1  UNL1       -0.0131
      2 C         -25.1682  -12.8009  -14.4284 C.ar    1  UNL1       -0.0024
      3 C         -25.3908  -11.5152  -13.9207 C.ar    1  UNL1        0.0143
      4 C         -24.6262  -10.4626  -14.4177 C.ar    1  UNL1        0.0506
      5 C         -23.6890  -10.6554  -15.3918 C.ar    1  UNL1        0.0026
      6 C         -23.4352  -11.9286  -15.9203 C.ar    1  UNL1        0.0617
      7 C         -23.0109   -9.3618  -15.7150 C.3     1  UNL1        0.0502
      8 C         -23.6874   -8.3448  -14.7646 C.3     1  UNL1        0.1030
      9 N         -24.6499   -9.1168  -13.9808 N.am    1  UNL1       -0.2566
     10 C         -25.4284   -8.6156  -12.8862 C.2     1  UNL1        0.2571
     11 O         -26.6629   -8.4251  -13.0555 O.2     1  UNL1       -0.2719
     12 C         -24.8003   -8.2977  -11.5406 C.3     1  UNL1        0.1973
     13 C         -23.9121   -7.0490  -11.6876 C.3     1  UNL1        0.0427
     14 O         -25.8381   -8.0263  -10.6265 O.3     1  UNL1       -0.3751
     15 H         -25.4278   -7.8026   -9.7497 H       1  UNL1        0.2110
     16 C         -23.9646   -9.4916  -11.0210 C.3     1  UNL1        0.2408
     17 O         -22.6666   -9.4702  -11.6138 O.3     1  UNL1       -0.4724
     18 C         -21.7802  -10.5567  -11.6393 C.ar    1  UNL1        0.1388
     19 C         -21.9349  -11.6413  -12.5252 C.ar    1  UNL1        0.0392
     20 C         -21.0405  -12.7158  -12.4835 C.ar    1  UNL1        0.0327
     21 C         -19.9853  -12.7157  -11.5670 C.ar    1  UNL1        0.1403
     22 F         -19.1226  -13.7607  -11.5251 F       1  UNL1       -0.2042
     23 C         -19.8184  -11.6364  -10.6958 C.ar    1  UNL1        0.0327
     24 C         -20.7103  -10.5611  -10.7349 C.ar    1  UNL1        0.0392
     25 C         -23.1177  -15.2502  -14.9014 C.3     1  UNL1        0.0047
     26 C         -23.9449  -14.4564  -15.9197 C.3     1  UNL1        0.0230
     27 C         -25.2647  -15.1715  -16.2364 C.3     1  UNL1        0.0047
     28 C         -22.4110  -12.0795  -16.9273 C.1     1  UNL1        0.0998
     29 N         -21.5903  -12.1987  -17.7343 N.1     1  UNL1       -0.1909
@<TRIPOS>BOND
     1    25    26    1
     2    26    27    1
     3    26     1    1
     4     1     2   ar
     5     2     3   ar
     6     3     4   ar
     7     4     5   ar
     8     5     6   ar
     9     6    28    1
    10    28    29    3
    11     5     7    1
    12     7     8    1
    13     8     9    1
    14     9    10   am
    15    10    11    2
    16    10    12    1
    17    12    13    1
    18    12    14    1
    19    12    16    1
    20    16    17    1
    21    17    18    1
    22    18    19   ar
    23    19    20   ar
    24    20    21   ar
    25    21    22    1
    26    21    23   ar
    27    23    24   ar
    28     6     1   ar
    29    24    18   ar
    30     9     4    1
    31    14    15    1
@<TRIPOS>MOLECULE
*****
 29 31 0 0 0
SMALL
GASTEIGER

@<TRIPOS>ATOM
      1 C         -21.8291   -8.8275  -14.6883 C.ar    1  UNL1       -0.0131
      2 C         -22.0312   -7.7498  -13.7871 C.ar    1  UNL1       -0.0024
      3 C         -22.0153   -7.9542  -12.4020 C.ar    1  UNL1        0.0143
      4 C         -21.7978   -9.2436  -11.9227 C.ar    1  UNL1        0.0506
      5 C         -21.5836  -10.2951  -12.7670 C.ar    1  UNL1        0.0026
      6 C         -21.5973  -10.1296  -14.1588 C.ar    1  UNL1        0.0617
      7 C         -21.4011  -11.5551  -11.9817 C.3     1  UNL1        0.0502
      8 C         -21.5497  -11.0963  -10.5111 C.3     1  UNL1        0.1030
      9 N         -21.8217   -9.6613  -10.5708 N.am    1  UNL1       -0.2566
     10 C         -22.1486   -8.8262   -9.4523 C.2     1  UNL1        0.2571
     11 O         -21.2846   -8.0118   -9.0289 O.2     1  UNL1       -0.2719
     12 C         -23.4986   -8.9106   -8.7618 C.3     1  UNL1        0.1973
     13 C         -23.7071  -10.3469   -8.2487 C.3     1  UNL1        0.0427
     14 O         -23.4868   -8.0221   -7.6679 O.3     1  UNL1       -0.3751
     15 H         -24.3639   -8.0882   -7.2059 H       1  UNL1        0.2110
     16 C         -24.6420   -8.5148   -9.7259 C.3     1  UNL1        0.2408
     17 O         -25.2263   -9.6866  -10.2933 O.3     1  UNL1       -0.4724
     18 C         -25.1684  -10.0329  -11.6511 C.ar    1  UNL1        0.1388
     19 C         -25.3781   -9.0962  -12.6824 C.ar    1  UNL1        0.0392
     20 C         -25.3432   -9.5039  -14.0199 C.ar    1  UNL1        0.0327
     21 C         -25.0939  -10.8415  -14.3398 C.ar    1  UNL1        0.1403
     22 F         -25.0655  -11.2352  -15.6367 F       1  UNL1       -0.2042
     23 C         -24.8709  -11.7721  -13.3219 C.ar    1  UNL1        0.0327
     24 C         -24.9050  -11.3679  -11.9844 C.ar    1  UNL1        0.0392
     25 C         -23.0263   -7.5808  -16.5188 C.3     1  UNL1        0.0047
     26 C         -21.9016   -8.5697  -16.1896 C.3     1  UNL1        0.0230
     27 C         -20.5558   -8.0777  -16.7376 C.3     1  UNL1        0.0047
     28 C         -21.3953  -11.2823  -15.0050 C.1     1  UNL1        0.0998
     29 N         -21.2346  -12.2068  -15.6822 N.1     1  UNL1       -0.1909
@<TRIPOS>BOND
     1    25    26    1
     2    26    27    1
     3    26     1    1
     4     1     2   ar
     5     2     3   ar
     6     3     4   ar
     7     4     5   ar
     8     5     6   ar
     9     6    28    1
    10    28    29    3
    11     5     7    1
    12     7     8    1
    13     8     9    1
    14     9    10   am
    15    10    11    2
    16    10    12    1
    17    12    13    1
    18    12    14    1
    19    12    16    1
    20    16    17    1
    21    17    18    1
    22    18    19   ar
    23    19    20   ar
    24    20    21   ar
    25    21    22    1
    26    21    23   ar
    27    23    24   ar
    28     6     1   ar
    29    24    18   ar
    30     9     4    1
    31    14    15    1
@<TRIPOS>MOLECULE
*****
 29 31 0 0 0
SMALL
GASTEIGER

@<TRIPOS>ATOM
      1 C         -22.0726   -6.3642  -11.8924 C.ar    1  UNL1       -0.0131
      2 C         -20.9551   -7.1394  -12.2981 C.ar    1  UNL1       -0.0024
      3 C         -21.1038   -8.2096  -13.1887 C.ar    1  UNL1        0.0143
      4 C         -22.3775   -8.5017  -13.6703 C.ar    1  UNL1        0.0506
      5 C         -23.4669   -7.7616  -13.3098 C.ar    1  UNL1        0.0026
      6 C         -23.3574   -6.6867  -12.4170 C.ar    1  UNL1        0.0617
      7 C         -24.6980   -8.3111  -13.9577 C.3     1  UNL1        0.0502
      8 C         -24.1770   -9.5211  -14.7700 C.3     1  UNL1        0.1030
      9 N         -22.7397   -9.5812  -14.5106 N.am    1  UNL1       -0.2566
     10 C         -21.8529  -10.6145  -14.9592 C.2     1  UNL1        0.2571
     11 O         -21.0422  -10.3580  -15.8898 O.2     1  UNL1       -0.2719
     12 C         -21.8782  -12.0062  -14.3517 C.3     1  UNL1        0.1973
     13 C         -23.2061  -12.6892  -14.7257 C.3     1  UNL1        0.0427
     14 O         -20.8064  -12.7411  -14.8970 O.3     1  UNL1       -0.3751
     15 H         -20.8314  -13.6568  -14.5123 H       1  UNL1        0.2110
     16 C         -21.7219  -11.9445  -12.8137 C.3     1  UNL1        0.2408
     17 O         -22.9789  -11.6420  -12.2096 O.3     1  UNL1       -0.4724
     18 C         -23.1585  -10.7609  -11.1334 C.ar    1  UNL1        0.1388
     19 C         -24.4231  -10.2603  -10.7658 C.ar    1  UNL1        0.0392
     20 C         -24.5399   -9.3563   -9.7050 C.ar    1  UNL1        0.0327
     21 C         -23.4032   -8.9501   -9.0004 C.ar    1  UNL1        0.1403
     22 F         -23.5183   -8.0699   -7.9758 F       1  UNL1       -0.2042
     23 C         -22.1483   -9.4542   -9.3510 C.ar    1  UNL1        0.0327
     24 C         -22.0282  -10.3578  -10.4105 C.ar    1  UNL1        0.0392
     25 C         -21.5961   -5.8010   -9.4854 C.3     1  UNL1        0.0047
     26 C         -21.8740   -5.2375  -10.8841 C.3     1  UNL1        0.0230
     27 C         -20.7579   -4.2824  -11.3263 C.3     1  UNL1        0.0047
     28 C         -24.5476   -5.9574  -12.0466 C.1     1  UNL1        0.0998
     29 N         -25.5022   -5.3738  -11.7510 N.1     1  UNL1       -0.1909
@<TRIPOS>BOND
     1    25    26    1
     2    26    27    1
     3    26     1    1
     4     1     2   ar
     5     2     3   ar
     6     3     4   ar
     7     4     5   ar
     8     5     6   ar
     9     6    28    1
    10    28    29    3
    11     5     7    1
    12     7     8    1
    13     8     9    1
    14     9    10   am
    15    10    11    2
    16    10    12    1
    17    12    13    1
    18    12    14    1
    19    12    16    1
    20    16    17    1
    21    17    18    1
    22    18    19   ar
    23    19    20   ar
    24    20    21   ar
    25    21    22    1
    26    21    23   ar
    27    23    24   ar
    28     6     1   ar
    29    24    18   ar
    30     9     4    1
    31    14    15    1
@<TRIPOS>MOLECULE
*****
 29 31 0 0 0
SMALL
GASTEIGER

@<TRIPOS>ATOM
      1 C         -24.8742   -9.6645  -11.2476 C.ar    1  UNL1       -0.0131
      2 C         -25.5701   -9.9584  -12.4490 C.ar    1  UNL1       -0.0024
      3 C         -24.9664  -10.7035  -13.4693 C.ar    1  UNL1        0.0143
      4 C         -23.6612  -11.1518  -13.2820 C.ar    1  UNL1        0.0506
      5 C         -22.9749  -10.8978  -12.1292 C.ar    1  UNL1        0.0026
      6 C         -23.5448  -10.1514  -11.0886 C.ar    1  UNL1        0.0617
      7 C         -21.5984  -11.4772  -12.2130 C.3     1  UNL1        0.0502
      8 C         -21.5561  -12.1220  -13.6193 C.3     1  UNL1        0.1030
      9 N         -22.8606  -11.8472  -14.2190 N.am    1  UNL1       -0.2566
     10 C         -23.2403  -12.1518  -15.5675 C.2     1  UNL1        0.2571
     11 O         -24.0424  -13.1023  -15.7731 O.2     1  UNL1       -0.2719
     12 C         -22.6903  -11.3689  -16.7469 C.3     1  UNL1        0.1973
     13 C         -22.0817  -12.3555  -17.7597 C.3     1  UNL1        0.0427
     14 O         -23.7607  -10.6805  -17.3524 O.3     1  UNL1       -0.3751
     15 H         -23.4047  -10.1806  -18.1338 H       1  UNL1        0.2110
     16 C         -21.6237  -10.3469  -16.2871 C.3     1  UNL1        0.2408
     17 O         -22.2019   -9.0447  -16.2065 O.3     1  UNL1       -0.4724
     18 C         -22.4479   -8.3505  -15.0130 C.ar    1  UNL1        0.1388
     19 C         -23.6926   -7.7574  -14.7232 C.ar    1  UNL1        0.0392
     20 C         -23.8720   -7.0465  -13.5321 C.ar    1  UNL1        0.0327
     21 C         -22.8192   -6.9267  -12.6206 C.ar    1  UNL1        0.1403
     22 F         -22.9941   -6.2331  -11.4691 F       1  UNL1       -0.2042
     23 C         -21.5870   -7.5250  -12.8958 C.ar    1  UNL1        0.0327
     24 C         -21.4045   -8.2360  -14.0851 C.ar    1  UNL1        0.0392
     25 C         -26.5544   -7.8396  -10.8176 C.3     1  UNL1        0.0047
     26 C         -25.5516   -8.8097  -10.1817 C.3     1  UNL1        0.0230
     27 C         -26.2265   -9.6798   -9.1135 C.3     1  UNL1        0.0047
     28 C         -22.7623   -9.8869   -9.9040 C.1     1  UNL1        0.0998
     29 N         -22.1361   -9.6736   -8.9544 N.1     1  UNL1       -0.1909
@<TRIPOS>BOND
     1    25    26    1
     2    26    27    1
     3    26     1    1
     4     1     2   ar
     5     2     3   ar
     6     3     4   ar
     7     4     5   ar
     8     5     6   ar
     9     6    28    1
    10    28    29    3
    11     5     7    1
    12     7     8    1
    13     8     9    1
    14     9    10   am
    15    10    11    2
    16    10    12    1
    17    12    13    1
    18    12    14    1
    19    12    16    1
    20    16    17    1
    21    17    18    1
    22    18    19   ar
    23    19    20   ar
    24    20    21   ar
    25    21    22    1
    26    21    23   ar
    27    23    24   ar
    28     6     1   ar
    29    24    18   ar
    30     9     4    1
    31    14    15    1
@<TRIPOS>MOLECULE
*****
 29 31 0 0 0
SMALL
GASTEIGER

@<TRIPOS>ATOM
      1 C         -24.4433  -12.3855  -14.2373 C.ar    1  UNL1       -0.0131
      2 C         -25.5573  -11.5395  -13.9975 C.ar    1  UNL1       -0.0024
      3 C         -25.4063  -10.1493  -13.9269 C.ar    1  UNL1        0.0143
      4 C         -24.1337   -9.6094  -14.0958 C.ar    1  UNL1        0.0506
      5 C         -23.0477  -10.3990  -14.3446 C.ar    1  UNL1        0.0026
      6 C         -23.1596  -11.7942  -14.4172 C.ar    1  UNL1        0.0617
      7 C         -21.8167   -9.5571  -14.4605 C.3     1  UNL1        0.0502
      8 C         -22.3337   -8.1165  -14.2305 C.3     1  UNL1        0.1030
      9 N         -23.7686   -8.2467  -13.9842 N.am    1  UNL1       -0.2566
     10 C         -24.6503   -7.1824  -13.6031 C.2     1  UNL1        0.2571
     11 O         -25.4693   -6.7382  -14.4521 O.2     1  UNL1       -0.2719
     12 C         -24.6097   -6.5725  -12.2128 C.3     1  UNL1        0.1973
     13 C         -25.3265   -5.2106  -12.2449 C.3     1  UNL1        0.0427
     14 O         -25.2930   -7.4381  -11.3353 O.3     1  UNL1       -0.3751
     15 H         -25.2808   -7.0324  -10.4284 H       1  UNL1        0.2110
     16 C         -23.1521   -6.3995  -11.7238 C.3     1  UNL1        0.2408
     17 O         -22.8950   -7.2900  -10.6387 O.3     1  UNL1       -0.4724
     18 C         -22.1763   -8.4900  -10.7409 C.ar    1  UNL1        0.1388
     19 C         -20.7735   -8.5255  -10.8680 C.ar    1  UNL1        0.0392
     20 C         -20.1108   -9.7499  -11.0015 C.ar    1  UNL1        0.0327
     21 C         -20.8364  -10.9444  -11.0030 C.ar    1  UNL1        0.1403
     22 F         -20.1922  -12.1297  -11.1375 F       1  UNL1       -0.2042
     23 C         -22.2262  -10.9164  -10.8628 C.ar    1  UNL1        0.0327
     24 C         -22.8915   -9.6945  -10.7291 C.ar    1  UNL1        0.0392
     25 C         -25.7838  -14.3090  -13.3200 C.3     1  UNL1        0.0047
     26 C         -24.6439  -13.8971  -14.2593 C.3     1  UNL1        0.0230
     27 C         -24.8915  -14.4071  -15.6848 C.3     1  UNL1        0.0047
     28 C         -21.9727  -12.5826  -14.6525 C.1     1  UNL1        0.0998
     29 N         -21.0208  -13.2129  -14.8414 N.1     1  UNL1       -0.1909
@<TRIPOS>BOND
     1    25    26    1
     2    26    27    1
     3    26     1    1
     4     1     2   ar
     5     2     3   ar
     6     3     4   ar
     7     4     5   ar
     8     5     6   ar
     9     6    28    1
    10    28    29    3
    11     5     7    1
    12     7     8    1
    13     8     9    1
    14     9    10   am
    15    10    11    2
    16    10    12    1
    17    12    13    1
    18    12    14    1
    19    12    16    1
    20    16    17    1
    21    17    18    1
    22    18    19   ar
    23    19    20   ar
    24    20    21   ar
    25    21    22    1
    26    21    23   ar
    27    23    24   ar
    28     6     1   ar
    29    24    18   ar
    30     9     4    1
    31    14    15    1
