@<TRIPOS>MOLECULE
*****
 39 41 0 0 0
SMALL
GASTEIGER

@<TRIPOS>ATOM
      1 N          49.6517   11.1569  -24.0056 N.pl3   1  UNL1       -0.2856
      2 C          48.6935   11.5167  -25.0628 C.3     1  UNL1        0.0945
      3 C          49.2422   11.1868  -26.4573 C.3     1  UNL1        0.0436
      4 C          49.9104    9.8029  -26.4297 C.3     1  UNL1        0.1024
      5 C          51.1352    9.7801  -25.4672 C.3     1  UNL1        0.1528
      6 C          51.0476   10.8600  -24.3627 C.3     1  UNL1        0.1237
      7 C          49.3145   10.6856  -20.4279 C.ar    1  UNL1        0.1486
      8 N          49.9459   10.6051  -21.6292 N.ar    1  UNL1       -0.2193
      9 C          49.2407   11.1832  -22.6250 C.ar    1  UNL1        0.1635
     10 S          47.8033   11.8447  -22.0485 S.2     1  UNL1       -0.0449
     11 C          48.0875   11.3655  -20.4587 C.ar    1  UNL1        0.1295
     12 N          50.1170   10.9243  -18.0294 N.am    1  UNL1       -0.2988
     13 C          49.9444   10.1346  -19.2181 C.2     1  UNL1        0.2644
     14 O          50.2690    8.9176  -19.1963 O.2     1  UNL1       -0.2685
     15 H          50.1381   10.4050  -17.1224 H       1  UNL1        0.1498
     16 C          50.5955   12.3162  -18.0011 C.3     1  UNL1        0.1015
     17 C          50.4285   12.9316  -16.6061 C.3     1  UNL1        0.0239
     18 C          52.0414   12.4370  -18.5097 C.3     1  UNL1        0.1617
     19 C          51.4407   13.8241  -20.2477 C.3     1  UNL1        0.1742
     20 O          52.0360   12.5895  -19.9142 O.3     1  UNL1       -0.3494
     21 C          47.1308   11.5754  -19.3581 C.2     1  UNL1        0.3459
     22 O          46.1181   12.3083  -19.5122 O.2     1  UNL1       -0.2445
     23 O          47.3623   10.9764  -18.1236 O.3     1  UNL1       -0.4767
     24 H          46.7225   11.1145  -17.3504 H       1  UNL1        0.2954
     25 N          50.2940    9.3849  -27.7834 N.am    1  UNL1       -0.2988
     26 C          49.3415    8.8303  -28.7025 C.2     1  UNL1        0.2624
     27 O          48.1070    8.9765  -28.4923 O.2     1  UNL1       -0.2685
     28 H          51.2756    9.5352  -28.1076 H       1  UNL1        0.1498
     29 C          49.7811    8.1111  -29.9122 C.ar    1  UNL1        0.1220
     30 N          48.9303    7.4561  -30.7289 N.ar    1  UNL1       -0.3515
     31 C          49.6723    6.8881  -31.6988 C.ar    1  UNL1        0.0456
     32 C          49.1118    6.0083  -32.7696 C.3     1  UNL1        0.0507
     33 C          51.0118    7.1549  -31.4898 C.ar    1  UNL1        0.0811
     34 CL         52.3638    6.5512  -32.4332 Cl      1  UNL1       -0.0802
     35 C          51.0866    7.9375  -30.3548 C.ar    1  UNL1        0.0893
     36 CL         52.5724    8.4408  -29.5620 Cl      1  UNL1       -0.0797
     37 H          47.8929    7.3908  -30.6246 H       1  UNL1        0.1658
     38 O          52.3300    9.9852  -26.2079 O.3     1  UNL1       -0.3501
     39 C          52.8634   11.2660  -25.9523 C.3     1  UNL1        0.1741
@<TRIPOS>BOND
     1    19    20    1
     2    20    18    1
     3    18    16    1
     4    16    17    1
     5    16    12    1
     6    12    13   am
     7    13    14    2
     8    13     7    1
     9     7     8   ar
    10     8     9   ar
    11     9     1    1
    12     1     2    1
    13     2     3    1
    14     3     4    1
    15     4    25    1
    16    25    26   am
    17    26    27    2
    18    26    29    1
    19    29    30   ar
    20    30    31   ar
    21    31    32    1
    22    31    33   ar
    23    33    34    1
    24    33    35   ar
    25    35    36    1
    26     4     5    1
    27     5    38    1
    28    38    39    1
    29     5     6    1
    30     9    10   ar
    31    10    11   ar
    32    11    21    1
    33    21    22    2
    34    21    23    1
    35    11     7   ar
    36     6     1    1
    37    35    29   ar
    38    12    15    1
    39    25    28    1
    40    30    37    1
    41    23    24    1
@<TRIPOS>MOLECULE
*****
 39 41 0 0 0
SMALL
GASTEIGER

@<TRIPOS>ATOM
      1 N          50.3310   11.4927  -24.4460 N.pl3   1  UNL1       -0.2856
      2 C          49.0117   11.6237  -25.0843 C.3     1  UNL1        0.0945
      3 C          49.0677   11.2619  -26.5744 C.3     1  UNL1        0.0436
      4 C          49.9171    9.9946  -26.7614 C.3     1  UNL1        0.1024
      5 C          51.3923   10.2262  -26.3175 C.3     1  UNL1        0.1528
      6 C          51.5333   11.3698  -25.2849 C.3     1  UNL1        0.1237
      7 C          49.9683   11.0967  -20.8616 C.ar    1  UNL1        0.1486
      8 N          49.7626   10.7735  -22.1661 N.ar    1  UNL1       -0.2193
      9 C          50.4461   11.5736  -23.0122 C.ar    1  UNL1        0.1635
     10 S          51.3605   12.7100  -22.1704 S.2     1  UNL1       -0.0449
     11 C          50.8563   12.1640  -20.6586 C.ar    1  UNL1        0.1295
     12 N          47.9831   10.5871  -19.3607 N.am    1  UNL1       -0.2988
     13 C          49.3274   10.3164  -19.7920 C.2     1  UNL1        0.2644
     14 O          49.9430    9.3356  -19.2958 O.2     1  UNL1       -0.2685
     15 H          47.4489    9.7814  -18.9628 H       1  UNL1        0.1498
     16 C          47.4267   11.9283  -19.1188 C.3     1  UNL1        0.1015
     17 C          45.9016   11.9337  -19.2826 C.3     1  UNL1        0.0239
     18 C          47.8570   12.4912  -17.7543 C.3     1  UNL1        0.1617
     19 C          49.1653   11.6653  -16.0480 C.3     1  UNL1        0.1742
     20 O          48.0195   11.4298  -16.8363 O.3     1  UNL1       -0.3494
     21 C          51.2464   12.7995  -19.3880 C.2     1  UNL1        0.3459
     22 O          51.0491   14.0279  -19.1918 O.2     1  UNL1       -0.2445
     23 O          51.8642   12.0380  -18.4007 O.3     1  UNL1       -0.4767
     24 H          52.1489   12.4564  -17.5232 H       1  UNL1        0.2954
     25 N          49.8504    9.5257  -28.1506 N.am    1  UNL1       -0.2988
     26 C          49.7290    8.1327  -28.4741 C.2     1  UNL1        0.2624
     27 O          49.3628    7.3120  -27.5898 O.2     1  UNL1       -0.2685
     28 H          49.8447   10.2238  -28.9277 H       1  UNL1        0.1498
     29 C          49.9993    7.6420  -29.8379 C.ar    1  UNL1        0.1220
     30 N          49.0456    7.1137  -30.6324 N.ar    1  UNL1       -0.3515
     31 C          49.6481    6.7390  -31.7772 C.ar    1  UNL1        0.0456
     32 C          48.9473    6.0402  -32.8976 C.3     1  UNL1        0.0507
     33 C          51.0029    7.0013  -31.7087 C.ar    1  UNL1        0.0811
     34 CL         52.2134    6.6029  -32.9165 Cl      1  UNL1       -0.0802
     35 C          51.2317    7.5807  -30.4765 C.ar    1  UNL1        0.0893
     36 CL         52.8114    7.9802  -29.8176 Cl      1  UNL1       -0.0797
     37 H          48.0326    7.0045  -30.4013 H       1  UNL1        0.1658
     38 O          52.1899   10.5382  -27.4510 O.3     1  UNL1       -0.3501
     39 C          52.9812   11.6803  -27.2069 C.3     1  UNL1        0.1741
@<TRIPOS>BOND
     1    19    20    1
     2    20    18    1
     3    18    16    1
     4    16    17    1
     5    16    12    1
     6    12    13   am
     7    13    14    2
     8    13     7    1
     9     7     8   ar
    10     8     9   ar
    11     9     1    1
    12     1     2    1
    13     2     3    1
    14     3     4    1
    15     4    25    1
    16    25    26   am
    17    26    27    2
    18    26    29    1
    19    29    30   ar
    20    30    31   ar
    21    31    32    1
    22    31    33   ar
    23    33    34    1
    24    33    35   ar
    25    35    36    1
    26     4     5    1
    27     5    38    1
    28    38    39    1
    29     5     6    1
    30     9    10   ar
    31    10    11   ar
    32    11    21    1
    33    21    22    2
    34    21    23    1
    35    11     7   ar
    36     6     1    1
    37    35    29   ar
    38    12    15    1
    39    25    28    1
    40    30    37    1
    41    23    24    1
@<TRIPOS>MOLECULE
*****
 39 41 0 0 0
SMALL
GASTEIGER

@<TRIPOS>ATOM
      1 N          49.8604   11.0962  -24.5234 N.pl3   1  UNL1       -0.2856
      2 C          48.7034   11.4618  -25.3558 C.3     1  UNL1        0.0945
      3 C          48.9526   11.1478  -26.8369 C.3     1  UNL1        0.0436
      4 C          49.6154    9.7666  -26.9624 C.3     1  UNL1        0.1024
      5 C          51.0128    9.7402  -26.2743 C.3     1  UNL1        0.1528
      6 C          51.1530   10.8091  -25.1645 C.3     1  UNL1        0.1237
      7 C          49.7258   11.9903  -21.0136 C.ar    1  UNL1        0.1486
      8 N          49.7617   12.2383  -22.3498 N.ar    1  UNL1       -0.2193
      9 C          49.7439   11.1074  -23.0874 C.ar    1  UNL1        0.1635
     10 S          49.6582    9.7417  -22.1059 S.2     1  UNL1       -0.0449
     11 C          49.6523   10.6305  -20.6749 C.ar    1  UNL1        0.1295
     12 N          50.9223   13.6318  -19.4880 N.am    1  UNL1       -0.2988
     13 C          49.7102   13.1023  -20.0507 C.2     1  UNL1        0.2644
     14 O          48.6136   13.6566  -19.7725 O.2     1  UNL1       -0.2685
     15 H          50.9028   14.6356  -19.1972 H       1  UNL1        0.1498
     16 C          52.0440   12.8229  -18.9835 C.3     1  UNL1        0.1015
     17 C          53.3767   13.2873  -19.5842 C.3     1  UNL1        0.0239
     18 C          52.0879   12.7968  -17.4469 C.3     1  UNL1        0.1617
     19 C          50.5151   12.3442  -15.8261 C.3     1  UNL1        0.1742
     20 O          51.1726   11.8344  -16.9652 O.3     1  UNL1       -0.3494
     21 C          49.6598   10.0209  -19.3337 C.2     1  UNL1        0.3459
     22 O          50.3243    8.9764  -19.1017 O.2     1  UNL1       -0.2445
     23 O          48.9025   10.5921  -18.3156 O.3     1  UNL1       -0.4767
     24 H          48.8858   10.1844  -17.3884 H       1  UNL1        0.2954
     25 N          49.7116    9.3634  -28.3704 N.am    1  UNL1       -0.2988
     26 C          49.4949    8.0068  -28.7855 C.2     1  UNL1        0.2624
     27 O          48.9142    7.1983  -28.0118 O.2     1  UNL1       -0.2685
     28 H          49.8976   10.0879  -29.0997 H       1  UNL1        0.1498
     29 C          49.9162    7.5430  -30.1201 C.ar    1  UNL1        0.1220
     30 N          49.0588    7.0251  -31.0237 N.ar    1  UNL1       -0.3515
     31 C          49.7855    6.6748  -32.1022 C.ar    1  UNL1        0.0456
     32 C          49.2163    5.9937  -33.3052 C.3     1  UNL1        0.0507
     33 C          51.1228    6.9423  -31.8811 C.ar    1  UNL1        0.0811
     34 CL         52.4609    6.5724  -32.9560 Cl      1  UNL1       -0.0802
     35 C          51.2114    7.4996  -30.6209 C.ar    1  UNL1        0.0893
     36 CL         52.7068    7.8943  -29.7858 Cl      1  UNL1       -0.0797
     37 H          48.0274    6.9066  -30.9070 H       1  UNL1        0.1658
     38 O          52.0281    9.9578  -27.2440 O.3     1  UNL1       -0.3501
     39 C          52.6156   11.2294  -27.0764 C.3     1  UNL1        0.1741
@<TRIPOS>BOND
     1    19    20    1
     2    20    18    1
     3    18    16    1
     4    16    17    1
     5    16    12    1
     6    12    13   am
     7    13    14    2
     8    13     7    1
     9     7     8   ar
    10     8     9   ar
    11     9     1    1
    12     1     2    1
    13     2     3    1
    14     3     4    1
    15     4    25    1
    16    25    26   am
    17    26    27    2
    18    26    29    1
    19    29    30   ar
    20    30    31   ar
    21    31    32    1
    22    31    33   ar
    23    33    34    1
    24    33    35   ar
    25    35    36    1
    26     4     5    1
    27     5    38    1
    28    38    39    1
    29     5     6    1
    30     9    10   ar
    31    10    11   ar
    32    11    21    1
    33    21    22    2
    34    21    23    1
    35    11     7   ar
    36     6     1    1
    37    35    29   ar
    38    12    15    1
    39    25    28    1
    40    30    37    1
    41    23    24    1
@<TRIPOS>MOLECULE
*****
 39 41 0 0 0
SMALL
GASTEIGER

@<TRIPOS>ATOM
      1 N          49.2923   11.6775  -23.9320 N.pl3   1  UNL1       -0.2856
      2 C          48.5023   11.7220  -25.1726 C.3     1  UNL1        0.0945
      3 C          49.3778   11.4730  -26.4079 C.3     1  UNL1        0.0436
      4 C          50.3443   10.3121  -26.1240 C.3     1  UNL1        0.1024
      5 C          51.3240   10.6566  -24.9627 C.3     1  UNL1        0.1528
      6 C          50.7605   11.7332  -24.0050 C.3     1  UNL1        0.1237
      7 C          48.2486   11.0746  -20.5139 C.ar    1  UNL1        0.1486
      8 N          49.0954   11.0093  -21.5754 N.ar    1  UNL1       -0.2193
      9 C          48.6242   11.6686  -22.6555 C.ar    1  UNL1        0.1635
     10 S          47.1361   12.3862  -22.3293 S.2     1  UNL1       -0.0449
     11 C          47.0847   11.8244  -20.7420 C.ar    1  UNL1        0.1295
     12 N          48.7183   11.1945  -18.0202 N.am    1  UNL1       -0.2988
     13 C          48.6059   10.4376  -19.2370 C.2     1  UNL1        0.2644
     14 O          48.7393    9.1856  -19.1930 O.2     1  UNL1       -0.2685
     15 H          48.5292   10.6795  -17.1304 H       1  UNL1        0.1498
     16 C          49.3891   12.4989  -17.8948 C.3     1  UNL1        0.1015
     17 C          48.5553   13.4725  -17.0523 C.3     1  UNL1        0.0239
     18 C          50.8219   12.3586  -17.3551 C.3     1  UNL1        0.1617
     19 C          51.7955   12.9399  -19.3600 C.3     1  UNL1        0.1742
     20 O          51.6756   11.9208  -18.3921 O.3     1  UNL1       -0.3494
     21 C          45.9448   12.0417  -19.8342 C.2     1  UNL1        0.3459
     22 O          46.1266   12.4197  -18.6467 O.2     1  UNL1       -0.2445
     23 O          44.6511   11.8017  -20.2871 O.3     1  UNL1       -0.4767
     24 H          43.8534   11.9358  -19.6773 H       1  UNL1        0.2954
     25 N          51.0765    9.9375  -27.3398 N.am    1  UNL1       -0.2988
     26 C          50.6217    8.8851  -28.2030 C.2     1  UNL1        0.2624
     27 O          49.4339    8.4712  -28.1170 O.2     1  UNL1       -0.2685
     28 H          51.9273   10.4786  -27.6131 H       1  UNL1        0.1498
     29 C          51.5144    8.2923  -29.2156 C.ar    1  UNL1        0.1220
     30 N          52.8598    8.3423  -29.1303 N.ar    1  UNL1       -0.3515
     31 C          53.3481    7.7436  -30.2334 C.ar    1  UNL1        0.0456
     32 C          54.8049    7.6535  -30.5571 C.3     1  UNL1        0.0507
     33 C          52.3114    7.3307  -31.0481 C.ar    1  UNL1        0.0811
     34 CL         52.4512    6.5880  -32.6328 Cl      1  UNL1       -0.0802
     35 C          51.1403    7.6742  -30.4023 C.ar    1  UNL1        0.0893
     36 CL         49.5231    7.5053  -31.0698 Cl      1  UNL1       -0.0797
     37 H          53.4195    8.7734  -28.3606 H       1  UNL1        0.1658
     38 O          52.5542   11.1246  -25.4972 O.3     1  UNL1       -0.3501
     39 C          53.2039   11.9801  -24.5826 C.3     1  UNL1        0.1741
@<TRIPOS>BOND
     1    19    20    1
     2    20    18    1
     3    18    16    1
     4    16    17    1
     5    16    12    1
     6    12    13   am
     7    13    14    2
     8    13     7    1
     9     7     8   ar
    10     8     9   ar
    11     9     1    1
    12     1     2    1
    13     2     3    1
    14     3     4    1
    15     4    25    1
    16    25    26   am
    17    26    27    2
    18    26    29    1
    19    29    30   ar
    20    30    31   ar
    21    31    32    1
    22    31    33   ar
    23    33    34    1
    24    33    35   ar
    25    35    36    1
    26     4     5    1
    27     5    38    1
    28    38    39    1
    29     5     6    1
    30     9    10   ar
    31    10    11   ar
    32    11    21    1
    33    21    22    2
    34    21    23    1
    35    11     7   ar
    36     6     1    1
    37    35    29   ar
    38    12    15    1
    39    25    28    1
    40    30    37    1
    41    23    24    1
@<TRIPOS>MOLECULE
*****
 39 41 0 0 0
SMALL
GASTEIGER

@<TRIPOS>ATOM
      1 N          49.8580   12.7369  -22.1416 N.pl3   1  UNL1       -0.2856
      2 C          49.3303   13.9999  -22.6815 C.3     1  UNL1        0.0945
      3 C          49.1760   13.9404  -24.2070 C.3     1  UNL1        0.0436
      4 C          48.5623   12.5890  -24.6065 C.3     1  UNL1        0.1024
      5 C          49.4951   11.4026  -24.2203 C.3     1  UNL1        0.1528
      6 C          50.4532   11.7501  -23.0561 C.3     1  UNL1        0.1237
      7 C          49.0249   12.0030  -18.6915 C.ar    1  UNL1        0.1486
      8 N          48.8034   12.0468  -20.0321 N.ar    1  UNL1       -0.2193
      9 C          49.8686   12.5132  -20.7184 C.ar    1  UNL1        0.1635
     10 S          51.1491   12.8716  -19.6850 S.2     1  UNL1       -0.0449
     11 C          50.3056   12.4203  -18.2984 C.ar    1  UNL1        0.1295
     12 N          46.6426   11.2508  -18.2308 N.am    1  UNL1       -0.2988
     13 C          47.9861   11.4952  -17.7821 C.2     1  UNL1        0.2644
     14 O          48.3010   11.1921  -16.6006 O.2     1  UNL1       -0.2685
     15 H          46.1060   10.5137  -17.7195 H       1  UNL1        0.1498
     16 C          45.8618   12.1532  -19.0930 C.3     1  UNL1        0.1015
     17 C          45.8794   11.6792  -20.5517 C.3     1  UNL1        0.0239
     18 C          44.4283   12.3474  -18.5724 C.3     1  UNL1        0.1617
     19 C          42.2062   11.9556  -19.0354 C.3     1  UNL1        0.1742
     20 O          43.5073   11.9826  -19.5797 O.3     1  UNL1       -0.3494
     21 C          50.8453   12.5522  -16.9339 C.2     1  UNL1        0.3459
     22 O          52.0318   12.2200  -16.6727 O.2     1  UNL1       -0.2445
     23 O          50.0257   13.0264  -15.9143 O.3     1  UNL1       -0.4767
     24 H          50.3733   13.1165  -14.9670 H       1  UNL1        0.2954
     25 N          48.2445   12.5669  -26.0393 N.am    1  UNL1       -0.2988
     26 C          46.9420   12.2035  -26.5200 C.2     1  UNL1        0.2624
     27 O          45.9593   12.2003  -25.7302 O.2     1  UNL1       -0.2685
     28 H          48.9687   12.8670  -26.7298 H       1  UNL1        0.1498
     29 C          46.7229   11.8578  -27.9364 C.ar    1  UNL1        0.1220
     30 N          47.0616   10.6630  -28.4633 N.ar    1  UNL1       -0.3515
     31 C          46.7590   10.7096  -29.7749 C.ar    1  UNL1        0.0456
     32 C          47.0487    9.6024  -30.7367 C.3     1  UNL1        0.0507
     33 C          46.2487   11.9515  -30.1007 C.ar    1  UNL1        0.0811
     34 CL         45.8004   12.5171  -31.7013 Cl      1  UNL1       -0.0802
     35 C          46.2196   12.6860  -28.9320 C.ar    1  UNL1        0.0893
     36 CL         45.7915   14.3863  -28.8092 Cl      1  UNL1       -0.0797
     37 H          47.4885    9.8565  -27.9546 H       1  UNL1        0.1658
     38 O          50.2711   11.0176  -25.3463 O.3     1  UNL1       -0.3501
     39 C          50.6241    9.6539  -25.2680 C.3     1  UNL1        0.1741
@<TRIPOS>BOND
     1    19    20    1
     2    20    18    1
     3    18    16    1
     4    16    17    1
     5    16    12    1
     6    12    13   am
     7    13    14    2
     8    13     7    1
     9     7     8   ar
    10     8     9   ar
    11     9     1    1
    12     1     2    1
    13     2     3    1
    14     3     4    1
    15     4    25    1
    16    25    26   am
    17    26    27    2
    18    26    29    1
    19    29    30   ar
    20    30    31   ar
    21    31    32    1
    22    31    33   ar
    23    33    34    1
    24    33    35   ar
    25    35    36    1
    26     4     5    1
    27     5    38    1
    28    38    39    1
    29     5     6    1
    30     9    10   ar
    31    10    11   ar
    32    11    21    1
    33    21    22    2
    34    21    23    1
    35    11     7   ar
    36     6     1    1
    37    35    29   ar
    38    12    15    1
    39    25    28    1
    40    30    37    1
    41    23    24    1
@<TRIPOS>MOLECULE
*****
 39 41 0 0 0
SMALL
GASTEIGER

@<TRIPOS>ATOM
      1 N          49.8981   11.0260  -24.2982 N.pl3   1  UNL1       -0.2856
      2 C          48.7608   11.3327  -25.1801 C.3     1  UNL1        0.0945
      3 C          49.1063   11.0817  -26.6539 C.3     1  UNL1        0.0436
      4 C          49.8734    9.7558  -26.7807 C.3     1  UNL1        0.1024
      5 C          51.2328    9.8087  -26.0215 C.3     1  UNL1        0.1528
      6 C          51.2387   10.8512  -24.8782 C.3     1  UNL1        0.1237
      7 C          49.2415   11.7858  -20.8157 C.ar    1  UNL1        0.1486
      8 N          49.2513   12.0338  -22.1524 N.ar    1  UNL1       -0.2193
      9 C          49.7090   10.9859  -22.8705 C.ar    1  UNL1        0.1635
     10 S          50.1019    9.6884  -21.8714 S.2     1  UNL1       -0.0449
     11 C          49.6779   10.5010  -20.4581 C.ar    1  UNL1        0.1295
     12 N          47.4635   12.6850  -19.2398 N.am    1  UNL1       -0.2988
     13 C          48.7481   12.8025  -19.8741 C.2     1  UNL1        0.2644
     14 O          49.5025   13.7596  -19.5549 O.2     1  UNL1       -0.2685
     15 H          47.3597   13.1437  -18.3062 H       1  UNL1        0.1498
     16 C          46.2194   12.2847  -19.9175 C.3     1  UNL1        0.1015
     17 C          46.4014   10.9638  -20.6756 C.3     1  UNL1        0.0239
     18 C          45.0292   12.2269  -18.9461 C.3     1  UNL1        0.1617
     19 C          42.7504   11.9351  -18.7798 C.3     1  UNL1        0.1742
     20 O          43.8515   11.9144  -19.6612 O.3     1  UNL1       -0.3494
     21 C          49.8468    9.9359  -19.1080 C.2     1  UNL1        0.3459
     22 O          49.5174   10.5936  -18.0856 O.2     1  UNL1       -0.2445
     23 O          50.4012    8.6684  -18.9587 O.3     1  UNL1       -0.4767
     24 H          50.5349    8.2642  -18.0395 H       1  UNL1        0.2954
     25 N          50.0694    9.4028  -28.1918 N.am    1  UNL1       -0.2988
     26 C          49.4461    8.2502  -28.7771 C.2     1  UNL1        0.2624
     27 O          48.4766    7.6954  -28.1924 O.2     1  UNL1       -0.2685
     28 H          50.6403   10.0293  -28.8026 H       1  UNL1        0.1498
     29 C          49.9023    7.7139  -30.0725 C.ar    1  UNL1        0.1220
     30 N          49.0676    7.1537  -30.9721 N.ar    1  UNL1       -0.3515
     31 C          49.8226    6.7427  -32.0089 C.ar    1  UNL1        0.0456
     32 C          49.2834    6.0020  -33.1903 C.3     1  UNL1        0.0507
     33 C          51.1549    7.0139  -31.7633 C.ar    1  UNL1        0.0811
     34 CL         52.5207    6.5799  -32.7776 Cl      1  UNL1       -0.0802
     35 C          51.2111    7.6366  -30.5323 C.ar    1  UNL1        0.0893
     36 CL         52.6846    8.0665  -29.6759 Cl      1  UNL1       -0.0797
     37 H          48.0324    7.0475  -30.8795 H       1  UNL1        0.1658
     38 O          52.2769   10.1272  -26.9306 O.3     1  UNL1       -0.3501
     39 C          52.7596   11.4327  -26.7008 C.3     1  UNL1        0.1741
@<TRIPOS>BOND
     1    19    20    1
     2    20    18    1
     3    18    16    1
     4    16    17    1
     5    16    12    1
     6    12    13   am
     7    13    14    2
     8    13     7    1
     9     7     8   ar
    10     8     9   ar
    11     9     1    1
    12     1     2    1
    13     2     3    1
    14     3     4    1
    15     4    25    1
    16    25    26   am
    17    26    27    2
    18    26    29    1
    19    29    30   ar
    20    30    31   ar
    21    31    32    1
    22    31    33   ar
    23    33    34    1
    24    33    35   ar
    25    35    36    1
    26     4     5    1
    27     5    38    1
    28    38    39    1
    29     5     6    1
    30     9    10   ar
    31    10    11   ar
    32    11    21    1
    33    21    22    2
    34    21    23    1
    35    11     7   ar
    36     6     1    1
    37    35    29   ar
    38    12    15    1
    39    25    28    1
    40    30    37    1
    41    23    24    1
@<TRIPOS>MOLECULE
*****
 39 41 0 0 0
SMALL
GASTEIGER

@<TRIPOS>ATOM
      1 N          48.4374   10.9281  -19.9704 N.pl3   1  UNL1       -0.2856
      2 C          49.3531    9.7824  -20.0887 C.3     1  UNL1        0.0945
      3 C          49.4131    9.2546  -21.5282 C.3     1  UNL1        0.0436
      4 C          49.4944   10.4391  -22.5042 C.3     1  UNL1        0.1024
      5 C          48.2205   11.3322  -22.4245 C.3     1  UNL1        0.1528
      6 C          47.4954   11.2190  -21.0623 C.3     1  UNL1        0.1237
      7 C          48.6226   12.1079  -16.5485 C.ar    1  UNL1        0.1486
      8 N          48.8309   11.2276  -17.5634 N.ar    1  UNL1       -0.2193
      9 C          48.4080   11.7012  -18.7551 C.ar    1  UNL1        0.1635
     10 S          47.7743   13.2540  -18.6028 S.2     1  UNL1       -0.0449
     11 C          48.0426   13.3237  -16.9412 C.ar    1  UNL1        0.1295
     12 N          50.0040   12.5797  -14.4694 N.am    1  UNL1       -0.2988
     13 C          49.0451   11.7775  -15.1787 C.2     1  UNL1        0.2644
     14 O          48.4944   10.8135  -14.5834 O.2     1  UNL1       -0.2685
     15 H          49.9310   12.5821  -13.4266 H       1  UNL1        0.1498
     16 C          51.2531   13.1078  -15.0420 C.3     1  UNL1        0.1015
     17 C          52.3516   13.2107  -13.9763 C.3     1  UNL1        0.0239
     18 C          51.7149   12.2942  -16.2620 C.3     1  UNL1        0.1617
     19 C          51.9418   12.6186  -18.5311 C.3     1  UNL1        0.1742
     20 O          52.1974   13.1714  -17.2588 O.3     1  UNL1       -0.3494
     21 C          47.6324   14.4568  -16.0936 C.2     1  UNL1        0.3459
     22 O          48.3668   14.8602  -15.1532 O.2     1  UNL1       -0.2445
     23 O          46.4056   15.0737  -16.3186 O.3     1  UNL1       -0.4767
     24 H          46.0996   15.8485  -15.7422 H       1  UNL1        0.2954
     25 N          49.7242    9.9671  -23.8749 N.am    1  UNL1       -0.2988
     26 C          51.0193   10.0307  -24.4900 C.2     1  UNL1        0.2624
     27 O          52.0459   10.1957  -23.7771 O.2     1  UNL1       -0.2685
     28 H          48.9374    9.5301  -24.4054 H       1  UNL1        0.1498
     29 C          51.1775    9.8779  -25.9479 C.ar    1  UNL1        0.1220
     30 N          50.4709    8.9885  -26.6757 N.ar    1  UNL1       -0.3515
     31 C          50.8964    9.0934  -27.9492 C.ar    1  UNL1        0.0456
     32 C          50.4110    8.2240  -29.0642 C.3     1  UNL1        0.0507
     33 C          51.9030   10.0357  -28.0375 C.ar    1  UNL1        0.0811
     34 CL         52.8304   10.4525  -29.4689 Cl      1  UNL1       -0.0802
     35 C          52.0834   10.5420  -26.7657 C.ar    1  UNL1        0.0893
     36 CL         53.3434   11.6710  -26.2892 Cl      1  UNL1       -0.0797
     37 H          49.7394    8.3333  -26.3192 H       1  UNL1        0.1658
     38 O          47.3125   10.9640  -23.4532 O.3     1  UNL1       -0.3501
     39 C          46.7642   12.1083  -24.0698 C.3     1  UNL1        0.1741
@<TRIPOS>BOND
     1    19    20    1
     2    20    18    1
     3    18    16    1
     4    16    17    1
     5    16    12    1
     6    12    13   am
     7    13    14    2
     8    13     7    1
     9     7     8   ar
    10     8     9   ar
    11     9     1    1
    12     1     2    1
    13     2     3    1
    14     3     4    1
    15     4    25    1
    16    25    26   am
    17    26    27    2
    18    26    29    1
    19    29    30   ar
    20    30    31   ar
    21    31    32    1
    22    31    33   ar
    23    33    34    1
    24    33    35   ar
    25    35    36    1
    26     4     5    1
    27     5    38    1
    28    38    39    1
    29     5     6    1
    30     9    10   ar
    31    10    11   ar
    32    11    21    1
    33    21    22    2
    34    21    23    1
    35    11     7   ar
    36     6     1    1
    37    35    29   ar
    38    12    15    1
    39    25    28    1
    40    30    37    1
    41    23    24    1
@<TRIPOS>MOLECULE
*****
 39 41 0 0 0
SMALL
GASTEIGER

@<TRIPOS>ATOM
      1 N          50.2253   12.5289  -25.2142 N.pl3   1  UNL1       -0.2856
      2 C          51.5944   12.9719  -25.5215 C.3     1  UNL1        0.0945
      3 C          52.4800   11.8003  -25.9658 C.3     1  UNL1        0.0436
      4 C          51.6966   10.9089  -26.9427 C.3     1  UNL1        0.1024
      5 C          50.4496   10.2727  -26.2593 C.3     1  UNL1        0.1528
      6 C          49.9480   11.0937  -25.0476 C.3     1  UNL1        0.1237
      7 C          47.2208   14.5529  -25.3243 C.ar    1  UNL1        0.1486
      8 N          47.9995   13.4822  -25.6332 N.ar    1  UNL1       -0.2193
      9 C          49.1880   13.5038  -24.9926 C.ar    1  UNL1        0.1635
     10 S          49.3145   14.8506  -23.9895 S.2     1  UNL1       -0.0449
     11 C          47.7891   15.4385  -24.3960 C.ar    1  UNL1        0.1295
     12 N          44.7222   14.0960  -25.2851 N.am    1  UNL1       -0.2988
     13 C          45.8762   14.6872  -25.9056 C.2     1  UNL1        0.2644
     14 O          45.7201   15.4043  -26.9295 O.2     1  UNL1       -0.2685
     15 H          43.8054   14.5676  -25.4584 H       1  UNL1        0.1498
     16 C          44.6660   12.7345  -24.7281 C.3     1  UNL1        0.1015
     17 C          45.1147   11.6937  -25.7616 C.3     1  UNL1        0.0239
     18 C          45.4603   12.6172  -23.4169 C.3     1  UNL1        0.1617
     19 C          47.1904   11.5274  -22.3564 C.3     1  UNL1        0.1742
     20 O          46.4938   11.6670  -23.5750 O.3     1  UNL1       -0.3494
     21 C          47.2448   16.7136  -23.8975 C.2     1  UNL1        0.3459
     22 O          46.3283   16.7321  -23.0338 O.2     1  UNL1       -0.2445
     23 O          47.7320   17.9137  -24.4061 O.3     1  UNL1       -0.4767
     24 H          47.3659   18.8018  -24.0844 H       1  UNL1        0.2954
     25 N          52.5686    9.8773  -27.5169 N.am    1  UNL1       -0.2988
     26 C          53.0592    9.9646  -28.8628 C.2     1  UNL1        0.2624
     27 O          53.0174   11.0650  -29.4766 O.2     1  UNL1       -0.2685
     28 H          52.8808    9.0791  -26.9196 H       1  UNL1        0.1498
     29 C          53.6412    8.7902  -29.5381 C.ar    1  UNL1        0.1220
     30 N          54.8911    8.3453  -29.2939 N.ar    1  UNL1       -0.3515
     31 C          55.1015    7.2923  -30.1068 C.ar    1  UNL1        0.0456
     32 C          56.3988    6.5549  -30.1965 C.3     1  UNL1        0.0507
     33 C          53.9910    7.0751  -30.8996 C.ar    1  UNL1        0.0811
     34 CL         53.8271    5.8794  -32.1748 Cl      1  UNL1       -0.0802
     35 C          53.0556    8.0243  -30.5385 C.ar    1  UNL1        0.0893
     36 CL         51.5123    8.2875  -31.3375 Cl      1  UNL1       -0.0797
     37 H          55.5730    8.7470  -28.6118 H       1  UNL1        0.1658
     38 O          50.7634    8.9592  -25.8181 O.3     1  UNL1       -0.3501
     39 C          50.6242    8.8551  -24.4181 C.3     1  UNL1        0.1741
@<TRIPOS>BOND
     1    19    20    1
     2    20    18    1
     3    18    16    1
     4    16    17    1
     5    16    12    1
     6    12    13   am
     7    13    14    2
     8    13     7    1
     9     7     8   ar
    10     8     9   ar
    11     9     1    1
    12     1     2    1
    13     2     3    1
    14     3     4    1
    15     4    25    1
    16    25    26   am
    17    26    27    2
    18    26    29    1
    19    29    30   ar
    20    30    31   ar
    21    31    32    1
    22    31    33   ar
    23    33    34    1
    24    33    35   ar
    25    35    36    1
    26     4     5    1
    27     5    38    1
    28    38    39    1
    29     5     6    1
    30     9    10   ar
    31    10    11   ar
    32    11    21    1
    33    21    22    2
    34    21    23    1
    35    11     7   ar
    36     6     1    1
    37    35    29   ar
    38    12    15    1
    39    25    28    1
    40    30    37    1
    41    23    24    1
@<TRIPOS>MOLECULE
*****
 39 41 0 0 0
SMALL
GASTEIGER

@<TRIPOS>ATOM
      1 N          48.4279   13.4909  -21.5682 N.pl3   1  UNL1       -0.2856
      2 C          47.1402   12.8554  -21.8897 C.3     1  UNL1        0.0945
      3 C          46.6756   13.2088  -23.3087 C.3     1  UNL1        0.0436
      4 C          47.8679   13.1184  -24.2746 C.3     1  UNL1        0.1024
      5 C          48.9749   14.1530  -23.9124 C.3     1  UNL1        0.1528
      6 C          48.9353   14.5745  -22.4242 C.3     1  UNL1        0.1237
      7 C          49.3962   12.4778  -18.2257 C.ar    1  UNL1        0.1486
      8 N          48.5234   12.6958  -19.2450 N.ar    1  UNL1       -0.2193
      9 C          49.1378   13.1105  -20.3737 C.ar    1  UNL1        0.1635
     10 S          50.8057   13.2022  -20.1602 S.2     1  UNL1       -0.0449
     11 C          50.7425   12.6991  -18.5538 C.ar    1  UNL1        0.1295
     12 N          48.0695   12.8006  -16.0835 N.am    1  UNL1       -0.2988
     13 C          48.9130   11.9945  -16.9231 C.2     1  UNL1        0.2644
     14 O          49.1798   10.8151  -16.5698 O.2     1  UNL1       -0.2685
     15 H          47.4232   12.2884  -15.4411 H       1  UNL1        0.1498
     16 C          48.2712   14.2326  -15.8084 C.3     1  UNL1        0.1015
     17 C          47.1070   15.0708  -16.3514 C.3     1  UNL1        0.0239
     18 C          48.5211   14.5011  -14.3153 C.3     1  UNL1        0.1617
     19 C          50.2395   13.2752  -13.3933 C.3     1  UNL1        0.1742
     20 O          48.8560   13.2908  -13.6681 O.3     1  UNL1       -0.3494
     21 C          51.9228   12.6155  -17.6761 C.2     1  UNL1        0.3459
     22 O          51.8694   13.0094  -16.4810 O.2     1  UNL1       -0.2445
     23 O          53.1201   12.1181  -18.1814 O.3     1  UNL1       -0.4767
     24 H          53.9465   12.0601  -17.5983 H       1  UNL1        0.2954
     25 N          47.4239   13.2836  -25.6637 N.am    1  UNL1       -0.2988
     26 C          46.5361   12.3467  -26.2909 C.2     1  UNL1        0.2624
     27 O          45.8707   11.5420  -25.5843 O.2     1  UNL1       -0.2685
     28 H          47.7228   14.1286  -26.2005 H       1  UNL1        0.1498
     29 C          46.3639   12.3245  -27.7551 C.ar    1  UNL1        0.1220
     30 N          46.6000   11.2298  -28.5073 N.ar    1  UNL1       -0.3515
     31 C          46.3819   11.5775  -29.7901 C.ar    1  UNL1        0.0456
     32 C          46.6045   10.6622  -30.9509 C.3     1  UNL1        0.0507
     33 C          46.0308   12.9115  -29.8674 C.ar    1  UNL1        0.0811
     34 CL         45.7419   13.8397  -31.3295 Cl      1  UNL1       -0.0802
     35 C          46.0137   13.3916  -28.5730 C.ar    1  UNL1        0.0893
     36 CL         45.7681   15.0702  -28.1135 Cl      1  UNL1       -0.0797
     37 H          46.9054   10.2918  -28.1634 H       1  UNL1        0.1658
     38 O          48.8259   15.3147  -24.7165 O.3     1  UNL1       -0.3501
     39 C          50.0026   15.5682  -25.4522 C.3     1  UNL1        0.1741
@<TRIPOS>BOND
     1    19    20    1
     2    20    18    1
     3    18    16    1
     4    16    17    1
     5    16    12    1
     6    12    13   am
     7    13    14    2
     8    13     7    1
     9     7     8   ar
    10     8     9   ar
    11     9     1    1
    12     1     2    1
    13     2     3    1
    14     3     4    1
    15     4    25    1
    16    25    26   am
    17    26    27    2
    18    26    29    1
    19    29    30   ar
    20    30    31   ar
    21    31    32    1
    22    31    33   ar
    23    33    34    1
    24    33    35   ar
    25    35    36    1
    26     4     5    1
    27     5    38    1
    28    38    39    1
    29     5     6    1
    30     9    10   ar
    31    10    11   ar
    32    11    21    1
    33    21    22    2
    34    21    23    1
    35    11     7   ar
    36     6     1    1
    37    35    29   ar
    38    12    15    1
    39    25    28    1
    40    30    37    1
    41    23    24    1
