@<TRIPOS>MOLECULE
*****
 41 45 0 0 0
SMALL
GASTEIGER

@<TRIPOS>ATOM
      1 C          -7.2006  -16.0699   24.5692 C.ar    1  UNL1        0.0045
      2 C          -8.1930  -16.4673   25.5149 C.ar    1  UNL1        0.0882
      3 C          -9.1181  -17.4902   25.1778 C.ar    1  UNL1        0.1779
      4 C          -9.0483  -18.1438   23.9329 C.ar    1  UNL1        0.1896
      5 C          -8.0669  -17.7369   23.0292 C.ar    1  UNL1        0.1170
      6 C          -7.1826  -16.7410   23.3371 C.ar    1  UNL1        0.0993
      7 N          -6.3323  -16.5402   22.3126 N.ar    1  UNL1       -0.2137
      8 C          -6.7358  -17.4496   21.3891 C.ar    1  UNL1        0.2018
      9 N          -7.7883  -18.2070   21.7980 N.ar    1  UNL1       -0.2950
     10 C          -8.4761  -19.2724   21.0681 C.3     1  UNL1        0.1333
     11 O          -9.9564  -19.1668   23.6434 O.3     1  UNL1       -0.4669
     12 C         -10.7608  -19.7507   24.6696 C.3     1  UNL1        0.2527
     13 C         -11.2346  -18.6701   25.6483 C.3     1  UNL1        0.2526
     14 O         -10.1295  -17.8680   26.0709 O.3     1  UNL1       -0.4682
     15 C          -8.2861  -15.8399   26.8480 C.2     1  UNL1        0.2523
     16 O          -7.9801  -16.5134   27.8691 O.2     1  UNL1       -0.2697
     17 N          -8.8045  -14.5090   26.9865 N.am    1  UNL1       -0.2803
     18 H          -9.3994  -14.1366   26.2116 H       1  UNL1        0.1552
     19 C          -8.6104  -13.6897   28.1518 C.ar    1  UNL1        0.0506
     20 C          -7.3347  -13.2259   28.5140 C.ar    1  UNL1        0.0170
     21 C          -7.1750  -12.4072   29.6331 C.ar    1  UNL1        0.0309
     22 C          -8.2830  -12.0327   30.3966 C.ar    1  UNL1        0.1441
     23 F          -8.1004  -11.2314   31.4771 F       1  UNL1       -0.2042
     24 C          -9.5716  -12.4720   30.0412 C.ar    1  UNL1        0.1000
     25 C          -9.7245  -13.2931   28.9073 C.ar    1  UNL1        0.0208
     26 C         -10.7619  -12.0440   30.8662 C.3     1  UNL1        0.4207
     27 F         -10.7855  -12.7586   32.0503 F       1  UNL1       -0.1658
     28 F         -11.9551  -12.2628   30.1993 F       1  UNL1       -0.1658
     29 F         -10.6600  -10.6953   31.1549 F       1  UNL1       -0.1658
     30 C          -4.9938  -15.7115   25.6918 C.3     1  UNL1        0.0051
     31 C          -6.1170  -15.0620   24.8901 C.3     1  UNL1        0.0282
     32 N          -6.1377  -17.5467   20.0872 N.pl3   1  UNL1       -0.2814
     33 H          -6.6965  -17.2556   19.2557 H       1  UNL1        0.1551
     34 C          -4.7434  -17.8414   19.9012 C.ar    1  UNL1        0.0889
     35 C          -3.8278  -16.8131   19.6008 C.ar    1  UNL1        0.1543
     36 F          -4.2398  -15.5235   19.5086 F       1  UNL1       -0.2028
     37 C          -2.4709  -17.1049   19.4340 C.ar    1  UNL1        0.0310
     38 C          -2.0124  -18.4158   19.5744 C.ar    1  UNL1        0.0033
     39 C          -2.9081  -19.4396   19.8888 C.ar    1  UNL1        0.0128
     40 C          -4.2692  -19.1597   20.0588 C.ar    1  UNL1        0.0733
     41 CL         -5.3636  -20.4862   20.4291 Cl      1  UNL1       -0.0809
@<TRIPOS>BOND
     1    30    31    1
     2    31     1    1
     3     1     2   ar
     4     2    15    1
     5    15    16    2
     6    15    17   am
     7    17    19    1
     8    19    20   ar
     9    20    21   ar
    10    21    22   ar
    11    22    23    1
    12    22    24   ar
    13    24    26    1
    14    26    27    1
    15    26    28    1
    16    26    29    1
    17    24    25   ar
    18     2     3   ar
    19     3     4   ar
    20     4     5   ar
    21     5     6   ar
    22     6     7   ar
    23     7     8   ar
    24     8    32    1
    25    32    34    1
    26    34    35   ar
    27    35    36    1
    28    35    37   ar
    29    37    38   ar
    30    38    39   ar
    31    39    40   ar
    32    40    41    1
    33     8     9   ar
    34     9    10    1
    35     4    11    1
    36    11    12    1
    37    12    13    1
    38    13    14    1
    39     6     1   ar
    40    40    34   ar
    41    25    19   ar
    42    14     3    1
    43     9     5   ar
    44    17    18    1
    45    32    33    1
@<TRIPOS>MOLECULE
*****
 41 45 0 0 0
SMALL
GASTEIGER

@<TRIPOS>ATOM
      1 C          -9.8824  -10.7263   30.9648 C.ar    1  UNL1        0.0045
      2 C         -11.2541  -10.3646   31.1227 C.ar    1  UNL1        0.0882
      3 C         -11.6327   -8.9972   31.0698 C.ar    1  UNL1        0.1779
      4 C         -10.6760   -7.9929   30.8287 C.ar    1  UNL1        0.1896
      5 C          -9.3435   -8.3754   30.6756 C.ar    1  UNL1        0.1170
      6 C          -8.9659   -9.6875   30.7424 C.ar    1  UNL1        0.0993
      7 N          -7.6374   -9.7997   30.5540 N.ar    1  UNL1       -0.2137
      8 C          -7.2386   -8.5154   30.3692 C.ar    1  UNL1        0.2018
      9 N          -8.2581   -7.6176   30.4262 N.ar    1  UNL1       -0.2950
     10 C          -8.1952   -6.1638   30.2735 C.3     1  UNL1        0.1333
     11 O         -11.0865   -6.6584   30.7541 O.3     1  UNL1       -0.4669
     12 C         -12.4690   -6.3177   30.6362 C.3     1  UNL1        0.2527
     13 C         -13.3184   -7.2483   31.5093 C.3     1  UNL1        0.2526
     14 O         -12.9655   -8.6120   31.2660 O.3     1  UNL1       -0.4682
     15 C         -12.3019  -11.3813   31.3408 C.2     1  UNL1        0.2523
     16 O         -13.1774  -11.5648   30.4520 O.2     1  UNL1       -0.2697
     17 N         -12.3755  -12.0885   32.5872 N.am    1  UNL1       -0.2803
     18 H         -11.9119  -11.6563   33.4187 H       1  UNL1        0.1552
     19 C         -13.1031  -13.3145   32.7723 C.ar    1  UNL1        0.0506
     20 C         -14.3942  -13.3207   33.3263 C.ar    1  UNL1        0.0170
     21 C         -15.0930  -14.5204   33.4690 C.ar    1  UNL1        0.0309
     22 C         -14.5197  -15.7242   33.0525 C.ar    1  UNL1        0.1441
     23 F         -15.2232  -16.8760   33.1980 F       1  UNL1       -0.2042
     24 C         -13.2349  -15.7379   32.4793 C.ar    1  UNL1        0.1000
     25 C         -12.5390  -14.5222   32.3338 C.ar    1  UNL1        0.0208
     26 C         -12.6358  -17.0450   32.0174 C.3     1  UNL1        0.4207
     27 F         -12.4874  -17.0259   30.6423 F       1  UNL1       -0.1658
     28 F         -13.4334  -18.1244   32.3564 F       1  UNL1       -0.1658
     29 F         -11.3944  -17.2141   32.6031 F       1  UNL1       -0.1658
     30 C          -9.5673  -12.7273   29.4967 C.3     1  UNL1        0.0051
     31 C          -9.4139  -12.1651   30.9062 C.3     1  UNL1        0.0282
     32 N          -5.8606   -8.1516   30.1936 N.pl3   1  UNL1       -0.2814
     33 H          -5.4823   -8.0727   29.2244 H       1  UNL1        0.1551
     34 C          -5.0382   -7.7040   31.2839 C.ar    1  UNL1        0.0889
     35 C          -4.5599   -6.3789   31.3233 C.ar    1  UNL1        0.1543
     36 F          -4.8886   -5.4942   30.3483 F       1  UNL1       -0.2028
     37 C          -3.7712   -5.9465   32.3934 C.ar    1  UNL1        0.0310
     38 C          -3.4611   -6.8219   33.4355 C.ar    1  UNL1        0.0033
     39 C          -3.9440   -8.1317   33.4152 C.ar    1  UNL1        0.0128
     40 C          -4.7351   -8.5762   32.3492 C.ar    1  UNL1        0.0733
     41 CL         -5.2994  -10.2424   32.3547 Cl      1  UNL1       -0.0809
@<TRIPOS>BOND
     1    30    31    1
     2    31     1    1
     3     1     2   ar
     4     2    15    1
     5    15    16    2
     6    15    17   am
     7    17    19    1
     8    19    20   ar
     9    20    21   ar
    10    21    22   ar
    11    22    23    1
    12    22    24   ar
    13    24    26    1
    14    26    27    1
    15    26    28    1
    16    26    29    1
    17    24    25   ar
    18     2     3   ar
    19     3     4   ar
    20     4     5   ar
    21     5     6   ar
    22     6     7   ar
    23     7     8   ar
    24     8    32    1
    25    32    34    1
    26    34    35   ar
    27    35    36    1
    28    35    37   ar
    29    37    38   ar
    30    38    39   ar
    31    39    40   ar
    32    40    41    1
    33     8     9   ar
    34     9    10    1
    35     4    11    1
    36    11    12    1
    37    12    13    1
    38    13    14    1
    39     6     1   ar
    40    40    34   ar
    41    25    19   ar
    42    14     3    1
    43     9     5   ar
    44    17    18    1
    45    32    33    1
@<TRIPOS>MOLECULE
*****
 41 45 0 0 0
SMALL
GASTEIGER

@<TRIPOS>ATOM
      1 C          -7.7225  -15.7083   25.4799 C.ar    1  UNL1        0.0045
      2 C          -6.4540  -15.1238   25.1858 C.ar    1  UNL1        0.0882
      3 C          -5.8298  -15.3861   23.9379 C.ar    1  UNL1        0.1779
      4 C          -6.4622  -16.1892   22.9699 C.ar    1  UNL1        0.1896
      5 C          -7.7023  -16.7452   23.2833 C.ar    1  UNL1        0.1170
      6 C          -8.3039  -16.5134   24.4887 C.ar    1  UNL1        0.0993
      7 N          -9.4906  -17.1470   24.5463 N.ar    1  UNL1       -0.2137
      8 C          -9.5771  -17.7583   23.3374 C.ar    1  UNL1        0.2018
      9 N          -8.5051  -17.5254   22.5341 N.ar    1  UNL1       -0.2950
     10 C          -8.2638  -18.0203   21.1785 C.3     1  UNL1        0.1333
     11 O          -5.8331  -16.4043   21.7399 O.3     1  UNL1       -0.4669
     12 C          -4.7136  -15.6139   21.3362 C.3     1  UNL1        0.2527
     13 C          -3.7986  -15.3426   22.5358 C.3     1  UNL1        0.2526
     14 O          -4.5649  -14.8608   23.6422 O.3     1  UNL1       -0.4682
     15 C          -5.7652  -14.2445   26.1511 C.2     1  UNL1        0.2523
     16 O          -4.5296  -14.0313   26.0179 O.2     1  UNL1       -0.2697
     17 N          -6.4751  -13.7116   27.2785 N.am    1  UNL1       -0.2803
     18 H          -7.3491  -14.2013   27.5776 H       1  UNL1        0.1552
     19 C          -6.0201  -12.5917   28.0568 C.ar    1  UNL1        0.0506
     20 C          -4.9951  -11.7495   27.5942 C.ar    1  UNL1        0.0170
     21 C          -4.5903  -10.6509   28.3540 C.ar    1  UNL1        0.0309
     22 C          -5.2076  -10.3725   29.5756 C.ar    1  UNL1        0.1441
     23 F          -4.7982   -9.2946   30.2921 F       1  UNL1       -0.2042
     24 C          -6.2478  -11.1933   30.0489 C.ar    1  UNL1        0.1000
     25 C          -6.6539  -12.2963   29.2734 C.ar    1  UNL1        0.0208
     26 C          -6.9176  -10.8689   31.3630 C.3     1  UNL1        0.4207
     27 F          -8.0312  -11.6731   31.5258 F       1  UNL1       -0.1658
     28 F          -7.3209   -9.5460   31.4218 F       1  UNL1       -0.1658
     29 F          -6.0340  -11.1061   32.4002 F       1  UNL1       -0.1658
     30 C          -8.4351  -16.5650   27.7198 C.3     1  UNL1        0.0051
     31 C          -8.4980  -15.3958   26.7424 C.3     1  UNL1        0.0282
     32 N         -10.6730  -18.6152   22.9812 N.pl3   1  UNL1       -0.2814
     33 H         -10.4828  -19.4526   22.3887 H       1  UNL1        0.1551
     34 C         -11.9790  -18.4767   23.5649 C.ar    1  UNL1        0.0889
     35 C         -12.2223  -18.9038   24.8856 C.ar    1  UNL1        0.1543
     36 F         -11.2233  -19.4279   25.6396 F       1  UNL1       -0.2028
     37 C         -13.4918  -18.7542   25.4515 C.ar    1  UNL1        0.0310
     38 C         -14.5242  -18.1708   24.7152 C.ar    1  UNL1        0.0033
     39 C         -14.2898  -17.7284   23.4119 C.ar    1  UNL1        0.0128
     40 C         -13.0226  -17.8724   22.8345 C.ar    1  UNL1        0.0733
     41 CL        -12.7816  -17.3234   21.1808 Cl      1  UNL1       -0.0809
@<TRIPOS>BOND
     1    30    31    1
     2    31     1    1
     3     1     2   ar
     4     2    15    1
     5    15    16    2
     6    15    17   am
     7    17    19    1
     8    19    20   ar
     9    20    21   ar
    10    21    22   ar
    11    22    23    1
    12    22    24   ar
    13    24    26    1
    14    26    27    1
    15    26    28    1
    16    26    29    1
    17    24    25   ar
    18     2     3   ar
    19     3     4   ar
    20     4     5   ar
    21     5     6   ar
    22     6     7   ar
    23     7     8   ar
    24     8    32    1
    25    32    34    1
    26    34    35   ar
    27    35    36    1
    28    35    37   ar
    29    37    38   ar
    30    38    39   ar
    31    39    40   ar
    32    40    41    1
    33     8     9   ar
    34     9    10    1
    35     4    11    1
    36    11    12    1
    37    12    13    1
    38    13    14    1
    39     6     1   ar
    40    40    34   ar
    41    25    19   ar
    42    14     3    1
    43     9     5   ar
    44    17    18    1
    45    32    33    1
@<TRIPOS>MOLECULE
*****
 41 45 0 0 0
SMALL
GASTEIGER

@<TRIPOS>ATOM
      1 C          -7.0041  -15.5092   25.1623 C.ar    1  UNL1        0.0045
      2 C          -8.0724  -16.0126   25.9639 C.ar    1  UNL1        0.0882
      3 C          -8.8810  -17.0724   25.4752 C.ar    1  UNL1        0.1779
      4 C          -8.6214  -17.6585   24.2218 C.ar    1  UNL1        0.1896
      5 C          -7.5696  -17.1483   23.4611 C.ar    1  UNL1        0.1170
      6 C          -6.7962  -16.1165   23.9147 C.ar    1  UNL1        0.0993
      7 N          -5.8463  -15.8139   23.0096 N.ar    1  UNL1       -0.2137
      8 C          -6.0765  -16.6998   22.0072 C.ar    1  UNL1        0.2018
      9 N          -7.1170  -17.5394   22.2541 N.ar    1  UNL1       -0.2950
     10 C          -7.6413  -18.6077   21.4028 C.3     1  UNL1        0.1333
     11 O          -9.4188  -18.7197   23.7825 O.3     1  UNL1       -0.4669
     12 C         -10.2979  -19.4015   24.6788 C.3     1  UNL1        0.2527
     13 C         -10.9548  -18.4014   25.6371 C.3     1  UNL1        0.2526
     14 O          -9.9632  -17.5548   26.2231 O.3     1  UNL1       -0.4682
     15 C          -8.3637  -15.4583   27.3008 C.2     1  UNL1        0.2523
     16 O          -8.0589  -16.1273   28.3252 O.2     1  UNL1       -0.2697
     17 N          -9.0666  -14.2141   27.4306 N.am    1  UNL1       -0.2803
     18 H          -9.6372  -13.8916   26.6161 H       1  UNL1        0.1552
     19 C          -9.0859  -13.4251   28.6322 C.ar    1  UNL1        0.0506
     20 C         -10.1865  -13.4511   29.5051 C.ar    1  UNL1        0.0170
     21 C         -10.1701  -12.6993   30.6809 C.ar    1  UNL1        0.0309
     22 C          -9.0554  -11.9229   31.0059 C.ar    1  UNL1        0.1441
     23 F          -9.0635  -11.2053   32.1582 F       1  UNL1       -0.2042
     24 C          -7.9358  -11.8964   30.1542 C.ar    1  UNL1        0.1000
     25 C          -7.9583  -12.6624   28.9727 C.ar    1  UNL1        0.0208
     26 C          -6.7309  -11.0662   30.5282 C.3     1  UNL1        0.4207
     27 F          -6.2032  -11.5274   31.7207 F       1  UNL1       -0.1658
     28 F          -7.0552   -9.7292   30.6813 F       1  UNL1       -0.1658
     29 F          -5.7718  -11.1758   29.5378 F       1  UNL1       -0.1658
     30 C          -4.7216  -15.0891   26.0965 C.3     1  UNL1        0.0051
     31 C          -6.0355  -14.4538   25.6534 C.3     1  UNL1        0.0282
     32 N          -5.3239  -16.6959   20.7842 N.pl3   1  UNL1       -0.2814
     33 H          -5.5331  -15.9658   20.0689 H       1  UNL1        0.1551
     34 C          -4.1696  -17.5295   20.5887 C.ar    1  UNL1        0.0889
     35 C          -4.2725  -18.7389   19.8726 C.ar    1  UNL1        0.1543
     36 F          -5.4553  -19.1255   19.3315 F       1  UNL1       -0.2028
     37 C          -3.1429  -19.5385   19.6749 C.ar    1  UNL1        0.0310
     38 C          -1.9033  -19.1387   20.1767 C.ar    1  UNL1        0.0033
     39 C          -1.7866  -17.9340   20.8728 C.ar    1  UNL1        0.0128
     40 C          -2.9104  -17.1245   21.0767 C.ar    1  UNL1        0.0733
     41 CL         -2.7194  -15.6282   21.9816 Cl      1  UNL1       -0.0809
@<TRIPOS>BOND
     1    30    31    1
     2    31     1    1
     3     1     2   ar
     4     2    15    1
     5    15    16    2
     6    15    17   am
     7    17    19    1
     8    19    20   ar
     9    20    21   ar
    10    21    22   ar
    11    22    23    1
    12    22    24   ar
    13    24    26    1
    14    26    27    1
    15    26    28    1
    16    26    29    1
    17    24    25   ar
    18     2     3   ar
    19     3     4   ar
    20     4     5   ar
    21     5     6   ar
    22     6     7   ar
    23     7     8   ar
    24     8    32    1
    25    32    34    1
    26    34    35   ar
    27    35    36    1
    28    35    37   ar
    29    37    38   ar
    30    38    39   ar
    31    39    40   ar
    32    40    41    1
    33     8     9   ar
    34     9    10    1
    35     4    11    1
    36    11    12    1
    37    12    13    1
    38    13    14    1
    39     6     1   ar
    40    40    34   ar
    41    25    19   ar
    42    14     3    1
    43     9     5   ar
    44    17    18    1
    45    32    33    1
@<TRIPOS>MOLECULE
*****
 41 45 0 0 0
SMALL
GASTEIGER

@<TRIPOS>ATOM
      1 C          -9.8210  -10.4996   30.9157 C.ar    1  UNL1        0.0045
      2 C         -11.0851  -10.1010   31.4454 C.ar    1  UNL1        0.0882
      3 C         -11.4393   -8.7262   31.4641 C.ar    1  UNL1        0.1779
      4 C         -10.5729   -7.7511   30.9346 C.ar    1  UNL1        0.1896
      5 C          -9.3453   -8.1694   30.4213 C.ar    1  UNL1        0.1170
      6 C          -8.9872   -9.4886   30.4146 C.ar    1  UNL1        0.0993
      7 N          -7.7688   -9.6374   29.8610 N.ar    1  UNL1       -0.2137
      8 C          -7.4165   -8.3675   29.5356 C.ar    1  UNL1        0.2018
      9 N          -8.3622   -7.4440   29.8541 N.ar    1  UNL1       -0.2950
     10 C          -8.3198   -5.9957   29.6498 C.3     1  UNL1        0.1333
     11 O         -10.9643   -6.4089   30.9424 O.3     1  UNL1       -0.4669
     12 C         -12.3173   -6.0370   31.2112 C.3     1  UNL1        0.2527
     13 C         -12.9005   -6.9275   32.3144 C.3     1  UNL1        0.2526
     14 O         -12.6549   -8.3044   32.0188 O.3     1  UNL1       -0.4682
     15 C         -12.0456  -11.0869   31.9790 C.2     1  UNL1        0.2523
     16 O         -13.2509  -11.0341   31.6123 O.2     1  UNL1       -0.2697
     17 N         -11.6311  -12.0368   32.9714 N.am    1  UNL1       -0.2803
     18 H         -10.7755  -11.8139   33.5293 H       1  UNL1        0.1552
     19 C         -12.3583  -13.2361   33.2873 C.ar    1  UNL1        0.0506
     20 C         -13.1640  -13.3204   34.4352 C.ar    1  UNL1        0.0170
     21 C         -13.8841  -14.4851   34.7055 C.ar    1  UNL1        0.0309
     22 C         -13.8190  -15.5731   33.8320 C.ar    1  UNL1        0.1441
     23 F         -14.5335  -16.6918   34.1160 F       1  UNL1       -0.2042
     24 C         -13.0319  -15.5030   32.6679 C.ar    1  UNL1        0.1000
     25 C         -12.3130  -14.3221   32.3998 C.ar    1  UNL1        0.0208
     26 C         -12.9859  -16.6810   31.7240 C.3     1  UNL1        0.4207
     27 F         -13.8931  -16.4876   30.6979 F       1  UNL1       -0.1658
     28 F         -13.2980  -17.8669   32.3662 F       1  UNL1       -0.1658
     29 F         -11.7155  -16.7916   31.1885 F       1  UNL1       -0.1658
     30 C          -9.9596  -12.5353   29.4682 C.3     1  UNL1        0.0051
     31 C          -9.4135  -11.9504   30.7666 C.3     1  UNL1        0.0282
     32 N          -6.1387   -8.0414   28.9673 N.pl3   1  UNL1       -0.2814
     33 H          -5.9008   -7.0377   28.8110 H       1  UNL1        0.1551
     34 C          -5.1037   -9.0223   28.7876 C.ar    1  UNL1        0.0889
     35 C          -4.7333   -9.4442   27.4950 C.ar    1  UNL1        0.1543
     36 F          -5.3266   -8.9134   26.3962 F       1  UNL1       -0.2028
     37 C          -3.7168  -10.3891   27.3270 C.ar    1  UNL1        0.0310
     38 C          -3.0547  -10.9129   28.4385 C.ar    1  UNL1        0.0033
     39 C          -3.4018  -10.4892   29.7228 C.ar    1  UNL1        0.0128
     40 C          -4.4177   -9.5432   29.9037 C.ar    1  UNL1        0.0733
     41 CL         -4.8376   -9.0589   31.5419 Cl      1  UNL1       -0.0809
@<TRIPOS>BOND
     1    30    31    1
     2    31     1    1
     3     1     2   ar
     4     2    15    1
     5    15    16    2
     6    15    17   am
     7    17    19    1
     8    19    20   ar
     9    20    21   ar
    10    21    22   ar
    11    22    23    1
    12    22    24   ar
    13    24    26    1
    14    26    27    1
    15    26    28    1
    16    26    29    1
    17    24    25   ar
    18     2     3   ar
    19     3     4   ar
    20     4     5   ar
    21     5     6   ar
    22     6     7   ar
    23     7     8   ar
    24     8    32    1
    25    32    34    1
    26    34    35   ar
    27    35    36    1
    28    35    37   ar
    29    37    38   ar
    30    38    39   ar
    31    39    40   ar
    32    40    41    1
    33     8     9   ar
    34     9    10    1
    35     4    11    1
    36    11    12    1
    37    12    13    1
    38    13    14    1
    39     6     1   ar
    40    40    34   ar
    41    25    19   ar
    42    14     3    1
    43     9     5   ar
    44    17    18    1
    45    32    33    1
@<TRIPOS>MOLECULE
*****
 41 45 0 0 0
SMALL
GASTEIGER

@<TRIPOS>ATOM
      1 C          -8.3105  -14.1154   28.1945 C.ar    1  UNL1        0.0045
      2 C          -7.0432  -13.7487   27.6500 C.ar    1  UNL1        0.0882
      3 C          -6.3662  -12.6049   28.1491 C.ar    1  UNL1        0.1779
      4 C          -6.9131  -11.8448   29.2003 C.ar    1  UNL1        0.1896
      5 C          -8.1517  -12.2276   29.7149 C.ar    1  UNL1        0.1170
      6 C          -8.8200  -13.3168   29.2295 C.ar    1  UNL1        0.0993
      7 N          -9.9798  -13.4848   29.8926 N.ar    1  UNL1       -0.2137
      8 C          -9.9778  -12.4653   30.7887 C.ar    1  UNL1        0.2018
      9 N          -8.8690  -11.6817   30.7160 N.ar    1  UNL1       -0.2950
     10 C          -8.5355  -10.5061   31.5206 C.3     1  UNL1        0.1333
     11 O          -6.2071  -10.7409   29.6880 O.3     1  UNL1       -0.4669
     12 C          -4.8359  -10.5327   29.3454 C.3     1  UNL1        0.2527
     13 C          -4.5956  -10.9063   27.8782 C.3     1  UNL1        0.2526
     14 O          -5.1422  -12.1979   27.6018 O.3     1  UNL1       -0.4682
     15 C          -6.4084  -14.5329   26.5722 C.2     1  UNL1        0.2523
     16 O          -5.4025  -15.2452   26.8386 O.2     1  UNL1       -0.2697
     17 N          -6.8756  -14.4153   25.2206 N.am    1  UNL1       -0.2803
     18 H          -7.4190  -13.5588   24.9676 H       1  UNL1        0.1552
     19 C          -6.5830  -15.3685   24.1849 C.ar    1  UNL1        0.0506
     20 C          -7.5515  -16.2842   23.7406 C.ar    1  UNL1        0.0170
     21 C          -7.2535  -17.1805   22.7131 C.ar    1  UNL1        0.0309
     22 C          -5.9937  -17.1682   22.1099 C.ar    1  UNL1        0.1441
     23 F          -5.7319  -18.0472   21.1091 F       1  UNL1       -0.2042
     24 C          -5.0152  -16.2477   22.5280 C.ar    1  UNL1        0.1000
     25 C          -5.3261  -15.3429   23.5615 C.ar    1  UNL1        0.0208
     26 C          -3.6639  -16.2346   21.8539 C.3     1  UNL1        0.4207
     27 F          -3.0082  -17.4257   22.1081 F       1  UNL1       -0.1658
     28 F          -2.8725  -15.1939   22.3088 F       1  UNL1       -0.1658
     29 F          -3.8327  -16.0947   20.4884 F       1  UNL1       -0.1658
     30 C          -8.0944  -16.5675   27.7482 C.3     1  UNL1        0.0051
     31 C          -9.0453  -15.3757   27.7886 C.3     1  UNL1        0.0282
     32 N         -11.0772  -12.2158   31.6782 N.pl3   1  UNL1       -0.2814
     33 H         -11.6940  -11.3945   31.4952 H       1  UNL1        0.1551
     34 C         -11.4771  -13.1556   32.6893 C.ar    1  UNL1        0.0889
     35 C         -12.5507  -14.0396   32.4611 C.ar    1  UNL1        0.1543
     36 F         -13.2085  -14.0391   31.2743 F       1  UNL1       -0.2028
     37 C         -12.9261  -14.9601   33.4441 C.ar    1  UNL1        0.0310
     38 C         -12.2328  -15.0166   34.6542 C.ar    1  UNL1        0.0033
     39 C         -11.1567  -14.1572   34.8841 C.ar    1  UNL1        0.0128
     40 C         -10.7711  -13.2315   33.9073 C.ar    1  UNL1        0.0733
     41 CL         -9.4256  -12.1521   34.2522 Cl      1  UNL1       -0.0809
@<TRIPOS>BOND
     1    30    31    1
     2    31     1    1
     3     1     2   ar
     4     2    15    1
     5    15    16    2
     6    15    17   am
     7    17    19    1
     8    19    20   ar
     9    20    21   ar
    10    21    22   ar
    11    22    23    1
    12    22    24   ar
    13    24    26    1
    14    26    27    1
    15    26    28    1
    16    26    29    1
    17    24    25   ar
    18     2     3   ar
    19     3     4   ar
    20     4     5   ar
    21     5     6   ar
    22     6     7   ar
    23     7     8   ar
    24     8    32    1
    25    32    34    1
    26    34    35   ar
    27    35    36    1
    28    35    37   ar
    29    37    38   ar
    30    38    39   ar
    31    39    40   ar
    32    40    41    1
    33     8     9   ar
    34     9    10    1
    35     4    11    1
    36    11    12    1
    37    12    13    1
    38    13    14    1
    39     6     1   ar
    40    40    34   ar
    41    25    19   ar
    42    14     3    1
    43     9     5   ar
    44    17    18    1
    45    32    33    1
@<TRIPOS>MOLECULE
*****
 41 45 0 0 0
SMALL
GASTEIGER

@<TRIPOS>ATOM
      1 C          -8.3053  -14.0959   28.2060 C.ar    1  UNL1        0.0045
      2 C          -7.0364  -13.6995   27.6864 C.ar    1  UNL1        0.0882
      3 C          -6.3908  -12.5470   28.2068 C.ar    1  UNL1        0.1779
      4 C          -6.9705  -11.8072   29.2549 C.ar    1  UNL1        0.1896
      5 C          -8.2097  -12.2188   29.7449 C.ar    1  UNL1        0.1170
      6 C          -8.8479  -13.3167   29.2389 C.ar    1  UNL1        0.0993
      7 N         -10.0153  -13.5134   29.8805 N.ar    1  UNL1       -0.2137
      8 C         -10.0487  -12.5020   30.7852 C.ar    1  UNL1        0.2018
      9 N          -8.9546  -11.6961   30.7381 N.ar    1  UNL1       -0.2950
     10 C          -8.6583  -10.5212   31.5583 C.3     1  UNL1        0.1333
     11 O          -6.2950  -10.6939   29.7639 O.3     1  UNL1       -0.4669
     12 C          -4.9225  -10.4557   29.4466 C.3     1  UNL1        0.2527
     13 C          -4.6500  -10.8115   27.9806 C.3     1  UNL1        0.2526
     14 O          -5.1660  -12.1112   27.6839 O.3     1  UNL1       -0.4682
     15 C          -6.3679  -14.4614   26.6131 C.2     1  UNL1        0.2523
     16 O          -5.3384  -15.1365   26.8856 O.2     1  UNL1       -0.2697
     17 N          -6.8321  -14.3626   25.2588 N.am    1  UNL1       -0.2803
     18 H          -7.4048  -13.5266   25.0018 H       1  UNL1        0.1552
     19 C          -6.4997  -15.3057   24.2260 C.ar    1  UNL1        0.0506
     20 C          -5.2206  -15.3319   23.6453 C.ar    1  UNL1        0.0170
     21 C          -4.9120  -16.2761   22.6649 C.ar    1  UNL1        0.0309
     22 C          -5.8682  -17.2104   22.2600 C.ar    1  UNL1        0.1441
     23 F          -5.5401  -18.1211   21.3083 F       1  UNL1       -0.2042
     24 C          -7.1495  -17.2125   22.8411 C.ar    1  UNL1        0.1000
     25 C          -7.4507  -16.2600   23.8337 C.ar    1  UNL1        0.0208
     26 C          -8.1667  -18.2403   22.4055 C.3     1  UNL1        0.4207
     27 F          -9.3331  -18.0732   23.1301 F       1  UNL1       -0.1658
     28 F          -7.7098  -19.5319   22.6038 F       1  UNL1       -0.1658
     29 F          -8.4428  -18.0727   21.0608 F       1  UNL1       -0.1658
     30 C          -8.0362  -16.5422   27.7572 C.3     1  UNL1        0.0051
     31 C          -9.0079  -15.3668   27.7769 C.3     1  UNL1        0.0282
     32 N         -11.1678  -12.2821   31.6579 N.pl3   1  UNL1       -0.2814
     33 H         -11.8143  -11.4890   31.4542 H       1  UNL1        0.1551
     34 C         -11.5424  -13.2206   32.6798 C.ar    1  UNL1        0.0889
     35 C         -12.5875  -14.1400   32.4597 C.ar    1  UNL1        0.1543
     36 F         -13.2408  -14.1750   31.2709 F       1  UNL1       -0.2028
     37 C         -12.9381  -15.0588   33.4533 C.ar    1  UNL1        0.0310
     38 C         -12.2478  -15.0784   34.6663 C.ar    1  UNL1        0.0033
     39 C         -11.1993  -14.1835   34.8884 C.ar    1  UNL1        0.0128
     40 C         -10.8387  -13.2591   33.9009 C.ar    1  UNL1        0.0733
     41 CL         -9.5281  -12.1346   34.2360 Cl      1  UNL1       -0.0809
@<TRIPOS>BOND
     1    30    31    1
     2    31     1    1
     3     1     2   ar
     4     2    15    1
     5    15    16    2
     6    15    17   am
     7    17    19    1
     8    19    20   ar
     9    20    21   ar
    10    21    22   ar
    11    22    23    1
    12    22    24   ar
    13    24    26    1
    14    26    27    1
    15    26    28    1
    16    26    29    1
    17    24    25   ar
    18     2     3   ar
    19     3     4   ar
    20     4     5   ar
    21     5     6   ar
    22     6     7   ar
    23     7     8   ar
    24     8    32    1
    25    32    34    1
    26    34    35   ar
    27    35    36    1
    28    35    37   ar
    29    37    38   ar
    30    38    39   ar
    31    39    40   ar
    32    40    41    1
    33     8     9   ar
    34     9    10    1
    35     4    11    1
    36    11    12    1
    37    12    13    1
    38    13    14    1
    39     6     1   ar
    40    40    34   ar
    41    25    19   ar
    42    14     3    1
    43     9     5   ar
    44    17    18    1
    45    32    33    1
@<TRIPOS>MOLECULE
*****
 41 45 0 0 0
SMALL
GASTEIGER

@<TRIPOS>ATOM
      1 C          -5.2479  -17.4863   22.7132 C.ar    1  UNL1        0.0045
      2 C          -6.4684  -18.1011   22.3014 C.ar    1  UNL1        0.0882
      3 C          -6.4611  -19.0347   21.2316 C.ar    1  UNL1        0.1779
      4 C          -5.2581  -19.3891   20.5921 C.ar    1  UNL1        0.1896
      5 C          -4.0802  -18.7745   21.0169 C.ar    1  UNL1        0.1170
      6 C          -4.0789  -17.8614   22.0340 C.ar    1  UNL1        0.0993
      7 N          -2.8269  -17.4222   22.2637 N.ar    1  UNL1       -0.2137
      8 C          -2.0848  -18.1052   21.3552 C.ar    1  UNL1        0.2018
      9 N          -2.8175  -18.9504   20.5822 N.ar    1  UNL1       -0.2950
     10 C          -2.3521  -19.8332   19.5120 C.3     1  UNL1        0.1333
     11 O          -5.2817  -20.3331   19.5610 O.3     1  UNL1       -0.4669
     12 C          -6.4345  -21.1453   19.3313 C.3     1  UNL1        0.2527
     13 C          -7.7105  -20.3205   19.5349 C.3     1  UNL1        0.2526
     14 O          -7.6515  -19.6188   20.7789 O.3     1  UNL1       -0.4682
     15 C          -7.7516  -17.7924   22.9628 C.2     1  UNL1        0.2523
     16 O          -8.0018  -16.6029   23.2981 O.2     1  UNL1       -0.2697
     17 N          -8.6635  -18.8476   23.3008 N.am    1  UNL1       -0.2803
     18 H          -8.2783  -19.8167   23.3754 H       1  UNL1        0.1552
     19 C         -10.0526  -18.6400   23.6073 C.ar    1  UNL1        0.0506
     20 C         -10.5864  -19.0001   24.8560 C.ar    1  UNL1        0.0170
     21 C         -11.9317  -18.7617   25.1414 C.ar    1  UNL1        0.0309
     22 C         -12.7567  -18.1532   24.1926 C.ar    1  UNL1        0.1441
     23 F         -14.0601  -17.9281   24.4980 F       1  UNL1       -0.2042
     24 C         -12.2379  -17.7691   22.9425 C.ar    1  UNL1        0.1000
     25 C         -10.8781  -18.0081   22.6648 C.ar    1  UNL1        0.0208
     26 C         -13.1381  -17.0959   21.9339 C.3     1  UNL1        0.4207
     27 F         -12.4467  -16.9049   20.7512 F       1  UNL1       -0.1658
     28 F         -13.5841  -15.8651   22.3836 F       1  UNL1       -0.1658
     29 F         -14.2368  -17.8997   21.6897 F       1  UNL1       -0.1658
     30 C          -5.0392  -15.1081   23.4612 C.3     1  UNL1        0.0051
     31 C          -5.1567  -16.5615   23.9088 C.3     1  UNL1        0.0282
     32 N          -0.6728  -17.8972   21.1973 N.pl3   1  UNL1       -0.2814
     33 H          -0.3132  -16.9195   21.1404 H       1  UNL1        0.1551
     34 C           0.2798  -18.9674   21.3100 C.ar    1  UNL1        0.0889
     35 C          -0.1319  -20.2532   21.7139 C.ar    1  UNL1        0.1543
     36 F          -1.4376  -20.5120   21.9772 F       1  UNL1       -0.2028
     37 C           0.7979  -21.2929   21.8089 C.ar    1  UNL1        0.0310
     38 C           2.1387  -21.0664   21.4939 C.ar    1  UNL1        0.0033
     39 C           2.5545  -19.8007   21.0761 C.ar    1  UNL1        0.0128
     40 C           1.6327  -18.7518   20.9767 C.ar    1  UNL1        0.0733
     41 CL          2.2078  -17.1683   20.4705 Cl      1  UNL1       -0.0809
@<TRIPOS>BOND
     1    30    31    1
     2    31     1    1
     3     1     2   ar
     4     2    15    1
     5    15    16    2
     6    15    17   am
     7    17    19    1
     8    19    20   ar
     9    20    21   ar
    10    21    22   ar
    11    22    23    1
    12    22    24   ar
    13    24    26    1
    14    26    27    1
    15    26    28    1
    16    26    29    1
    17    24    25   ar
    18     2     3   ar
    19     3     4   ar
    20     4     5   ar
    21     5     6   ar
    22     6     7   ar
    23     7     8   ar
    24     8    32    1
    25    32    34    1
    26    34    35   ar
    27    35    36    1
    28    35    37   ar
    29    37    38   ar
    30    38    39   ar
    31    39    40   ar
    32    40    41    1
    33     8     9   ar
    34     9    10    1
    35     4    11    1
    36    11    12    1
    37    12    13    1
    38    13    14    1
    39     6     1   ar
    40    40    34   ar
    41    25    19   ar
    42    14     3    1
    43     9     5   ar
    44    17    18    1
    45    32    33    1
@<TRIPOS>MOLECULE
*****
 41 45 0 0 0
SMALL
GASTEIGER

@<TRIPOS>ATOM
      1 C          -8.1814   -9.7684   30.7951 C.ar    1  UNL1        0.0045
      2 C          -9.5736   -9.4623   30.7236 C.ar    1  UNL1        0.0882
      3 C          -9.9924   -8.1116   30.5963 C.ar    1  UNL1        0.1779
      4 C          -9.0497   -7.0700   30.5049 C.ar    1  UNL1        0.1896
      5 C          -7.6960   -7.3985   30.5750 C.ar    1  UNL1        0.1170
      6 C          -7.2827   -8.6938   30.7152 C.ar    1  UNL1        0.0993
      7 N          -5.9379   -8.7525   30.7471 N.ar    1  UNL1       -0.2137
      8 C          -5.5655   -7.4537   30.6174 C.ar    1  UNL1        0.2018
      9 N          -6.6154   -6.5979   30.4986 N.ar    1  UNL1       -0.2950
     10 C          -6.5860   -5.1432   30.3441 C.3     1  UNL1        0.1333
     11 O          -9.4950   -5.7535   30.3513 O.3     1  UNL1       -0.4669
     12 C         -10.8521   -5.4697   30.0062 C.3     1  UNL1        0.2527
     13 C         -11.7952   -6.4314   30.7380 C.3     1  UNL1        0.2526
     14 O         -11.3536   -7.7804   30.5687 O.3     1  UNL1       -0.4682
     15 C         -10.6019  -10.5202   30.7777 C.2     1  UNL1        0.2523
     16 O         -10.7922  -11.2471   29.7651 O.2     1  UNL1       -0.2697
     17 N         -11.4358  -10.6599   31.9371 N.am    1  UNL1       -0.2803
     18 H         -11.5296   -9.8331   32.5700 H       1  UNL1        0.1552
     19 C         -12.1982  -11.8406   32.2393 C.ar    1  UNL1        0.0506
     20 C         -13.3671  -12.1571   31.5270 C.ar    1  UNL1        0.0170
     21 C         -14.0745  -13.3244   31.8186 C.ar    1  UNL1        0.0309
     22 C         -13.6211  -14.1938   32.8133 C.ar    1  UNL1        0.1441
     23 F         -14.3253  -15.3249   33.0732 F       1  UNL1       -0.2042
     24 C         -12.4434  -13.9043   33.5267 C.ar    1  UNL1        0.1000
     25 C         -11.7326  -12.7273   33.2223 C.ar    1  UNL1        0.0208
     26 C         -11.9562  -14.8630   34.5869 C.3     1  UNL1        0.4207
     27 F         -12.9088  -14.9737   35.5838 F       1  UNL1       -0.1658
     28 F         -10.7706  -14.4365   35.1602 F       1  UNL1       -0.1658
     29 F         -11.7486  -16.1077   34.0208 F       1  UNL1       -0.1658
     30 C          -6.8476  -11.4938   29.5693 C.3     1  UNL1        0.0051
     31 C          -7.6529  -11.1871   30.8277 C.3     1  UNL1        0.0282
     32 N          -4.1928   -7.0346   30.6655 N.pl3   1  UNL1       -0.2814
     33 H          -3.6314   -7.0543   29.7863 H       1  UNL1        0.1551
     34 C          -3.6198   -6.4084   31.8252 C.ar    1  UNL1        0.0889
     35 C          -2.5160   -5.5414   31.6993 C.ar    1  UNL1        0.1543
     36 F          -1.9911   -5.2603   30.4800 F       1  UNL1       -0.2028
     37 C          -1.9718   -4.9254   32.8301 C.ar    1  UNL1        0.0310
     38 C          -2.5253   -5.1570   34.0904 C.ar    1  UNL1        0.0033
     39 C          -3.6297   -6.0006   34.2245 C.ar    1  UNL1        0.0128
     40 C          -4.1837   -6.6228   33.0995 C.ar    1  UNL1        0.0733
     41 CL         -5.5588   -7.6972   33.3210 Cl      1  UNL1       -0.0809
@<TRIPOS>BOND
     1    30    31    1
     2    31     1    1
     3     1     2   ar
     4     2    15    1
     5    15    16    2
     6    15    17   am
     7    17    19    1
     8    19    20   ar
     9    20    21   ar
    10    21    22   ar
    11    22    23    1
    12    22    24   ar
    13    24    26    1
    14    26    27    1
    15    26    28    1
    16    26    29    1
    17    24    25   ar
    18     2     3   ar
    19     3     4   ar
    20     4     5   ar
    21     5     6   ar
    22     6     7   ar
    23     7     8   ar
    24     8    32    1
    25    32    34    1
    26    34    35   ar
    27    35    36    1
    28    35    37   ar
    29    37    38   ar
    30    38    39   ar
    31    39    40   ar
    32    40    41    1
    33     8     9   ar
    34     9    10    1
    35     4    11    1
    36    11    12    1
    37    12    13    1
    38    13    14    1
    39     6     1   ar
    40    40    34   ar
    41    25    19   ar
    42    14     3    1
    43     9     5   ar
    44    17    18    1
    45    32    33    1
