@<TRIPOS>MOLECULE
*****
 37 41 0 0 0
SMALL
GASTEIGER

@<TRIPOS>ATOM
      1 C         -26.4087   -7.7791  -10.9888 C.2     1  UNL1        0.3045
      2 O         -27.1451   -8.1473  -10.0335 O.2     1  UNL1       -0.2647
      3 N         -24.9756   -7.7608  -10.8183 N.am    1  UNL1       -0.2720
      4 C         -24.1337   -6.8435  -11.6041 C.3     1  UNL1        0.0976
      5 C         -22.8238   -6.5313  -10.8724 C.3     1  UNL1        0.0651
      6 C         -22.0353   -7.8103  -10.5009 C.3     1  UNL1        0.1693
      7 C         -22.9548   -9.0129  -10.1881 C.3     1  UNL1        0.0651
      8 C         -24.3629   -8.5845   -9.7657 C.3     1  UNL1        0.0976
      9 C         -27.5632   -6.3503  -13.9875 C.ar    1  UNL1        0.2501
     10 N         -28.2913   -7.4844  -13.9977 N.ar    1  UNL1       -0.1068
     11 N         -27.9623   -8.1484  -12.9005 N.ar    1  UNL1       -0.1021
     12 C         -27.0478   -7.3945  -12.2603 C.ar    1  UNL1        0.3042
     13 O         -26.7972   -6.2925  -12.9247 O.2     1  UNL1       -0.4122
     14 C         -27.7107   -3.3165  -17.0237 C.ar    1  UNL1        0.1387
     15 C         -26.4881   -3.9236  -16.6799 C.ar    1  UNL1        0.0371
     16 C         -26.4447   -4.9113  -15.6912 C.ar    1  UNL1        0.0078
     17 C         -27.6181   -5.3084  -15.0308 C.ar    1  UNL1        0.0553
     18 C         -28.8366   -4.7016  -15.3750 C.ar    1  UNL1        0.0078
     19 C         -28.8789   -3.7143  -16.3638 C.ar    1  UNL1        0.0371
     20 C         -28.8700   -2.2228  -18.9498 C.3     1  UNL1        0.2525
     21 O         -27.8066   -2.3216  -18.0080 O.3     1  UNL1       -0.4714
     22 O         -21.1519   -8.1784  -11.5647 O.3     1  UNL1       -0.4791
     23 C         -21.4234   -9.1200  -12.5716 C.ar    1  UNL1        0.1384
     24 C         -21.7722   -8.6445  -13.8403 C.ar    1  UNL1        0.0366
     25 C         -22.0437   -9.5330  -14.8836 C.ar    1  UNL1        0.0002
     26 C         -21.9551  -10.9194  -14.6781 C.ar    1  UNL1       -0.0059
     27 C         -21.6355  -11.3993  -13.3980 C.ar    1  UNL1        0.0002
     28 C         -21.3647  -10.5101  -12.3539 C.ar    1  UNL1        0.0366
     29 C         -22.2596  -11.8821  -15.8083 C.3     1  UNL1        0.0991
     30 N         -22.7806  -13.2033  -15.3826 N.3     1  UNL1       -0.2703
     31 C         -22.0799  -14.3467  -15.9642 C.3     1  UNL1        0.0724
     32 C         -22.9786  -15.5434  -15.7300 C.3     1  UNL1        0.0187
     33 C         -24.3884  -14.9740  -15.6911 C.3     1  UNL1        0.0174
     34 C         -24.2190  -13.4464  -15.5842 C.3     1  UNL1        0.0578
     35 C         -25.0615  -12.7829  -14.4585 C.3     1  UNL1        0.0147
     36 C         -26.0424  -13.7546  -13.7810 C.3     1  UNL1        0.0014
     37 C         -25.7925  -11.5287  -14.9584 C.3     1  UNL1        0.0014
@<TRIPOS>BOND
     1    20    21    1
     2    21    14    1
     3    14    15   ar
     4    15    16   ar
     5    16    17   ar
     6    17     9    1
     7     9    10   ar
     8    10    11   ar
     9    11    12   ar
    10    12     1    1
    11     1     2    2
    12     1     3   am
    13     3     4    1
    14     4     5    1
    15     5     6    1
    16     6    22    1
    17    22    23    1
    18    23    24   ar
    19    24    25   ar
    20    25    26   ar
    21    26    29    1
    22    29    30    1
    23    30    31    1
    24    31    32    1
    25    32    33    1
    26    33    34    1
    27    34    35    1
    28    35    36    1
    29    35    37    1
    30    26    27   ar
    31    27    28   ar
    32     6     7    1
    33     7     8    1
    34    12    13   ar
    35    17    18   ar
    36    18    19   ar
    37    19    14   ar
    38    13     9   ar
    39     8     3    1
    40    28    23   ar
    41    34    30    1
@<TRIPOS>MOLECULE
*****
 37 41 0 0 0
SMALL
GASTEIGER

@<TRIPOS>ATOM
      1 C         -26.0836   -7.7580  -11.0694 C.2     1  UNL1        0.3045
      2 O         -27.1826   -7.9341  -10.4765 O.2     1  UNL1       -0.2647
      3 N         -24.8549   -8.1609  -10.4284 N.am    1  UNL1       -0.2720
      4 C         -23.5815   -7.4963  -10.7520 C.3     1  UNL1        0.0976
      5 C         -22.5901   -7.6040   -9.5884 C.3     1  UNL1        0.0651
      6 C         -22.3446   -9.0695   -9.1551 C.3     1  UNL1        0.1693
      7 C         -23.5902   -9.9664   -9.3378 C.3     1  UNL1        0.0651
      8 C         -24.8956   -9.1661   -9.3561 C.3     1  UNL1        0.0976
      9 C         -26.6353   -6.0155  -14.0738 C.ar    1  UNL1        0.2501
     10 N         -25.5201   -6.6885  -14.4195 N.ar    1  UNL1       -0.1068
     11 N         -25.1796   -7.4126  -13.3646 N.ar    1  UNL1       -0.1021
     12 C         -26.1003   -7.1567  -12.4154 C.ar    1  UNL1        0.3042
     13 O         -26.9932   -6.2980  -12.8442 O.2     1  UNL1       -0.4122
     14 C         -28.7599   -3.3111  -16.6461 C.ar    1  UNL1        0.1387
     15 C         -29.4603   -4.1637  -15.7719 C.ar    1  UNL1        0.0371
     16 C         -28.7646   -5.0422  -14.9358 C.ar    1  UNL1        0.0078
     17 C         -27.3616   -5.0843  -14.9583 C.ar    1  UNL1        0.0553
     18 C         -26.6648   -4.2332  -15.8310 C.ar    1  UNL1        0.0078
     19 C         -27.3614   -3.3550  -16.6664 C.ar    1  UNL1        0.0371
     20 C         -29.0471   -2.1911  -18.8626 C.3     1  UNL1        0.2525
     21 O         -29.4115   -2.4126  -17.5040 O.3     1  UNL1       -0.4714
     22 O         -21.2633   -9.6360   -9.9019 O.3     1  UNL1       -0.4791
     23 C         -21.3687  -10.2676  -11.1525 C.ar    1  UNL1        0.1384
     24 C         -21.0916  -11.6372  -11.2234 C.ar    1  UNL1        0.0366
     25 C         -21.1891  -12.3213  -12.4375 C.ar    1  UNL1        0.0002
     26 C         -21.5827  -11.6464  -13.6044 C.ar    1  UNL1       -0.0059
     27 C         -21.8312  -10.2660  -13.5419 C.ar    1  UNL1        0.0002
     28 C         -21.7328   -9.5814  -12.3271 C.ar    1  UNL1        0.0366
     29 C         -21.6783  -12.3879  -14.9226 C.3     1  UNL1        0.0991
     30 N         -22.5682  -13.5737  -14.9113 N.3     1  UNL1       -0.2703
     31 C         -22.1020  -14.6886  -15.7339 C.3     1  UNL1        0.0724
     32 C         -23.2957  -15.6066  -15.8983 C.3     1  UNL1        0.0187
     33 C         -24.5089  -14.6943  -15.8021 C.3     1  UNL1        0.0174
     34 C         -23.9786  -13.3491  -15.2701 C.3     1  UNL1        0.0578
     35 C         -24.7770  -12.7736  -14.0666 C.3     1  UNL1        0.0147
     36 C         -25.8566  -13.7336  -13.5390 C.3     1  UNL1        0.0014
     37 C         -25.3789  -11.3982  -14.3880 C.3     1  UNL1        0.0014
@<TRIPOS>BOND
     1    20    21    1
     2    21    14    1
     3    14    15   ar
     4    15    16   ar
     5    16    17   ar
     6    17     9    1
     7     9    10   ar
     8    10    11   ar
     9    11    12   ar
    10    12     1    1
    11     1     2    2
    12     1     3   am
    13     3     4    1
    14     4     5    1
    15     5     6    1
    16     6    22    1
    17    22    23    1
    18    23    24   ar
    19    24    25   ar
    20    25    26   ar
    21    26    29    1
    22    29    30    1
    23    30    31    1
    24    31    32    1
    25    32    33    1
    26    33    34    1
    27    34    35    1
    28    35    36    1
    29    35    37    1
    30    26    27   ar
    31    27    28   ar
    32     6     7    1
    33     7     8    1
    34    12    13   ar
    35    17    18   ar
    36    18    19   ar
    37    19    14   ar
    38    13     9   ar
    39     8     3    1
    40    28    23   ar
    41    34    30    1
@<TRIPOS>MOLECULE
*****
 37 41 0 0 0
SMALL
GASTEIGER

@<TRIPOS>ATOM
      1 C         -25.8442   -7.8213  -11.1961 C.2     1  UNL1        0.3045
      2 O         -26.9282   -8.0522  -10.5944 O.2     1  UNL1       -0.2647
      3 N         -24.5938   -8.2032  -10.5846 N.am    1  UNL1       -0.2720
      4 C         -23.3476   -7.4871  -10.9039 C.3     1  UNL1        0.0976
      5 C         -22.3365   -7.5983   -9.7576 C.3     1  UNL1        0.0651
      6 C         -22.0371   -9.0678   -9.3745 C.3     1  UNL1        0.1693
      7 C         -23.2553   -9.9992   -9.5690 C.3     1  UNL1        0.0651
      8 C         -24.5862   -9.2424   -9.5444 C.3     1  UNL1        0.0976
      9 C         -26.5064   -6.0197  -14.1426 C.ar    1  UNL1        0.2501
     10 N         -25.3526   -6.6116  -14.5096 N.ar    1  UNL1       -0.1068
     11 N         -24.9667   -7.3472  -13.4786 N.ar    1  UNL1       -0.1021
     12 C         -25.8998   -7.1790  -12.5218 C.ar    1  UNL1        0.3042
     13 O         -26.8443   -6.3631  -12.9230 O.2     1  UNL1       -0.4122
     14 C         -28.7971   -3.3682  -16.6259 C.ar    1  UNL1        0.1387
     15 C         -29.4389   -4.2100  -15.6980 C.ar    1  UNL1        0.0371
     16 C         -28.6893   -5.0714  -14.8912 C.ar    1  UNL1        0.0078
     17 C         -27.2898   -5.1066  -14.9968 C.ar    1  UNL1        0.0553
     18 C         -26.6515   -4.2663  -15.9230 C.ar    1  UNL1        0.0078
     19 C         -27.4020   -3.4053  -16.7291 C.ar    1  UNL1        0.0371
     20 C         -29.1430   -2.1867  -18.8018 C.3     1  UNL1        0.2525
     21 O         -29.5041   -2.4870  -17.4576 O.3     1  UNL1       -0.4714
     22 O         -20.9488   -9.5744  -10.1534 O.3     1  UNL1       -0.4791
     23 C         -21.0455  -10.5289  -11.1799 C.ar    1  UNL1        0.1384
     24 C         -21.6362  -10.1394  -12.3869 C.ar    1  UNL1        0.0366
     25 C         -21.7513  -11.0420  -13.4469 C.ar    1  UNL1        0.0002
     26 C         -21.2607  -12.3519  -13.3220 C.ar    1  UNL1       -0.0059
     27 C         -20.6956  -12.7541  -12.1013 C.ar    1  UNL1        0.0002
     28 C         -20.5813  -11.8511  -11.0404 C.ar    1  UNL1        0.0366
     29 C         -21.3953  -13.3329  -14.4693 C.3     1  UNL1        0.0991
     30 N         -22.4469  -12.9984  -15.4595 N.3     1  UNL1       -0.2703
     31 C         -22.1265  -11.8635  -16.3233 C.3     1  UNL1        0.0724
     32 C         -23.4358  -11.4505  -16.9636 C.3     1  UNL1        0.0187
     33 C         -24.5066  -11.8479  -15.9593 C.3     1  UNL1        0.0174
     34 C         -23.8010  -12.7559  -14.9339 C.3     1  UNL1        0.0578
     35 C         -24.5372  -14.0947  -14.6462 C.3     1  UNL1        0.0147
     36 C         -24.8675  -14.8921  -15.9191 C.3     1  UNL1        0.0014
     37 C         -25.7961  -13.8804  -13.7937 C.3     1  UNL1        0.0014
@<TRIPOS>BOND
     1    20    21    1
     2    21    14    1
     3    14    15   ar
     4    15    16   ar
     5    16    17   ar
     6    17     9    1
     7     9    10   ar
     8    10    11   ar
     9    11    12   ar
    10    12     1    1
    11     1     2    2
    12     1     3   am
    13     3     4    1
    14     4     5    1
    15     5     6    1
    16     6    22    1
    17    22    23    1
    18    23    24   ar
    19    24    25   ar
    20    25    26   ar
    21    26    29    1
    22    29    30    1
    23    30    31    1
    24    31    32    1
    25    32    33    1
    26    33    34    1
    27    34    35    1
    28    35    36    1
    29    35    37    1
    30    26    27   ar
    31    27    28   ar
    32     6     7    1
    33     7     8    1
    34    12    13   ar
    35    17    18   ar
    36    18    19   ar
    37    19    14   ar
    38    13     9   ar
    39     8     3    1
    40    28    23   ar
    41    34    30    1
@<TRIPOS>MOLECULE
*****
 37 41 0 0 0
SMALL
GASTEIGER

@<TRIPOS>ATOM
      1 C         -26.3170   -7.4592  -11.1620 C.2     1  UNL1        0.3045
      2 O         -26.8965   -7.8479  -10.1116 O.2     1  UNL1       -0.2647
      3 N         -24.8805   -7.3189  -11.1738 N.am    1  UNL1       -0.2720
      4 C         -24.2224   -6.3681  -12.0850 C.3     1  UNL1        0.0976
      5 C         -22.8637   -5.9232  -11.5331 C.3     1  UNL1        0.0651
      6 C         -21.9300   -7.1193  -11.2273 C.3     1  UNL1        0.1693
      7 C         -22.6988   -8.3789  -10.7671 C.3     1  UNL1        0.0651
      8 C         -24.0755   -8.0491  -10.1834 C.3     1  UNL1        0.0976
      9 C         -28.0024   -6.2161  -13.9870 C.ar    1  UNL1        0.2501
     10 N         -28.5099   -7.4645  -13.9684 N.ar    1  UNL1       -0.1068
     11 N         -27.9590   -8.0753  -12.9309 N.ar    1  UNL1       -0.1021
     12 C         -27.1379   -7.1770  -12.3536 C.ar    1  UNL1        0.3042
     13 O         -27.1584   -6.0365  -12.9996 O.2     1  UNL1       -0.4122
     14 C         -28.9981   -3.2089  -16.8870 C.ar    1  UNL1        0.1387
     15 C         -27.6524   -3.5007  -16.5942 C.ar    1  UNL1        0.0371
     16 C         -27.3327   -4.4808  -15.6498 C.ar    1  UNL1        0.0078
     17 C         -28.3485   -5.1844  -14.9834 C.ar    1  UNL1        0.0553
     18 C         -29.6901   -4.8918  -15.2767 C.ar    1  UNL1        0.0078
     19 C         -30.0086   -3.9117  -16.2213 C.ar    1  UNL1        0.0371
     20 C         -28.8037   -2.1149  -19.1264 C.3     1  UNL1        0.2525
     21 O         -29.3702   -2.2350  -17.8256 O.3     1  UNL1       -0.4714
     22 O         -21.1561   -7.4561  -12.3828 O.3     1  UNL1       -0.4791
     23 C         -21.5606   -8.3072  -13.4249 C.ar    1  UNL1        0.1384
     24 C         -21.5383   -9.6869  -13.1940 C.ar    1  UNL1        0.0366
     25 C         -21.9386  -10.5818  -14.1892 C.ar    1  UNL1        0.0002
     26 C         -22.3852  -10.1083  -15.4336 C.ar    1  UNL1       -0.0059
     27 C         -22.3792   -8.7258  -15.6784 C.ar    1  UNL1        0.0002
     28 C         -21.9778   -7.8305  -14.6827 C.ar    1  UNL1        0.0366
     29 C         -22.8097  -11.0808  -16.5156 C.3     1  UNL1        0.0991
     30 N         -23.7586  -12.1318  -16.0762 N.3     1  UNL1       -0.2703
     31 C         -25.0750  -11.6330  -15.6823 C.3     1  UNL1        0.0724
     32 C         -25.7334  -12.7647  -14.9204 C.3     1  UNL1        0.0187
     33 C         -24.5824  -13.5452  -14.3044 C.3     1  UNL1        0.0174
     34 C         -23.3075  -13.0238  -14.9949 C.3     1  UNL1        0.0578
     35 C         -22.3713  -14.1377  -15.5426 C.3     1  UNL1        0.0147
     36 C         -23.0122  -15.5356  -15.5197 C.3     1  UNL1        0.0014
     37 C         -21.0152  -14.1466  -14.8229 C.3     1  UNL1        0.0014
@<TRIPOS>BOND
     1    20    21    1
     2    21    14    1
     3    14    15   ar
     4    15    16   ar
     5    16    17   ar
     6    17     9    1
     7     9    10   ar
     8    10    11   ar
     9    11    12   ar
    10    12     1    1
    11     1     2    2
    12     1     3   am
    13     3     4    1
    14     4     5    1
    15     5     6    1
    16     6    22    1
    17    22    23    1
    18    23    24   ar
    19    24    25   ar
    20    25    26   ar
    21    26    29    1
    22    29    30    1
    23    30    31    1
    24    31    32    1
    25    32    33    1
    26    33    34    1
    27    34    35    1
    28    35    36    1
    29    35    37    1
    30    26    27   ar
    31    27    28   ar
    32     6     7    1
    33     7     8    1
    34    12    13   ar
    35    17    18   ar
    36    18    19   ar
    37    19    14   ar
    38    13     9   ar
    39     8     3    1
    40    28    23   ar
    41    34    30    1
@<TRIPOS>MOLECULE
*****
 37 41 0 0 0
SMALL
GASTEIGER

@<TRIPOS>ATOM
      1 C         -23.4464   -5.5794  -11.4376 C.2     1  UNL1        0.3045
      2 O         -23.3244   -4.4268  -10.9407 O.2     1  UNL1       -0.2647
      3 N         -22.4851   -6.6039  -11.1068 N.am    1  UNL1       -0.2720
      4 C         -22.2156   -7.7142  -12.0355 C.3     1  UNL1        0.0976
      5 C         -20.8099   -8.2856  -11.8213 C.3     1  UNL1        0.0651
      6 C         -20.5691   -8.7292  -10.3581 C.3     1  UNL1        0.1693
      7 C         -21.3326   -7.8593   -9.3335 C.3     1  UNL1        0.0651
      8 C         -21.6827   -6.4730   -9.8817 C.3     1  UNL1        0.0976
      9 C         -26.1179   -5.5923  -13.7244 C.ar    1  UNL1        0.2501
     10 N         -26.1374   -6.8915  -13.3666 N.ar    1  UNL1       -0.1068
     11 N         -25.1641   -7.0494  -12.4830 N.ar    1  UNL1       -0.1021
     12 C         -24.5883   -5.8411  -12.3324 C.ar    1  UNL1        0.3042
     13 O         -25.1674   -4.9450  -13.0942 O.2     1  UNL1       -0.4122
     14 C         -28.8169   -3.8038  -16.5459 C.ar    1  UNL1        0.1387
     15 C         -29.3055   -4.6253  -15.5125 C.ar    1  UNL1        0.0371
     16 C         -28.4234   -5.2052  -14.5957 C.ar    1  UNL1        0.0078
     17 C         -27.0420   -4.9752  -14.6950 C.ar    1  UNL1        0.0553
     18 C         -26.5565   -4.1557  -15.7266 C.ar    1  UNL1        0.0078
     19 C         -27.4395   -3.5763  -16.6425 C.ar    1  UNL1        0.0371
     20 C         -29.2088   -2.3795  -18.5628 C.3     1  UNL1        0.2525
     21 O         -29.6605   -3.1995  -17.4899 O.3     1  UNL1       -0.4714
     22 O         -20.9629  -10.0932  -10.1791 O.3     1  UNL1       -0.4791
     23 C         -21.0735  -11.0580  -11.1945 C.ar    1  UNL1        0.1384
     24 C         -22.2123  -11.0307  -12.0069 C.ar    1  UNL1        0.0366
     25 C         -22.3729  -11.9585  -13.0388 C.ar    1  UNL1        0.0002
     26 C         -21.3843  -12.9247  -13.2867 C.ar    1  UNL1       -0.0059
     27 C         -20.2555  -12.9736  -12.4533 C.ar    1  UNL1        0.0002
     28 C         -20.0953  -12.0456  -11.4202 C.ar    1  UNL1        0.0366
     29 C         -21.5647  -13.9368  -14.4001 C.3     1  UNL1        0.0991
     30 N         -22.4630  -13.5066  -15.4984 N.3     1  UNL1       -0.2703
     31 C         -21.9081  -12.4662  -16.3623 C.3     1  UNL1        0.0724
     32 C         -23.0817  -11.9073  -17.1403 C.3     1  UNL1        0.0187
     33 C         -24.2858  -12.1090  -16.2332 C.3     1  UNL1        0.0174
     34 C         -23.8123  -13.0579  -15.1155 C.3     1  UNL1        0.0578
     35 C         -24.7527  -14.2691  -14.8588 C.3     1  UNL1        0.0147
     36 C         -25.1024  -15.0485  -16.1377 C.3     1  UNL1        0.0014
     37 C         -26.0252  -13.8528  -14.1075 C.3     1  UNL1        0.0014
@<TRIPOS>BOND
     1    20    21    1
     2    21    14    1
     3    14    15   ar
     4    15    16   ar
     5    16    17   ar
     6    17     9    1
     7     9    10   ar
     8    10    11   ar
     9    11    12   ar
    10    12     1    1
    11     1     2    2
    12     1     3   am
    13     3     4    1
    14     4     5    1
    15     5     6    1
    16     6    22    1
    17    22    23    1
    18    23    24   ar
    19    24    25   ar
    20    25    26   ar
    21    26    29    1
    22    29    30    1
    23    30    31    1
    24    31    32    1
    25    32    33    1
    26    33    34    1
    27    34    35    1
    28    35    36    1
    29    35    37    1
    30    26    27   ar
    31    27    28   ar
    32     6     7    1
    33     7     8    1
    34    12    13   ar
    35    17    18   ar
    36    18    19   ar
    37    19    14   ar
    38    13     9   ar
    39     8     3    1
    40    28    23   ar
    41    34    30    1
@<TRIPOS>MOLECULE
*****
 37 41 0 0 0
SMALL
GASTEIGER

@<TRIPOS>ATOM
      1 C         -21.4729   -5.9876   -9.5520 C.2     1  UNL1        0.3045
      2 O         -21.2568   -5.1915   -8.5981 O.2     1  UNL1       -0.2647
      3 N         -20.7675   -7.2458   -9.6044 N.am    1  UNL1       -0.2720
      4 C         -20.5186   -7.9186  -10.8902 C.3     1  UNL1        0.0976
      5 C         -19.2872   -8.8272  -10.8097 C.3     1  UNL1        0.0651
      6 C         -19.3913   -9.8632   -9.6645 C.3     1  UNL1        0.1693
      7 C         -20.1758   -9.3315   -8.4433 C.3     1  UNL1        0.0651
      8 C         -20.1901   -7.8020   -8.3719 C.3     1  UNL1        0.0976
      9 C         -24.1119   -5.6177  -11.8466 C.ar    1  UNL1        0.2501
     10 N         -23.4625   -4.4602  -12.0803 N.ar    1  UNL1       -0.1068
     11 N         -22.4139   -4.4513  -11.2720 N.ar    1  UNL1       -0.1021
     12 C         -22.4607   -5.6041  -10.5768 C.ar    1  UNL1        0.3042
     13 O         -23.5020   -6.3212  -10.9231 O.2     1  UNL1       -0.4122
     14 C         -27.6979   -6.8651  -13.8537 C.ar    1  UNL1        0.1387
     15 C         -26.9113   -7.7979  -13.1518 C.ar    1  UNL1        0.0371
     16 C         -25.7448   -7.3874  -12.4993 C.ar    1  UNL1        0.0078
     17 C         -25.3451   -6.0422  -12.5365 C.ar    1  UNL1        0.0553
     18 C         -26.1310   -5.1133  -13.2373 C.ar    1  UNL1        0.0078
     19 C         -27.2972   -5.5248  -13.8891 C.ar    1  UNL1        0.0371
     20 C         -29.8480   -6.3004  -14.9976 C.3     1  UNL1        0.2525
     21 O         -28.8758   -7.2269  -14.5242 O.3     1  UNL1       -0.4714
     22 O         -20.0280  -11.0577  -10.1287 O.3     1  UNL1       -0.4791
     23 C         -21.0853  -11.1214  -11.0517 C.ar    1  UNL1        0.1384
     24 C         -22.2761  -10.4586  -10.7350 C.ar    1  UNL1        0.0366
     25 C         -23.3584  -10.4784  -11.6180 C.ar    1  UNL1        0.0002
     26 C         -23.2618  -11.1523  -12.8463 C.ar    1  UNL1       -0.0059
     27 C         -22.0790  -11.8439  -13.1526 C.ar    1  UNL1        0.0002
     28 C         -20.9964  -11.8246  -12.2685 C.ar    1  UNL1        0.0366
     29 C         -24.4402  -11.1812  -13.7987 C.3     1  UNL1        0.0991
     30 N         -24.1141  -10.8604  -15.2090 N.3     1  UNL1       -0.2703
     31 C         -24.0050  -12.0251  -16.0855 C.3     1  UNL1        0.0724
     32 C         -23.3035  -11.5357  -17.3357 C.3     1  UNL1        0.0187
     33 C         -22.4340  -10.3779  -16.8703 C.3     1  UNL1        0.0174
     34 C         -22.9103  -10.0452  -15.4433 C.3     1  UNL1        0.0578
     35 C         -23.1989   -8.5376  -15.1966 C.3     1  UNL1        0.0147
     36 C         -23.1735   -7.6956  -16.4834 C.3     1  UNL1        0.0014
     37 C         -22.2599   -7.9441  -14.1367 C.3     1  UNL1        0.0014
@<TRIPOS>BOND
     1    20    21    1
     2    21    14    1
     3    14    15   ar
     4    15    16   ar
     5    16    17   ar
     6    17     9    1
     7     9    10   ar
     8    10    11   ar
     9    11    12   ar
    10    12     1    1
    11     1     2    2
    12     1     3   am
    13     3     4    1
    14     4     5    1
    15     5     6    1
    16     6    22    1
    17    22    23    1
    18    23    24   ar
    19    24    25   ar
    20    25    26   ar
    21    26    29    1
    22    29    30    1
    23    30    31    1
    24    31    32    1
    25    32    33    1
    26    33    34    1
    27    34    35    1
    28    35    36    1
    29    35    37    1
    30    26    27   ar
    31    27    28   ar
    32     6     7    1
    33     7     8    1
    34    12    13   ar
    35    17    18   ar
    36    18    19   ar
    37    19    14   ar
    38    13     9   ar
    39     8     3    1
    40    28    23   ar
    41    34    30    1
@<TRIPOS>MOLECULE
*****
 37 41 0 0 0
SMALL
GASTEIGER

@<TRIPOS>ATOM
      1 C         -22.9731  -10.7502  -15.8373 C.2     1  UNL1        0.3045
      2 O         -23.4661  -11.6749  -16.5389 O.2     1  UNL1       -0.2647
      3 N         -22.4137  -11.0581  -14.5429 N.am    1  UNL1       -0.2720
      4 C         -22.3695  -10.0418  -13.4785 C.3     1  UNL1        0.0976
      5 C         -22.3483  -10.6937  -12.0918 C.3     1  UNL1        0.0651
      6 C         -21.1848  -11.7016  -11.9306 C.3     1  UNL1        0.1693
      7 C         -20.8292  -12.4243  -13.2499 C.3     1  UNL1        0.0651
      8 C         -21.9905  -12.4350  -14.2480 C.3     1  UNL1        0.0976
      9 C         -23.5991   -7.5556  -17.1674 C.ar    1  UNL1        0.2501
     10 N         -22.2609   -7.4717  -17.0324 N.ar    1  UNL1       -0.1068
     11 N         -21.8633   -8.6309  -16.5312 N.ar    1  UNL1       -0.1021
     12 C         -22.9727   -9.3800  -16.3811 C.ar    1  UNL1        0.3042
     13 O         -24.0401   -8.7238  -16.7667 O.2     1  UNL1       -0.4122
     14 C         -26.1037   -4.4199  -18.6965 C.ar    1  UNL1        0.1387
     15 C         -25.8137   -4.4953  -17.3211 C.ar    1  UNL1        0.0371
     16 C         -24.9974   -5.5176  -16.8276 C.ar    1  UNL1        0.0078
     17 C         -24.4583   -6.4792  -17.6967 C.ar    1  UNL1        0.0553
     18 C         -24.7489   -6.4024  -19.0683 C.ar    1  UNL1        0.0078
     19 C         -25.5650   -5.3797  -19.5607 C.ar    1  UNL1        0.0371
     20 C         -28.1665   -3.0074  -18.6924 C.3     1  UNL1        0.2525
     21 O         -26.9168   -3.4144  -19.2404 O.3     1  UNL1       -0.4714
     22 O         -20.0133  -11.0377  -11.4461 O.3     1  UNL1       -0.4791
     23 C         -19.9299  -10.2649  -10.2757 C.ar    1  UNL1        0.1384
     24 C         -18.8178  -10.4450   -9.4462 C.ar    1  UNL1        0.0366
     25 C         -18.6755   -9.6980   -8.2743 C.ar    1  UNL1        0.0002
     26 C         -19.6407   -8.7420   -7.9187 C.ar    1  UNL1       -0.0059
     27 C         -20.7728   -8.5815   -8.7334 C.ar    1  UNL1        0.0002
     28 C         -20.9155   -9.3296   -9.9056 C.ar    1  UNL1        0.0366
     29 C         -19.4899   -7.9395   -6.6420 C.3     1  UNL1        0.0991
     30 N         -19.4034   -8.7465   -5.4013 N.3     1  UNL1       -0.2703
     31 C         -20.6433   -8.8053   -4.6294 C.3     1  UNL1        0.0724
     32 C         -20.2519   -9.3204   -3.2596 C.3     1  UNL1        0.0187
     33 C         -18.8129   -8.8674   -3.0662 C.3     1  UNL1        0.0174
     34 C         -18.3349   -8.3924   -4.4518 C.3     1  UNL1        0.0578
     35 C         -16.9695   -8.9860   -4.8995 C.3     1  UNL1        0.0147
     36 C         -16.9556  -10.5236   -4.9281 C.3     1  UNL1        0.0014
     37 C         -15.8084   -8.4448   -4.0532 C.3     1  UNL1        0.0014
@<TRIPOS>BOND
     1    20    21    1
     2    21    14    1
     3    14    15   ar
     4    15    16   ar
     5    16    17   ar
     6    17     9    1
     7     9    10   ar
     8    10    11   ar
     9    11    12   ar
    10    12     1    1
    11     1     2    2
    12     1     3   am
    13     3     4    1
    14     4     5    1
    15     5     6    1
    16     6    22    1
    17    22    23    1
    18    23    24   ar
    19    24    25   ar
    20    25    26   ar
    21    26    29    1
    22    29    30    1
    23    30    31    1
    24    31    32    1
    25    32    33    1
    26    33    34    1
    27    34    35    1
    28    35    36    1
    29    35    37    1
    30    26    27   ar
    31    27    28   ar
    32     6     7    1
    33     7     8    1
    34    12    13   ar
    35    17    18   ar
    36    18    19   ar
    37    19    14   ar
    38    13     9   ar
    39     8     3    1
    40    28    23   ar
    41    34    30    1
@<TRIPOS>MOLECULE
*****
 37 41 0 0 0
SMALL
GASTEIGER

@<TRIPOS>ATOM
      1 C         -25.9527   -7.9933  -10.4433 C.2     1  UNL1        0.3045
      2 O         -27.0012   -8.3793   -9.8585 O.2     1  UNL1       -0.2647
      3 N         -24.6677   -8.4720   -9.9930 N.am    1  UNL1       -0.2720
      4 C         -23.4490   -7.6726  -10.2015 C.3     1  UNL1        0.0976
      5 C         -22.3790   -8.0131   -9.1586 C.3     1  UNL1        0.0651
      6 C         -22.0411   -9.5233   -9.1303 C.3     1  UNL1        0.1693
      7 C         -23.2555  -10.4168   -9.4715 C.3     1  UNL1        0.0651
      8 C         -24.5931   -9.7172   -9.2147 C.3     1  UNL1        0.0976
      9 C         -25.9471   -6.2368  -13.4898 C.ar    1  UNL1        0.2501
     10 N         -26.6534   -5.3654  -12.7428 N.ar    1  UNL1       -0.1068
     11 N         -26.7420   -5.8974  -11.5335 N.ar    1  UNL1       -0.1021
     12 C         -26.0849   -7.0720  -11.5865 C.ar    1  UNL1        0.3042
     13 O         -25.5986   -7.2863  -12.7849 O.2     1  UNL1       -0.4122
     14 C         -24.9478   -5.6703  -17.6280 C.ar    1  UNL1        0.1387
     15 C         -24.2591   -6.6207  -16.8508 C.ar    1  UNL1        0.0371
     16 C         -24.5880   -6.8023  -15.5041 C.ar    1  UNL1        0.0078
     17 C         -25.6074   -6.0400  -14.9121 C.ar    1  UNL1        0.0553
     18 C         -26.2931   -5.0924  -15.6888 C.ar    1  UNL1        0.0078
     19 C         -25.9635   -4.9118  -17.0353 C.ar    1  UNL1        0.0371
     20 C         -25.1304   -6.2650  -20.0493 C.3     1  UNL1        0.2525
     21 O         -24.6552   -5.4507  -18.9823 O.3     1  UNL1       -0.4714
     22 O         -20.9878   -9.8162  -10.0536 O.3     1  UNL1       -0.4791
     23 C         -21.0951  -10.6307  -11.1933 C.ar    1  UNL1        0.1384
     24 C         -20.5774  -11.9287  -11.1255 C.ar    1  UNL1        0.0366
     25 C         -20.6638  -12.7878  -12.2238 C.ar    1  UNL1        0.0002
     26 C         -21.2867  -12.3657  -13.4095 C.ar    1  UNL1       -0.0059
     27 C         -21.7792  -11.0535  -13.4904 C.ar    1  UNL1        0.0002
     28 C         -21.6920  -10.1937  -12.3916 C.ar    1  UNL1        0.0366
     29 C         -21.3707  -13.2954  -14.6034 C.3     1  UNL1        0.0991
     30 N         -22.4578  -12.9863  -15.5629 N.3     1  UNL1       -0.2703
     31 C         -22.1682  -11.8766  -16.4693 C.3     1  UNL1        0.0724
     32 C         -23.4997  -11.4787  -17.0721 C.3     1  UNL1        0.0187
     33 C         -24.5332  -11.8457  -16.0182 C.3     1  UNL1        0.0174
     34 C         -23.7912  -12.7264  -14.9947 C.3     1  UNL1        0.0578
     35 C         -24.5179  -14.0550  -14.6428 C.3     1  UNL1        0.0147
     36 C         -24.8965  -14.8865  -15.8801 C.3     1  UNL1        0.0014
     37 C         -25.7438  -13.8145  -13.7503 C.3     1  UNL1        0.0014
@<TRIPOS>BOND
     1    20    21    1
     2    21    14    1
     3    14    15   ar
     4    15    16   ar
     5    16    17   ar
     6    17     9    1
     7     9    10   ar
     8    10    11   ar
     9    11    12   ar
    10    12     1    1
    11     1     2    2
    12     1     3   am
    13     3     4    1
    14     4     5    1
    15     5     6    1
    16     6    22    1
    17    22    23    1
    18    23    24   ar
    19    24    25   ar
    20    25    26   ar
    21    26    29    1
    22    29    30    1
    23    30    31    1
    24    31    32    1
    25    32    33    1
    26    33    34    1
    27    34    35    1
    28    35    36    1
    29    35    37    1
    30    26    27   ar
    31    27    28   ar
    32     6     7    1
    33     7     8    1
    34    12    13   ar
    35    17    18   ar
    36    18    19   ar
    37    19    14   ar
    38    13     9   ar
    39     8     3    1
    40    28    23   ar
    41    34    30    1
@<TRIPOS>MOLECULE
*****
 37 41 0 0 0
SMALL
GASTEIGER

@<TRIPOS>ATOM
      1 C         -21.4379   -5.7839   -9.7063 C.2     1  UNL1        0.3045
      2 O         -21.1053   -4.9169   -8.8530 O.2     1  UNL1       -0.2647
      3 N         -20.8172   -7.0866   -9.6786 N.am    1  UNL1       -0.2720
      4 C         -20.7032   -7.8946  -10.9041 C.3     1  UNL1        0.0976
      5 C         -19.5277   -8.8736  -10.8138 C.3     1  UNL1        0.0651
      6 C         -19.6131   -9.7859   -9.5663 C.3     1  UNL1        0.1693
      7 C         -20.2737   -9.0875   -8.3558 C.3     1  UNL1        0.0651
      8 C         -20.1884   -7.5608   -8.4370 C.3     1  UNL1        0.0976
      9 C         -24.1664   -5.4976  -11.9063 C.ar    1  UNL1        0.2501
     10 N         -23.5540   -4.3272  -12.1730 N.ar    1  UNL1       -0.1068
     11 N         -22.4774   -4.2860  -11.4034 N.ar    1  UNL1       -0.1021
     12 C         -22.4711   -5.4332  -10.6976 C.ar    1  UNL1        0.3042
     13 O         -23.5067   -6.1780  -10.9999 O.2     1  UNL1       -0.4122
     14 C         -27.7924   -6.8481  -13.7697 C.ar    1  UNL1        0.1387
     15 C         -27.0534   -7.7102  -12.9377 C.ar    1  UNL1        0.0371
     16 C         -25.8736   -7.2663  -12.3326 C.ar    1  UNL1        0.0078
     17 C         -25.4132   -5.9576  -12.5474 C.ar    1  UNL1        0.0553
     18 C         -26.1517   -5.0993  -13.3777 C.ar    1  UNL1        0.0078
     19 C         -27.3312   -5.5441  -13.9821 C.ar    1  UNL1        0.0371
     20 C         -29.9224   -6.3485  -14.9795 C.3     1  UNL1        0.2525
     21 O         -28.9813   -7.2458  -14.3994 O.3     1  UNL1       -0.4714
     22 O         -20.3541  -10.9728   -9.8661 O.3     1  UNL1       -0.4791
     23 C         -20.8665  -11.3271  -11.1254 C.ar    1  UNL1        0.1384
     24 C         -21.9599  -10.6061  -11.6175 C.ar    1  UNL1        0.0366
     25 C         -22.5062  -10.9065  -12.8676 C.ar    1  UNL1        0.0002
     26 C         -21.9551  -11.9284  -13.6576 C.ar    1  UNL1       -0.0059
     27 C         -20.8776  -12.6736  -13.1528 C.ar    1  UNL1        0.0002
     28 C         -20.3316  -12.3735  -11.9014 C.ar    1  UNL1        0.0366
     29 C         -22.5551  -12.2596  -15.0093 C.3     1  UNL1        0.0991
     30 N         -23.2629  -13.5606  -15.0787 N.3     1  UNL1       -0.2703
     31 C         -22.5014  -14.6308  -15.7203 C.3     1  UNL1        0.0724
     32 C         -23.5065  -15.7189  -16.0370 C.3     1  UNL1        0.0187
     33 C         -24.8269  -14.9894  -16.2311 C.3     1  UNL1        0.0174
     34 C         -24.5948  -13.5594  -15.7067 C.3     1  UNL1        0.0578
     35 C         -25.6802  -13.0539  -14.7149 C.3     1  UNL1        0.0147
     36 C         -25.6682  -11.5274  -14.5273 C.3     1  UNL1        0.0014
     37 C         -25.5924  -13.7715  -13.3604 C.3     1  UNL1        0.0014
@<TRIPOS>BOND
     1    20    21    1
     2    21    14    1
     3    14    15   ar
     4    15    16   ar
     5    16    17   ar
     6    17     9    1
     7     9    10   ar
     8    10    11   ar
     9    11    12   ar
    10    12     1    1
    11     1     2    2
    12     1     3   am
    13     3     4    1
    14     4     5    1
    15     5     6    1
    16     6    22    1
    17    22    23    1
    18    23    24   ar
    19    24    25   ar
    20    25    26   ar
    21    26    29    1
    22    29    30    1
    23    30    31    1
    24    31    32    1
    25    32    33    1
    26    33    34    1
    27    34    35    1
    28    35    36    1
    29    35    37    1
    30    26    27   ar
    31    27    28   ar
    32     6     7    1
    33     7     8    1
    34    12    13   ar
    35    17    18   ar
    36    18    19   ar
    37    19    14   ar
    38    13     9   ar
    39     8     3    1
    40    28    23   ar
    41    34    30    1
