@<TRIPOS>MOLECULE
*****
 50 55 0 0 0
SMALL
GASTEIGER

@<TRIPOS>ATOM
      1 C          60.5459   83.9775   12.1523 C.3     1  UNL1        0.1535
      2 N          60.4037   84.7269   10.8992 N.am    1  UNL1       -0.2945
      3 C          59.9534   86.0908   10.8677 C.2     1  UNL1        0.2483
      4 O          59.5878   86.6533   11.9360 O.2     1  UNL1       -0.2701
      5 H          60.4408   84.2054    9.9966 H       1  UNL1        0.1501
      6 C          59.9029   86.8408    9.5888 C.ar    1  UNL1        0.0808
      7 C          59.1847   86.3285    8.4931 C.ar    1  UNL1        0.0080
      8 C          59.1341   87.0291    7.2858 C.ar    1  UNL1        0.0148
      9 C          59.8034   88.2527    7.1450 C.ar    1  UNL1        0.0502
     10 C          60.5262   88.7659    8.2333 C.ar    1  UNL1        0.0443
     11 C          60.5809   88.0676    9.4437 C.ar    1  UNL1        0.1457
     12 F          61.2783   88.6053   10.4766 F       1  UNL1       -0.2040
     13 N          59.7416   88.9717    5.8988 N.pl3   1  UNL1       -0.3040
     14 C          60.8433   88.8846    4.9330 C.3     1  UNL1        0.1122
     15 C          61.0705   90.2465    4.2759 C.3     1  UNL1        0.1122
     16 N          59.7938   90.8027    3.8115 N.pl3   1  UNL1       -0.3040
     17 C          58.6918   90.8891    4.7774 C.3     1  UNL1        0.1122
     18 C          58.4648   89.5271    5.4341 C.3     1  UNL1        0.1122
     19 C          59.7346   91.5275    2.5687 C.ar    1  UNL1        0.0488
     20 C          60.5158   92.6783    2.3723 C.ar    1  UNL1        0.0154
     21 C          60.4514   93.3775    1.1644 C.ar    1  UNL1        0.0135
     22 C          59.6062   92.9396    0.1394 C.ar    1  UNL1        0.0683
     23 CL         59.5523   93.8461   -1.3664 Cl      1  UNL1       -0.0814
     24 C          58.8185   91.7915    0.3277 C.ar    1  UNL1        0.0694
     25 CL         57.7378   91.2107   -0.9319 Cl      1  UNL1       -0.0813
     26 C          58.8854   91.0923    1.5387 C.ar    1  UNL1        0.0268
     27 C          60.3080   82.5047   11.9268 C.2     1  UNL1        0.2443
     28 O          61.2071   81.8241   11.3624 O.2     1  UNL1       -0.2730
     29 N          59.0464   81.9015   12.2655 N.am    1  UNL1       -0.2825
     30 H          58.2389   82.5291   12.4780 H       1  UNL1        0.1549
     31 C          58.7815   80.4929   12.1703 C.ar    1  UNL1        0.0535
     32 C          58.2859   79.9174   10.9887 C.ar    1  UNL1        0.0353
     33 C          58.0663   78.5386   10.9346 C.ar    1  UNL1        0.1002
     34 N          58.3434   77.7602   12.0141 N.ar    1  UNL1       -0.2422
     35 C          58.8399   78.2883   13.1640 C.ar    1  UNL1        0.1002
     36 C          59.0755   79.6618   13.2596 C.ar    1  UNL1        0.0353
     37 C          61.9122   84.2458   12.8189 C.3     1  UNL1        0.0569
     38 N          63.5277   90.0509   15.8730 N.pl3   1  UNL1       -0.3570
     39 C          63.1128   88.7902   15.3416 C.ar    1  UNL1        0.0430
     40 C          63.3830   88.4673   13.9890 C.ar    1  UNL1        0.0142
     41 C          62.9818   87.2304   13.4541 C.ar    1  UNL1        0.0024
     42 C          62.3177   86.3395   14.2972 C.ar    1  UNL1        0.0132
     43 C          61.8240   85.0670   14.0777 C.ar    1  UNL1       -0.0017
     44 C          61.2679   84.6666   15.2898 C.ar    1  UNL1        0.0681
     45 N          61.4117   85.6378   16.2195 N.ar    1  UNL1       -0.3522
     46 C          62.0514   86.6483   15.6059 C.ar    1  UNL1        0.0576
     47 C          62.4350   87.8663   16.1647 C.ar    1  UNL1        0.0310
     48 H          63.3348   90.3004   16.8686 H       1  UNL1        0.1424
     49 H          64.0312   90.7433   15.2747 H       1  UNL1        0.1424
     50 H          61.0974   85.6012   17.2147 H       1  UNL1        0.1660
@<TRIPOS>BOND
     1    38    39    1
     2    39    40   ar
     3    40    41   ar
     4    41    42   ar
     5    42    43   ar
     6    43    37    1
     7    37     1    1
     8     1     2    1
     9     2     3   am
    10     3     4    2
    11     3     6    1
    12     6     7   ar
    13     7     8   ar
    14     8     9   ar
    15     9    13    1
    16    13    14    1
    17    14    15    1
    18    15    16    1
    19    16    19    1
    20    19    20   ar
    21    20    21   ar
    22    21    22   ar
    23    22    23    1
    24    22    24   ar
    25    24    25    1
    26    24    26   ar
    27    16    17    1
    28    17    18    1
    29     9    10   ar
    30    10    11   ar
    31    11    12    1
    32     1    27    1
    33    27    28    2
    34    27    29   am
    35    29    31    1
    36    31    32   ar
    37    32    33   ar
    38    33    34   ar
    39    34    35   ar
    40    35    36   ar
    41    43    44   ar
    42    44    45   ar
    43    45    46   ar
    44    46    47   ar
    45    47    39   ar
    46    46    42   ar
    47    11     6   ar
    48    36    31   ar
    49    18    13    1
    50    26    19   ar
    51    38    48    1
    52    38    49    1
    53     2     5    1
    54    29    30    1
    55    45    50    1
