@<TRIPOS>MOLECULE
*****
 47 51 0 0 0
SMALL
GASTEIGER

@<TRIPOS>ATOM
      1 C          49.5585   14.0057  -21.4932 C.ar    1  UNL1        0.0010
      2 C          49.3350   13.9147  -20.1284 C.ar    1  UNL1        0.0719
      3 N          49.3234   12.6195  -19.7340 N.ar    1  UNL1       -0.3241
      4 C          49.2158   12.1906  -18.3411 C.3     1  UNL1        0.1305
      5 C          49.5162   11.8718  -20.8516 C.ar    1  UNL1        0.0660
      6 C          49.6446   10.4706  -20.9912 C.ar    1  UNL1        0.0924
      7 C          50.0009    9.9698  -22.2622 C.ar    1  UNL1        0.0227
      8 C          50.1945   10.8359  -23.3642 C.ar    1  UNL1        0.0535
      9 C          49.9905   12.2158  -23.2068 C.ar    1  UNL1        0.0159
     10 C          49.6757   12.7022  -21.9402 C.ar    1  UNL1        0.0150
     11 C          49.3743    9.5080  -19.9084 C.2     1  UNL1        0.3395
     12 O          48.2164    9.0403  -19.7531 O.2     1  UNL1       -0.2450
     13 O          50.4071    9.0506  -19.0946 O.3     1  UNL1       -0.4771
     14 H          51.3512    9.4048  -19.1930 H       1  UNL1        0.2954
     15 N          50.5621   10.3275  -24.6562 N.am    1  UNL1       -0.2499
     16 C          51.8891    9.9086  -24.9991 C.2     1  UNL1        0.4053
     17 O          52.8260    9.9869  -24.1572 O.2     1  UNL1       -0.2261
     18 H          49.8749   10.4210  -25.4380 H       1  UNL1        0.1582
     19 O          52.1424    9.4531  -26.2973 O.3     1  UNL1       -0.4383
     20 C          51.5795   10.0562  -27.4640 C.3     1  UNL1        0.1705
     21 C          50.8703    9.0109  -28.3213 C.3     1  UNL1        0.0437
     22 C          51.8867    8.5237  -29.3506 C.3     1  UNL1        0.0038
     23 C          53.1138    9.4200  -29.2211 C.3     1  UNL1        0.0038
     24 C          52.6960   10.5892  -28.3453 C.3     1  UNL1        0.0437
     25 C          49.7695   15.2772  -22.2713 C.3     1  UNL1        0.0572
     26 C          49.1924   15.9020  -24.6688 C.ar    1  UNL1        0.1352
     27 C          48.2813   15.8956  -25.7423 C.ar    1  UNL1        0.0411
     28 C          46.9833   15.3903  -25.5778 C.ar    1  UNL1        0.0578
     29 C          46.5716   14.9517  -24.3135 C.ar    1  UNL1        0.0044
     30 C          47.4661   14.9513  -23.2431 C.ar    1  UNL1       -0.0008
     31 C          48.7885   15.3923  -23.4164 C.ar    1  UNL1        0.0162
     32 C          46.0547   15.3233  -26.7243 C.2     1  UNL1        0.2644
     33 O          45.2312   16.2594  -26.9070 O.2     1  UNL1       -0.2686
     34 N          46.0746   14.2238  -27.6442 N.am    1  UNL1       -0.1814
     35 H          45.6984   14.3740  -28.6065 H       1  UNL1        0.1769
     36 S          46.4395   12.5946  -27.1578 S.O2    1  UNL1        0.0755
     37 O          47.6994   12.6199  -26.3392 O.2     1  UNL1       -0.1499
     38 O          45.3120   12.0375  -26.3337 O.2     1  UNL1       -0.1499
     39 C          46.6491   11.5577  -28.5800 C.ar    1  UNL1        0.1213
     40 C          47.2387   10.2933  -28.4134 C.ar    1  UNL1        0.0199
     41 C          47.4194    9.4425  -29.5047 C.ar    1  UNL1        0.0014
     42 C          47.0217    9.8448  -30.7781 C.ar    1  UNL1       -0.0002
     43 C          46.4573   11.1067  -30.9680 C.ar    1  UNL1       -0.0029
     44 C          46.2846   11.9848  -29.8831 C.ar    1  UNL1       -0.0030
     45 C          45.7116   13.3526  -30.1435 C.3     1  UNL1        0.0324
     46 C          50.8666   17.4974  -25.6320 C.3     1  UNL1        0.2525
     47 O          50.5013   16.3908  -24.8146 O.3     1  UNL1       -0.4717
@<TRIPOS>BOND
     1    46    47    1
     2    47    26    1
     3    26    27   ar
     4    27    28   ar
     5    28    32    1
     6    32    33    2
     7    32    34   am
     8    34    36    1
     9    36    37    2
    10    36    38    2
    11    36    39    1
    12    39    40   ar
    13    40    41   ar
    14    41    42   ar
    15    42    43   ar
    16    43    44   ar
    17    44    45    1
    18    28    29   ar
    19    29    30   ar
    20    30    31   ar
    21    31    25    1
    22    25     1    1
    23     1     2   ar
    24     2     3   ar
    25     3     4    1
    26     3     5   ar
    27     5     6   ar
    28     6    11    1
    29    11    12    2
    30    11    13    1
    31     6     7   ar
    32     7     8   ar
    33     8    15    1
    34    15    16   am
    35    16    17    2
    36    16    19    1
    37    19    20    1
    38    20    21    1
    39    21    22    1
    40    22    23    1
    41    23    24    1
    42     8     9   ar
    43     9    10   ar
    44    31    26   ar
    45    10     1   ar
    46    44    39   ar
    47    10     5   ar
    48    24    20    1
    49    34    35    1
    50    13    14    1
    51    15    18    1
@<TRIPOS>MOLECULE
*****
 47 51 0 0 0
SMALL
GASTEIGER

@<TRIPOS>ATOM
      1 C          46.2672   11.9413  -22.8170 C.ar    1  UNL1        0.0010
      2 C          46.1261   12.2199  -21.4667 C.ar    1  UNL1        0.0719
      3 N          47.1842   11.7425  -20.7698 N.ar    1  UNL1       -0.3241
      4 C          47.3878   11.9643  -19.3397 C.3     1  UNL1        0.1305
      5 C          47.9988   11.1332  -21.6700 C.ar    1  UNL1        0.0660
      6 C          49.2595   10.5219  -21.4801 C.ar    1  UNL1        0.0924
      7 C          49.9638   10.1042  -22.6302 C.ar    1  UNL1        0.0227
      8 C          49.4159   10.2647  -23.9248 C.ar    1  UNL1        0.0535
      9 C          48.1316   10.8119  -24.0720 C.ar    1  UNL1        0.0159
     10 C          47.4619   11.2545  -22.9338 C.ar    1  UNL1        0.0150
     11 C          49.8495   10.2472  -20.1579 C.2     1  UNL1        0.3395
     12 O          49.4656    9.2528  -19.4888 O.2     1  UNL1       -0.2450
     13 O          50.8853   11.0377  -19.6674 O.3     1  UNL1       -0.4771
     14 H          51.2198   11.8448  -20.1804 H       1  UNL1        0.2954
     15 N          50.1341    9.8447  -25.0955 N.am    1  UNL1       -0.2499
     16 C          51.5569    9.9443  -25.2353 C.2     1  UNL1        0.4053
     17 O          52.2611   10.4372  -24.3113 O.2     1  UNL1       -0.2261
     18 H          49.5862    9.6102  -25.9540 H       1  UNL1        0.1582
     19 O          52.1518    9.5287  -26.4313 O.3     1  UNL1       -0.4383
     20 C          51.7643   10.0250  -27.7140 C.3     1  UNL1        0.1705
     21 C          50.9719    8.9703  -28.4823 C.3     1  UNL1        0.0437
     22 C          51.9755    8.2066  -29.3421 C.3     1  UNL1        0.0038
     23 C          53.3078    8.9396  -29.2259 C.3     1  UNL1        0.0038
     24 C          53.0045   10.2694  -28.5563 C.3     1  UNL1        0.0437
     25 C          45.3629   12.4265  -23.9186 C.3     1  UNL1        0.0572
     26 C          46.5856   13.2302  -25.9996 C.ar    1  UNL1        0.1352
     27 C          47.0973   14.2853  -26.7790 C.ar    1  UNL1        0.0411
     28 C          47.0538   15.6074  -26.3127 C.ar    1  UNL1        0.0578
     29 C          46.5578   15.8676  -25.0294 C.ar    1  UNL1        0.0044
     30 C          46.0463   14.8307  -24.2490 C.ar    1  UNL1       -0.0008
     31 C          46.0239   13.5133  -24.7364 C.ar    1  UNL1        0.0162
     32 C          47.5295   16.7174  -27.1627 C.2     1  UNL1        0.2644
     33 O          46.8121   17.1127  -28.1203 O.2     1  UNL1       -0.2686
     34 N          48.7841   17.3668  -26.9181 N.am    1  UNL1       -0.1814
     35 H          48.9159   18.3415  -27.2685 H       1  UNL1        0.1769
     36 S          50.1791   16.5241  -26.3117 S.O2    1  UNL1        0.0755
     37 O          50.5666   15.4747  -27.3151 O.2     1  UNL1       -0.1499
     38 O          51.3192   17.4853  -26.1192 O.2     1  UNL1       -0.1499
     39 C          49.8167   15.7761  -24.7462 C.ar    1  UNL1        0.1213
     40 C          49.2780   16.5754  -23.7240 C.ar    1  UNL1        0.0199
     41 C          48.9738   16.0275  -22.4771 C.ar    1  UNL1        0.0014
     42 C          49.2102   14.6766  -22.2307 C.ar    1  UNL1       -0.0002
     43 C          49.7679   13.8719  -23.2249 C.ar    1  UNL1       -0.0029
     44 C          50.0983   14.4109  -24.4812 C.ar    1  UNL1       -0.0030
     45 C          50.7384   13.5142  -25.5074 C.3     1  UNL1        0.0324
     46 C          46.5661   11.5099  -27.8207 C.3     1  UNL1        0.2525
     47 O          46.6066   11.9006  -26.4525 O.3     1  UNL1       -0.4717
@<TRIPOS>BOND
     1    46    47    1
     2    47    26    1
     3    26    27   ar
     4    27    28   ar
     5    28    32    1
     6    32    33    2
     7    32    34   am
     8    34    36    1
     9    36    37    2
    10    36    38    2
    11    36    39    1
    12    39    40   ar
    13    40    41   ar
    14    41    42   ar
    15    42    43   ar
    16    43    44   ar
    17    44    45    1
    18    28    29   ar
    19    29    30   ar
    20    30    31   ar
    21    31    25    1
    22    25     1    1
    23     1     2   ar
    24     2     3   ar
    25     3     4    1
    26     3     5   ar
    27     5     6   ar
    28     6    11    1
    29    11    12    2
    30    11    13    1
    31     6     7   ar
    32     7     8   ar
    33     8    15    1
    34    15    16   am
    35    16    17    2
    36    16    19    1
    37    19    20    1
    38    20    21    1
    39    21    22    1
    40    22    23    1
    41    23    24    1
    42     8     9   ar
    43     9    10   ar
    44    31    26   ar
    45    10     1   ar
    46    44    39   ar
    47    10     5   ar
    48    24    20    1
    49    34    35    1
    50    13    14    1
    51    15    18    1
@<TRIPOS>MOLECULE
*****
 47 51 0 0 0
SMALL
GASTEIGER

@<TRIPOS>ATOM
      1 C          50.6983   13.9064  -21.8066 C.ar    1  UNL1        0.0010
      2 C          50.7535   13.9597  -20.4227 C.ar    1  UNL1        0.0719
      3 N          50.4281   12.7593  -19.8874 N.ar    1  UNL1       -0.3241
      4 C          50.4928   12.4572  -18.4590 C.3     1  UNL1        0.1305
      5 C          50.1390   11.9358  -20.9283 C.ar    1  UNL1        0.0660
      6 C          49.7972   10.5638  -20.9281 C.ar    1  UNL1        0.0924
      7 C          49.7030    9.9130  -22.1775 C.ar    1  UNL1        0.0227
      8 C          49.9145   10.6144  -23.3880 C.ar    1  UNL1        0.0535
      9 C          50.1834   11.9917  -23.3543 C.ar    1  UNL1        0.0159
     10 C          50.3108   12.6152  -22.1154 C.ar    1  UNL1        0.0150
     11 C          49.4808    9.7952  -19.7111 C.2     1  UNL1        0.3395
     12 O          48.3167    9.8186  -19.2338 O.2     1  UNL1       -0.2450
     13 O          50.4419    8.9798  -19.1197 O.3     1  UNL1       -0.4771
     14 H          51.3883    8.9361  -19.4787 H       1  UNL1        0.2954
     15 N          49.8240    9.9517  -24.6590 N.am    1  UNL1       -0.2499
     16 C          50.8796    9.1634  -25.2231 C.2     1  UNL1        0.4053
     17 O          51.9765    9.0272  -24.6141 O.2     1  UNL1       -0.2261
     18 H          49.0194   10.1870  -25.2830 H       1  UNL1        0.1582
     19 O          50.6941    8.5827  -26.4822 O.3     1  UNL1       -0.4383
     20 C          50.4246    9.3404  -27.6634 C.3     1  UNL1        0.1705
     21 C          49.7227    8.4766  -28.7083 C.3     1  UNL1        0.0437
     22 C          50.8134    7.9028  -29.6087 C.3     1  UNL1        0.0038
     23 C          52.1191    8.5850  -29.2140 C.3     1  UNL1        0.0038
     24 C          51.7363    9.7467  -28.3125 C.3     1  UNL1        0.0437
     25 C          51.1196   15.0009  -22.7505 C.3     1  UNL1        0.0572
     26 C          50.0603   16.5878  -24.4332 C.ar    1  UNL1        0.1352
     27 C          48.9099   17.1611  -25.0080 C.ar    1  UNL1        0.0411
     28 C          47.6360   16.8831  -24.4912 C.ar    1  UNL1        0.0578
     29 C          47.5172   16.0812  -23.3496 C.ar    1  UNL1        0.0044
     30 C          48.6497   15.5060  -22.7729 C.ar    1  UNL1       -0.0008
     31 C          49.9226   15.7245  -23.3253 C.ar    1  UNL1        0.0162
     32 C          46.4284   17.4326  -25.1399 C.2     1  UNL1        0.2644
     33 O          45.6957   18.2348  -24.5015 O.2     1  UNL1       -0.2686
     34 N          46.0741   17.0856  -26.4852 N.am    1  UNL1       -0.1814
     35 H          45.4687   17.7430  -27.0250 H       1  UNL1        0.1769
     36 S          46.3743   15.5125  -27.1628 S.O2    1  UNL1        0.0755
     37 O          45.4592   15.3259  -28.3400 O.2     1  UNL1       -0.1499
     38 O          47.8051   15.4093  -27.6132 O.2     1  UNL1       -0.1499
     39 C          46.0843   14.2522  -25.9507 C.ar    1  UNL1        0.1213
     40 C          44.8110   14.1588  -25.3643 C.ar    1  UNL1        0.0199
     41 C          44.5372   13.1794  -24.4087 C.ar    1  UNL1        0.0014
     42 C          45.5323   12.2850  -24.0195 C.ar    1  UNL1       -0.0002
     43 C          46.8103   12.3776  -24.5718 C.ar    1  UNL1       -0.0029
     44 C          47.1097   13.3700  -25.5223 C.ar    1  UNL1       -0.0030
     45 C          48.5141   13.4585  -26.0578 C.3     1  UNL1        0.0324
     46 C          51.7059   17.9978  -25.6902 C.3     1  UNL1        0.2525
     47 O          51.3446   16.8416  -24.9426 O.3     1  UNL1       -0.4717
@<TRIPOS>BOND
     1    46    47    1
     2    47    26    1
     3    26    27   ar
     4    27    28   ar
     5    28    32    1
     6    32    33    2
     7    32    34   am
     8    34    36    1
     9    36    37    2
    10    36    38    2
    11    36    39    1
    12    39    40   ar
    13    40    41   ar
    14    41    42   ar
    15    42    43   ar
    16    43    44   ar
    17    44    45    1
    18    28    29   ar
    19    29    30   ar
    20    30    31   ar
    21    31    25    1
    22    25     1    1
    23     1     2   ar
    24     2     3   ar
    25     3     4    1
    26     3     5   ar
    27     5     6   ar
    28     6    11    1
    29    11    12    2
    30    11    13    1
    31     6     7   ar
    32     7     8   ar
    33     8    15    1
    34    15    16   am
    35    16    17    2
    36    16    19    1
    37    19    20    1
    38    20    21    1
    39    21    22    1
    40    22    23    1
    41    23    24    1
    42     8     9   ar
    43     9    10   ar
    44    31    26   ar
    45    10     1   ar
    46    44    39   ar
    47    10     5   ar
    48    24    20    1
    49    34    35    1
    50    13    14    1
    51    15    18    1
@<TRIPOS>MOLECULE
*****
 47 51 0 0 0
SMALL
GASTEIGER

@<TRIPOS>ATOM
      1 C          49.5215   13.8468  -22.0819 C.ar    1  UNL1        0.0010
      2 C          48.9218   13.7305  -20.8378 C.ar    1  UNL1        0.0719
      3 N          48.4678   12.4696  -20.6450 N.ar    1  UNL1       -0.3241
      4 C          47.8801   11.9952  -19.3939 C.3     1  UNL1        0.1305
      5 C          48.7542   11.7766  -21.7777 C.ar    1  UNL1        0.0660
      6 C          48.5467   10.4108  -22.0791 C.ar    1  UNL1        0.0924
      7 C          49.0904    9.9172  -23.2850 C.ar    1  UNL1        0.0227
      8 C          49.7928   10.7645  -24.1743 C.ar    1  UNL1        0.0535
      9 C          49.9198   12.1305  -23.8769 C.ar    1  UNL1        0.0159
     10 C          49.4121   12.5987  -22.6674 C.ar    1  UNL1        0.0150
     11 C          47.7534    9.4948  -21.2405 C.2     1  UNL1        0.3395
     12 O          48.3222    8.7709  -20.3826 O.2     1  UNL1       -0.2450
     13 O          46.3645    9.4727  -21.3355 O.3     1  UNL1       -0.4771
     14 H          45.8741   10.0433  -22.0139 H       1  UNL1        0.2954
     15 N          50.3505   10.2618  -25.3986 N.am    1  UNL1       -0.2499
     16 C          51.6249    9.6119  -25.4854 C.2     1  UNL1        0.4053
     17 O          52.3426    9.4636  -24.4579 O.2     1  UNL1       -0.2261
     18 H          49.8886   10.5269  -26.2978 H       1  UNL1        0.1582
     19 O          52.0842    9.1835  -26.7354 O.3     1  UNL1       -0.4383
     20 C          51.6606    9.7673  -27.9689 C.3     1  UNL1        0.1705
     21 C          50.9198    8.7417  -28.8233 C.3     1  UNL1        0.0437
     22 C          51.9560    8.1105  -29.7494 C.3     1  UNL1        0.0038
     23 C          53.2480    8.9018  -29.5743 C.3     1  UNL1        0.0038
     24 C          52.8792   10.1503  -28.7907 C.3     1  UNL1        0.0437
     25 C          50.2579   15.0541  -22.5985 C.3     1  UNL1        0.0572
     26 C          48.5838   16.4978  -23.8573 C.ar    1  UNL1        0.1352
     27 C          48.1085   17.0340  -25.0694 C.ar    1  UNL1        0.0411
     28 C          48.6767   16.6524  -26.2936 C.ar    1  UNL1        0.0578
     29 C          49.6807   15.6766  -26.3110 C.ar    1  UNL1        0.0044
     30 C          50.1611   15.1400  -25.1163 C.ar    1  UNL1       -0.0008
     31 C          49.6442   15.5670  -23.8819 C.ar    1  UNL1        0.0162
     32 C          48.2203   17.2689  -27.5557 C.2     1  UNL1        0.2644
     33 O          48.8594   18.2446  -28.0324 O.2     1  UNL1       -0.2686
     34 N          47.0730   16.7765  -28.2606 N.am    1  UNL1       -0.1814
     35 H          47.0001   16.9657  -29.2848 H       1  UNL1        0.1769
     36 S          45.6792   16.1224  -27.4522 S.O2    1  UNL1        0.0755
     37 O          45.2981   17.0596  -26.3411 O.2     1  UNL1       -0.1499
     38 O          44.5354   15.9930  -28.4194 O.2     1  UNL1       -0.1499
     39 C          46.0399   14.5125  -26.8043 C.ar    1  UNL1        0.1213
     40 C          46.1767   14.3584  -25.4146 C.ar    1  UNL1        0.0199
     41 C          46.4565   13.1084  -24.8608 C.ar    1  UNL1        0.0014
     42 C          46.6113   11.9968  -25.6866 C.ar    1  UNL1       -0.0002
     43 C          46.5040   12.1342  -27.0710 C.ar    1  UNL1       -0.0029
     44 C          46.2411   13.3895  -27.6480 C.ar    1  UNL1       -0.0030
     45 C          46.1775   13.4970  -29.1485 C.3     1  UNL1        0.0324
     46 C          46.8833   17.6914  -22.4574 C.3     1  UNL1        0.2525
     47 O          48.0387   16.8758  -22.6190 O.3     1  UNL1       -0.4717
@<TRIPOS>BOND
     1    46    47    1
     2    47    26    1
     3    26    27   ar
     4    27    28   ar
     5    28    32    1
     6    32    33    2
     7    32    34   am
     8    34    36    1
     9    36    37    2
    10    36    38    2
    11    36    39    1
    12    39    40   ar
    13    40    41   ar
    14    41    42   ar
    15    42    43   ar
    16    43    44   ar
    17    44    45    1
    18    28    29   ar
    19    29    30   ar
    20    30    31   ar
    21    31    25    1
    22    25     1    1
    23     1     2   ar
    24     2     3   ar
    25     3     4    1
    26     3     5   ar
    27     5     6   ar
    28     6    11    1
    29    11    12    2
    30    11    13    1
    31     6     7   ar
    32     7     8   ar
    33     8    15    1
    34    15    16   am
    35    16    17    2
    36    16    19    1
    37    19    20    1
    38    20    21    1
    39    21    22    1
    40    22    23    1
    41    23    24    1
    42     8     9   ar
    43     9    10   ar
    44    31    26   ar
    45    10     1   ar
    46    44    39   ar
    47    10     5   ar
    48    24    20    1
    49    34    35    1
    50    13    14    1
    51    15    18    1
@<TRIPOS>MOLECULE
*****
 47 51 0 0 0
SMALL
GASTEIGER

@<TRIPOS>ATOM
      1 C          48.3455    9.2247  -29.2960 C.ar    1  UNL1        0.0010
      2 C          48.8238    8.5640  -30.4166 C.ar    1  UNL1        0.0719
      3 N          50.1620    8.3798  -30.3247 N.ar    1  UNL1       -0.3241
      4 C          50.9511    7.6234  -31.2948 C.3     1  UNL1        0.1305
      5 C          50.5519    8.9445  -29.1524 C.ar    1  UNL1        0.0660
      6 C          51.8295    8.9830  -28.5480 C.ar    1  UNL1        0.0924
      7 C          51.9184    9.5041  -27.2388 C.ar    1  UNL1        0.0227
      8 C          50.7753    9.9970  -26.5662 C.ar    1  UNL1        0.0535
      9 C          49.5345   10.0080  -27.2225 C.ar    1  UNL1        0.0159
     10 C          49.4517    9.4574  -28.4992 C.ar    1  UNL1        0.0150
     11 C          53.0715    8.5660  -29.2228 C.2     1  UNL1        0.3395
     12 O          53.3558    7.3443  -29.3248 O.2     1  UNL1       -0.2450
     13 O          53.9047    9.5098  -29.8173 O.3     1  UNL1       -0.4771
     14 H          53.7053   10.5012  -29.7556 H       1  UNL1        0.2954
     15 N          50.8641   10.5225  -25.2325 N.am    1  UNL1       -0.2499
     16 C          50.7782    9.7155  -24.0512 C.2     1  UNL1        0.4053
     17 O          50.5982    8.4692  -24.1354 O.2     1  UNL1       -0.2261
     18 H          50.8213   11.5589  -25.1056 H       1  UNL1        0.1582
     19 O          50.8513   10.3355  -22.7993 O.3     1  UNL1       -0.4383
     20 C          49.7629   11.0537  -22.2150 C.3     1  UNL1        0.1705
     21 C          49.8464   11.0115  -20.6913 C.3     1  UNL1        0.0437
     22 C          48.9996    9.8254  -20.2375 C.3     1  UNL1        0.0038
     23 C          48.2700    9.3034  -21.4708 C.3     1  UNL1        0.0038
     24 C          48.4576   10.3541  -22.5523 C.3     1  UNL1        0.0437
     25 C          46.8982    9.4890  -28.9766 C.3     1  UNL1        0.0572
     26 C          46.5766   11.9537  -29.5182 C.ar    1  UNL1        0.1352
     27 C          46.2669   13.2615  -29.0982 C.ar    1  UNL1        0.0411
     28 C          46.0613   13.5487  -27.7409 C.ar    1  UNL1        0.0578
     29 C          46.2342   12.5355  -26.7901 C.ar    1  UNL1        0.0044
     30 C          46.5389   11.2357  -27.1944 C.ar    1  UNL1       -0.0008
     31 C          46.6793   10.9253  -28.5573 C.ar    1  UNL1        0.0162
     32 C          45.6699   14.9071  -27.3137 C.2     1  UNL1        0.2644
     33 O          44.8725   15.5727  -28.0272 O.2     1  UNL1       -0.2686
     34 N          46.1654   15.4847  -26.0986 N.am    1  UNL1       -0.1814
     35 H          45.6096   16.2444  -25.6466 H       1  UNL1        0.1769
     36 S          47.7655   15.1755  -25.4921 S.O2    1  UNL1        0.0755
     37 O          47.6654   14.9109  -24.0163 O.2     1  UNL1       -0.1499
     38 O          48.3560   13.9771  -26.1820 O.2     1  UNL1       -0.1499
     39 C          48.8217   16.5656  -25.7989 C.ar    1  UNL1        0.1213
     40 C          50.0936   16.3389  -26.3508 C.ar    1  UNL1        0.0199
     41 C          50.9564   17.4041  -26.6126 C.ar    1  UNL1        0.0014
     42 C          50.5648   18.7089  -26.3201 C.ar    1  UNL1       -0.0002
     43 C          49.3155   18.9522  -25.7484 C.ar    1  UNL1       -0.0029
     44 C          48.4404   17.8896  -25.4603 C.ar    1  UNL1       -0.0030
     45 C          47.1209   18.1969  -24.8034 C.3     1  UNL1        0.0324
     46 C          46.0406   12.2127  -31.9516 C.3     1  UNL1        0.2525
     47 O          46.7733   11.6408  -30.8735 O.3     1  UNL1       -0.4717
@<TRIPOS>BOND
     1    46    47    1
     2    47    26    1
     3    26    27   ar
     4    27    28   ar
     5    28    32    1
     6    32    33    2
     7    32    34   am
     8    34    36    1
     9    36    37    2
    10    36    38    2
    11    36    39    1
    12    39    40   ar
    13    40    41   ar
    14    41    42   ar
    15    42    43   ar
    16    43    44   ar
    17    44    45    1
    18    28    29   ar
    19    29    30   ar
    20    30    31   ar
    21    31    25    1
    22    25     1    1
    23     1     2   ar
    24     2     3   ar
    25     3     4    1
    26     3     5   ar
    27     5     6   ar
    28     6    11    1
    29    11    12    2
    30    11    13    1
    31     6     7   ar
    32     7     8   ar
    33     8    15    1
    34    15    16   am
    35    16    17    2
    36    16    19    1
    37    19    20    1
    38    20    21    1
    39    21    22    1
    40    22    23    1
    41    23    24    1
    42     8     9   ar
    43     9    10   ar
    44    31    26   ar
    45    10     1   ar
    46    44    39   ar
    47    10     5   ar
    48    24    20    1
    49    34    35    1
    50    13    14    1
    51    15    18    1
@<TRIPOS>MOLECULE
*****
 47 51 0 0 0
SMALL
GASTEIGER

@<TRIPOS>ATOM
      1 C          45.9838   15.1481  -28.1535 C.ar    1  UNL1        0.0010
      2 C          45.5326   15.0219  -29.4579 C.ar    1  UNL1        0.0719
      3 N          45.6949   13.7511  -29.8962 N.ar    1  UNL1       -0.3241
      4 C          45.2231   13.2673  -31.1920 C.3     1  UNL1        0.1305
      5 C          46.2746   13.0612  -28.8797 C.ar    1  UNL1        0.0660
      6 C          46.6075   11.6898  -28.7919 C.ar    1  UNL1        0.0924
      7 C          47.0597   11.2050  -27.5454 C.ar    1  UNL1        0.0227
      8 C          47.2028   12.0657  -26.4314 C.ar    1  UNL1        0.0535
      9 C          46.9300   13.4354  -26.5730 C.ar    1  UNL1        0.0159
     10 C          46.4490   13.8956  -27.7964 C.ar    1  UNL1        0.0150
     11 C          46.5633   10.7580  -29.9328 C.2     1  UNL1        0.3395
     12 O          47.1278   11.0588  -31.0166 O.2     1  UNL1       -0.2450
     13 O          45.9629    9.5086  -29.8029 O.3     1  UNL1       -0.4771
     14 H          45.5006    9.2334  -28.9444 H       1  UNL1        0.2954
     15 N          47.6579   11.5722  -25.1618 N.am    1  UNL1       -0.2499
     16 C          49.0374   11.3547  -24.8400 C.2     1  UNL1        0.4053
     17 O          49.9400   11.5794  -25.6929 O.2     1  UNL1       -0.2261
     18 H          46.9477   11.1934  -24.4953 H       1  UNL1        0.1582
     19 O          49.3678   10.8453  -23.5797 O.3     1  UNL1       -0.4383
     20 C          48.7444    9.6917  -23.0118 C.3     1  UNL1        0.1705
     21 C          47.6369   10.1002  -22.0438 C.3     1  UNL1        0.0437
     22 C          48.2657   10.1542  -20.6540 C.3     1  UNL1        0.0038
     23 C          49.6765    9.5895  -20.7831 C.3     1  UNL1        0.0038
     24 C          49.7519    8.9433  -22.1563 C.3     1  UNL1        0.0437
     25 C          45.8476   16.3708  -27.2857 C.3     1  UNL1        0.0572
     26 C          47.2255   17.1645  -25.3001 C.ar    1  UNL1        0.1352
     27 C          48.4802   17.3999  -24.7059 C.ar    1  UNL1        0.0411
     28 C          49.6641   17.2196  -25.4359 C.ar    1  UNL1        0.0578
     29 C          49.5905   16.8680  -26.7892 C.ar    1  UNL1        0.0044
     30 C          48.3533   16.6302  -27.3880 C.ar    1  UNL1       -0.0008
     31 C          47.1662   16.7423  -26.6454 C.ar    1  UNL1        0.0162
     32 C          50.9787   17.4019  -24.7879 C.2     1  UNL1        0.2644
     33 O          51.6765   18.4095  -25.0803 O.2     1  UNL1       -0.2686
     34 N          51.4771   16.4658  -23.8230 N.am    1  UNL1       -0.1814
     35 H          52.1891   16.7943  -23.1336 H       1  UNL1        0.1769
     36 S          51.1604   14.7584  -23.9154 S.O2    1  UNL1        0.0755
     37 O          50.9275   14.4014  -25.3564 O.2     1  UNL1       -0.1499
     38 O          52.3373   13.9862  -23.3869 O.2     1  UNL1       -0.1499
     39 C          49.7414   14.3397  -22.9393 C.ar    1  UNL1        0.1213
     40 C          48.4708   14.3938  -23.5363 C.ar    1  UNL1        0.0199
     41 C          47.3266   14.0686  -22.8065 C.ar    1  UNL1        0.0014
     42 C          47.4340   13.6926  -21.4691 C.ar    1  UNL1       -0.0002
     43 C          48.6846   13.6571  -20.8513 C.ar    1  UNL1       -0.0029
     44 C          49.8465   13.9997  -21.5658 C.ar    1  UNL1       -0.0030
     45 C          51.1685   13.9888  -20.8451 C.3     1  UNL1        0.0324
     46 C          45.9426   17.7954  -23.2430 C.3     1  UNL1        0.2525
     47 O          46.0278   17.3257  -24.5840 O.3     1  UNL1       -0.4717
@<TRIPOS>BOND
     1    46    47    1
     2    47    26    1
     3    26    27   ar
     4    27    28   ar
     5    28    32    1
     6    32    33    2
     7    32    34   am
     8    34    36    1
     9    36    37    2
    10    36    38    2
    11    36    39    1
    12    39    40   ar
    13    40    41   ar
    14    41    42   ar
    15    42    43   ar
    16    43    44   ar
    17    44    45    1
    18    28    29   ar
    19    29    30   ar
    20    30    31   ar
    21    31    25    1
    22    25     1    1
    23     1     2   ar
    24     2     3   ar
    25     3     4    1
    26     3     5   ar
    27     5     6   ar
    28     6    11    1
    29    11    12    2
    30    11    13    1
    31     6     7   ar
    32     7     8   ar
    33     8    15    1
    34    15    16   am
    35    16    17    2
    36    16    19    1
    37    19    20    1
    38    20    21    1
    39    21    22    1
    40    22    23    1
    41    23    24    1
    42     8     9   ar
    43     9    10   ar
    44    31    26   ar
    45    10     1   ar
    46    44    39   ar
    47    10     5   ar
    48    24    20    1
    49    34    35    1
    50    13    14    1
    51    15    18    1
@<TRIPOS>MOLECULE
*****
 47 51 0 0 0
SMALL
GASTEIGER

@<TRIPOS>ATOM
      1 C          50.2639   10.5227  -26.2782 C.ar    1  UNL1        0.0010
      2 C          50.3044    9.4731  -27.1824 C.ar    1  UNL1        0.0719
      3 N          49.2541    9.5388  -28.0343 N.ar    1  UNL1       -0.3241
      4 C          49.0660    8.6390  -29.1704 C.3     1  UNL1        0.1305
      5 C          48.5208   10.6205  -27.6635 C.ar    1  UNL1        0.0660
      6 C          47.3588   11.1703  -28.2523 C.ar    1  UNL1        0.0924
      7 C          46.8913   12.4037  -27.7487 C.ar    1  UNL1        0.0227
      8 C          47.5446   13.0526  -26.6743 C.ar    1  UNL1        0.0535
      9 C          48.6544   12.4440  -26.0674 C.ar    1  UNL1        0.0159
     10 C          49.1291   11.2462  -26.5964 C.ar    1  UNL1        0.0150
     11 C          46.5823   10.5067  -29.3146 C.2     1  UNL1        0.3395
     12 O          46.1317    9.3453  -29.1364 O.2     1  UNL1       -0.2450
     13 O          46.2766   11.1810  -30.4937 O.3     1  UNL1       -0.4771
     14 H          46.6218   12.1172  -30.6694 H       1  UNL1        0.2954
     15 N          47.0725   14.3098  -26.1650 N.am    1  UNL1       -0.2499
     16 C          47.3845   15.5768  -26.7577 C.2     1  UNL1        0.4053
     17 O          48.1258   15.6451  -27.7767 O.2     1  UNL1       -0.2261
     18 H          46.6190   14.3229  -25.2236 H       1  UNL1        0.1582
     19 O          46.8922   16.7435  -26.1631 O.3     1  UNL1       -0.4383
     20 C          47.5127   17.3739  -25.0408 C.3     1  UNL1        0.1705
     21 C          47.0169   18.8096  -24.8880 C.3     1  UNL1        0.0437
     22 C          48.0070   19.6983  -25.6361 C.3     1  UNL1        0.0038
     23 C          49.1750   18.8098  -26.0512 C.3     1  UNL1        0.0038
     24 C          49.0045   17.5027  -25.2954 C.3     1  UNL1        0.0437
     25 C          51.3272   10.8593  -25.2668 C.3     1  UNL1        0.0572
     26 C          50.8900   11.5680  -22.8630 C.ar    1  UNL1        0.1352
     27 C          50.3493   11.2927  -21.5924 C.ar    1  UNL1        0.0411
     28 C          49.7855   10.0400  -21.3095 C.ar    1  UNL1        0.0578
     29 C          49.8245    9.0332  -22.2817 C.ar    1  UNL1        0.0044
     30 C          50.3557    9.2950  -23.5448 C.ar    1  UNL1       -0.0008
     31 C          50.8605   10.5679  -23.8583 C.ar    1  UNL1        0.0162
     32 C          49.1590    9.7797  -19.9977 C.2     1  UNL1        0.2644
     33 O          49.5457    8.7947  -19.3136 O.2     1  UNL1       -0.2686
     34 N          48.1280   10.6284  -19.4757 N.am    1  UNL1       -0.1814
     35 H          47.9791   10.6517  -18.4425 H       1  UNL1        0.1769
     36 S          46.9456   11.4057  -20.4864 S.O2    1  UNL1        0.0755
     37 O          46.5246   10.4320  -21.5507 O.2     1  UNL1       -0.1499
     38 O          45.7506   11.8073  -19.6670 O.2     1  UNL1       -0.1499
     39 C          47.6271   12.8671  -21.2225 C.ar    1  UNL1        0.1213
     40 C          48.5785   13.6067  -20.5002 C.ar    1  UNL1        0.0199
     41 C          49.1442   14.7614  -21.0427 C.ar    1  UNL1        0.0014
     42 C          48.7625   15.1979  -22.3097 C.ar    1  UNL1       -0.0002
     43 C          47.8007   14.4910  -23.0322 C.ar    1  UNL1       -0.0029
     44 C          47.2061   13.3358  -22.4938 C.ar    1  UNL1       -0.0030
     45 C          46.1415   12.6311  -23.2919 C.3     1  UNL1        0.0324
     46 C          52.3427   13.5384  -22.3311 C.3     1  UNL1        0.2525
     47 O          51.4474   12.8198  -23.1725 O.3     1  UNL1       -0.4717
@<TRIPOS>BOND
     1    46    47    1
     2    47    26    1
     3    26    27   ar
     4    27    28   ar
     5    28    32    1
     6    32    33    2
     7    32    34   am
     8    34    36    1
     9    36    37    2
    10    36    38    2
    11    36    39    1
    12    39    40   ar
    13    40    41   ar
    14    41    42   ar
    15    42    43   ar
    16    43    44   ar
    17    44    45    1
    18    28    29   ar
    19    29    30   ar
    20    30    31   ar
    21    31    25    1
    22    25     1    1
    23     1     2   ar
    24     2     3   ar
    25     3     4    1
    26     3     5   ar
    27     5     6   ar
    28     6    11    1
    29    11    12    2
    30    11    13    1
    31     6     7   ar
    32     7     8   ar
    33     8    15    1
    34    15    16   am
    35    16    17    2
    36    16    19    1
    37    19    20    1
    38    20    21    1
    39    21    22    1
    40    22    23    1
    41    23    24    1
    42     8     9   ar
    43     9    10   ar
    44    31    26   ar
    45    10     1   ar
    46    44    39   ar
    47    10     5   ar
    48    24    20    1
    49    34    35    1
    50    13    14    1
    51    15    18    1
@<TRIPOS>MOLECULE
*****
 47 51 0 0 0
SMALL
GASTEIGER

@<TRIPOS>ATOM
      1 C          48.1764    9.7005  -28.8358 C.ar    1  UNL1        0.0010
      2 C          48.6430    9.1493  -30.0188 C.ar    1  UNL1        0.0719
      3 N          49.9663    8.8777  -29.9272 N.ar    1  UNL1       -0.3241
      4 C          50.7342    8.1958  -30.9670 C.3     1  UNL1        0.1305
      5 C          50.3596    9.2768  -28.6898 C.ar    1  UNL1        0.0660
      6 C          51.6229    9.1691  -28.0639 C.ar    1  UNL1        0.0924
      7 C          51.7101    9.5265  -26.7008 C.ar    1  UNL1        0.0227
      8 C          50.5810   10.0029  -25.9935 C.ar    1  UNL1        0.0535
      9 C          49.3585   10.1635  -26.6645 C.ar    1  UNL1        0.0159
     10 C          49.2749    9.7728  -27.9987 C.ar    1  UNL1        0.0150
     11 C          52.8550    8.7625  -28.7627 C.2     1  UNL1        0.3395
     12 O          53.0896    7.5441  -28.9730 O.2     1  UNL1       -0.2450
     13 O          53.7342    9.7199  -29.2613 O.3     1  UNL1       -0.4771
     14 H          53.5755   10.7092  -29.1115 H       1  UNL1        0.2954
     15 N          50.6679   10.3617  -24.6055 N.am    1  UNL1       -0.2499
     16 C          50.3642    9.4640  -23.5304 C.2     1  UNL1        0.4053
     17 O          49.9786    8.2856  -23.7658 O.2     1  UNL1       -0.2261
     18 H          50.7955   11.3701  -24.3626 H       1  UNL1        0.1582
     19 O          50.4574    9.9267  -22.2135 O.3     1  UNL1       -0.4383
     20 C          49.6210    9.4550  -21.1553 C.3     1  UNL1        0.1705
     21 C          48.1477    9.6097  -21.5240 C.3     1  UNL1        0.0437
     22 C          47.6941   10.9560  -20.9660 C.3     1  UNL1        0.0038
     23 C          48.8376   11.4893  -20.1093 C.3     1  UNL1        0.0038
     24 C          49.8101   10.3354  -19.9320 C.3     1  UNL1        0.0437
     25 C          46.7392   10.0096  -28.5114 C.3     1  UNL1        0.0572
     26 C          46.3630   12.3920  -29.3200 C.ar    1  UNL1        0.1352
     27 C          46.0716   13.7407  -29.0392 C.ar    1  UNL1        0.0411
     28 C          45.9542   14.1878  -27.7150 C.ar    1  UNL1        0.0578
     29 C          46.1977   13.2954  -26.6640 C.ar    1  UNL1        0.0044
     30 C          46.4851   11.9565  -26.9300 C.ar    1  UNL1       -0.0008
     31 C          46.5373   11.4857  -28.2525 C.ar    1  UNL1        0.0162
     32 C          45.5813   15.5876  -27.4275 C.2     1  UNL1        0.2644
     33 O          44.5307   16.0632  -27.9353 O.2     1  UNL1       -0.2686
     34 N          46.3795   16.4176  -26.5733 N.am    1  UNL1       -0.1814
     35 H          45.9231   17.2298  -26.1018 H       1  UNL1        0.1769
     36 S          48.1129   16.3016  -26.4985 S.O2    1  UNL1        0.0755
     37 O          48.6078   15.8007  -27.8260 O.2     1  UNL1       -0.1499
     38 O          48.7086   17.6524  -26.2136 O.2     1  UNL1       -0.1499
     39 C          48.6026   15.1972  -25.2014 C.ar    1  UNL1        0.1213
     40 C          49.5450   14.1951  -25.4870 C.ar    1  UNL1        0.0199
     41 C          49.9622   13.3064  -24.4953 C.ar    1  UNL1        0.0014
     42 C          49.4390   13.4005  -23.2073 C.ar    1  UNL1       -0.0002
     43 C          48.4835   14.3730  -22.9103 C.ar    1  UNL1       -0.0029
     44 C          48.0373   15.2651  -23.9018 C.ar    1  UNL1       -0.0030
     45 C          46.9731   16.2690  -23.5457 C.3     1  UNL1        0.0324
     46 C          45.8040   12.4870  -31.7602 C.3     1  UNL1        0.2525
     47 O          46.4718   11.9196  -30.6385 O.3     1  UNL1       -0.4717
@<TRIPOS>BOND
     1    46    47    1
     2    47    26    1
     3    26    27   ar
     4    27    28   ar
     5    28    32    1
     6    32    33    2
     7    32    34   am
     8    34    36    1
     9    36    37    2
    10    36    38    2
    11    36    39    1
    12    39    40   ar
    13    40    41   ar
    14    41    42   ar
    15    42    43   ar
    16    43    44   ar
    17    44    45    1
    18    28    29   ar
    19    29    30   ar
    20    30    31   ar
    21    31    25    1
    22    25     1    1
    23     1     2   ar
    24     2     3   ar
    25     3     4    1
    26     3     5   ar
    27     5     6   ar
    28     6    11    1
    29    11    12    2
    30    11    13    1
    31     6     7   ar
    32     7     8   ar
    33     8    15    1
    34    15    16   am
    35    16    17    2
    36    16    19    1
    37    19    20    1
    38    20    21    1
    39    21    22    1
    40    22    23    1
    41    23    24    1
    42     8     9   ar
    43     9    10   ar
    44    31    26   ar
    45    10     1   ar
    46    44    39   ar
    47    10     5   ar
    48    24    20    1
    49    34    35    1
    50    13    14    1
    51    15    18    1
@<TRIPOS>MOLECULE
*****
 47 51 0 0 0
SMALL
GASTEIGER

@<TRIPOS>ATOM
      1 C          50.8028   13.8184  -21.3199 C.ar    1  UNL1        0.0010
      2 C          51.1605   13.2559  -20.1048 C.ar    1  UNL1        0.0719
      3 N          50.0847   12.6910  -19.5075 N.ar    1  UNL1       -0.3241
      4 C          50.1488   11.9248  -18.2646 C.3     1  UNL1        0.1305
      5 C          49.0251   12.9107  -20.3285 C.ar    1  UNL1        0.0660
      6 C          47.6826   12.4838  -20.2065 C.ar    1  UNL1        0.0924
      7 C          46.8185   12.7228  -21.2972 C.ar    1  UNL1        0.0227
      8 C          47.2713   13.3912  -22.4592 C.ar    1  UNL1        0.0535
      9 C          48.5918   13.8636  -22.5183 C.ar    1  UNL1        0.0159
     10 C          49.4454   13.5894  -21.4524 C.ar    1  UNL1        0.0150
     11 C          47.1251   11.8597  -18.9935 C.2     1  UNL1        0.3395
     12 O          46.2746   12.4754  -18.2998 O.2     1  UNL1       -0.2450
     13 O          47.4756   10.5588  -18.6424 O.3     1  UNL1       -0.4771
     14 H          48.1559   10.0338  -19.1791 H       1  UNL1        0.2954
     15 N          46.3941   13.6301  -23.5711 N.am    1  UNL1       -0.2499
     16 C          46.3084   14.8821  -24.2632 C.2     1  UNL1        0.4053
     17 O          47.0116   15.8659  -23.9024 O.2     1  UNL1       -0.2261
     18 H          45.6612   12.9164  -23.7848 H       1  UNL1        0.1582
     19 O          45.3991   15.0131  -25.3183 O.3     1  UNL1       -0.4383
     20 C          45.7018   14.6442  -26.6651 C.3     1  UNL1        0.1705
     21 C          47.2082   14.4825  -26.8532 C.3     1  UNL1        0.0437
     22 C          47.7355   15.8255  -27.3512 C.3     1  UNL1        0.0038
     23 C          46.5199   16.7000  -27.6402 C.3     1  UNL1        0.0038
     24 C          45.3130   15.7778  -27.5984 C.3     1  UNL1        0.0437
     25 C          51.7466   14.4178  -22.3282 C.3     1  UNL1        0.0572
     26 C          51.2159   13.8344  -24.7468 C.ar    1  UNL1        0.1352
     27 C          51.4560   13.0477  -25.8896 C.ar    1  UNL1        0.0411
     28 C          52.3539   11.9713  -25.8430 C.ar    1  UNL1        0.0578
     29 C          52.9638   11.6369  -24.6278 C.ar    1  UNL1        0.0044
     30 C          52.7353   12.4104  -23.4896 C.ar    1  UNL1       -0.0008
     31 C          51.8900   13.5311  -23.5447 C.ar    1  UNL1        0.0162
     32 C          52.6532   11.1923  -27.0615 C.2     1  UNL1        0.2644
     33 O          53.5259   11.6157  -27.8659 O.2     1  UNL1       -0.2686
     34 N          51.9834    9.9573  -27.3473 N.am    1  UNL1       -0.1814
     35 H          52.4551    9.2699  -27.9759 H       1  UNL1        0.1769
     36 S          50.3224    9.6658  -26.9227 S.O2    1  UNL1        0.0755
     37 O          49.4889   10.7759  -27.4979 O.2     1  UNL1       -0.1499
     38 O          49.8692    8.3481  -27.4876 O.2     1  UNL1       -0.1499
     39 C          50.1368    9.6047  -25.1610 C.ar    1  UNL1        0.1213
     40 C          50.8563    8.6380  -24.4388 C.ar    1  UNL1        0.0199
     41 C          50.7436    8.5564  -23.0502 C.ar    1  UNL1        0.0014
     42 C          49.9056    9.4331  -22.3643 C.ar    1  UNL1       -0.0002
     43 C          49.1635   10.3838  -23.0661 C.ar    1  UNL1       -0.0029
     44 C          49.2501   10.4683  -24.4673 C.ar    1  UNL1       -0.0030
     45 C          48.3976   11.4808  -25.1850 C.3     1  UNL1        0.0324
     46 C          50.6466   16.2113  -25.2964 C.3     1  UNL1        0.2525
     47 O          50.3312   14.9252  -24.7742 O.3     1  UNL1       -0.4717
@<TRIPOS>BOND
     1    46    47    1
     2    47    26    1
     3    26    27   ar
     4    27    28   ar
     5    28    32    1
     6    32    33    2
     7    32    34   am
     8    34    36    1
     9    36    37    2
    10    36    38    2
    11    36    39    1
    12    39    40   ar
    13    40    41   ar
    14    41    42   ar
    15    42    43   ar
    16    43    44   ar
    17    44    45    1
    18    28    29   ar
    19    29    30   ar
    20    30    31   ar
    21    31    25    1
    22    25     1    1
    23     1     2   ar
    24     2     3   ar
    25     3     4    1
    26     3     5   ar
    27     5     6   ar
    28     6    11    1
    29    11    12    2
    30    11    13    1
    31     6     7   ar
    32     7     8   ar
    33     8    15    1
    34    15    16   am
    35    16    17    2
    36    16    19    1
    37    19    20    1
    38    20    21    1
    39    21    22    1
    40    22    23    1
    41    23    24    1
    42     8     9   ar
    43     9    10   ar
    44    31    26   ar
    45    10     1   ar
    46    44    39   ar
    47    10     5   ar
    48    24    20    1
    49    34    35    1
    50    13    14    1
    51    15    18    1
