@<TRIPOS>MOLECULE
*****
 36 39 0 0 0
SMALL
GASTEIGER

@<TRIPOS>ATOM
      1 C         -19.1152   -9.9160   -8.7680 C.ar    1  UNL1        0.1718
      2 C         -18.9300  -10.4912  -10.0363 C.ar    1  UNL1        0.0400
      3 C         -19.8399  -10.2497  -11.0635 C.ar    1  UNL1        0.0030
      4 C         -20.9586   -9.4310  -10.8517 C.ar    1  UNL1       -0.0014
      5 C         -21.1749   -8.8717   -9.5680 C.ar    1  UNL1        0.0146
      6 C         -20.2396   -9.1023   -8.5365 C.ar    1  UNL1        0.1636
      7 O         -20.4354   -8.5183   -7.2826 O.3     1  UNL1       -0.5031
      8 C         -22.4081   -8.0286   -9.3186 C.3     1  UNL1        0.0324
      9 C         -22.3268   -6.6616  -10.0201 C.3     1  UNL1        0.0386
     10 C         -21.7745   -6.7092  -11.4650 C.3     1  UNL1        0.1343
     11 C         -22.3527   -7.8956  -12.2379 C.2     1  UNL1       -0.0132
     12 C         -21.8974   -9.1561  -11.9799 C.2     1  UNL1       -0.0054
     13 H         -19.7917   -8.6538   -6.5125 H       1  UNL1        0.2923
     14 C         -22.3794  -10.3185  -12.7570 C.ar    1  UNL1        0.0057
     15 C         -21.8025  -10.6189  -13.9915 C.ar    1  UNL1        0.0402
     16 C         -22.2327  -11.7383  -14.7242 C.ar    1  UNL1        0.1754
     17 C         -23.2575  -12.5580  -14.2199 C.ar    1  UNL1        0.2061
     18 C         -23.8617  -12.2436  -12.9740 C.ar    1  UNL1        0.1754
     19 C         -23.4110  -11.1183  -12.2584 C.ar    1  UNL1        0.0402
     20 O         -21.6620  -12.0751  -15.9626 O.3     1  UNL1       -0.4683
     21 C         -22.2083  -11.7184  -17.2283 C.3     1  UNL1        0.2526
     22 O         -23.6241  -13.6664  -15.0075 O.3     1  UNL1       -0.4654
     23 C         -22.9852  -14.9379  -15.0323 C.3     1  UNL1        0.2528
     24 O         -24.8922  -13.0511  -12.4676 O.3     1  UNL1       -0.4683
     25 C         -25.9576  -13.5960  -13.2398 C.3     1  UNL1        0.2526
     26 C         -17.3925  -11.2906   -7.5784 C.3     1  UNL1        0.2526
     27 O         -18.2069  -10.1309   -7.7186 O.3     1  UNL1       -0.4684
     28 O         -22.0857   -5.4894  -12.1233 O.3     1  UNL1       -0.3495
     29 C         -22.4896   -4.5012  -11.2001 C.3     1  UNL1        0.1744
     30 C         -23.4638   -7.6589  -13.2544 C.3     1  UNL1        0.0506
     31 C         -24.7886   -7.3484  -12.6014 C.ar    1  UNL1       -0.0180
     32 C         -25.4016   -6.0953  -12.7786 C.ar    1  UNL1       -0.0039
     33 C         -26.6256   -5.8155  -12.1637 C.ar    1  UNL1       -0.0003
     34 C         -27.2414   -6.7768  -11.3583 C.ar    1  UNL1       -0.0000
     35 C         -26.6332   -8.0192  -11.1640 C.ar    1  UNL1       -0.0003
     36 C         -25.4081   -8.3027  -11.7745 C.ar    1  UNL1       -0.0039
@<TRIPOS>BOND
     1    26    27    1
     2    27     1    1
     3     1     2   ar
     4     2     3   ar
     5     3     4   ar
     6     4     5   ar
     7     5     6   ar
     8     6     7    1
     9     5     8    1
    10     8     9    1
    11     9    10    1
    12    10    28    1
    13    28    29    1
    14    10    11    1
    15    11    30    1
    16    30    31    1
    17    31    32   ar
    18    32    33   ar
    19    33    34   ar
    20    34    35   ar
    21    35    36   ar
    22    11    12    2
    23    12    14    1
    24    14    15   ar
    25    15    16   ar
    26    16    20    1
    27    20    21    1
    28    16    17   ar
    29    17    22    1
    30    22    23    1
    31    17    18   ar
    32    18    24    1
    33    24    25    1
    34    18    19   ar
    35     6     1   ar
    36    36    31   ar
    37    19    14   ar
    38    12     4    1
    39     7    13    1
@<TRIPOS>MOLECULE
*****
 36 39 0 0 0
SMALL
GASTEIGER

@<TRIPOS>ATOM
      1 C         -19.1162   -9.8886   -8.7287 C.ar    1  UNL1        0.1718
      2 C         -18.9118  -10.4696   -9.9914 C.ar    1  UNL1        0.0400
      3 C         -19.8155  -10.2471  -11.0284 C.ar    1  UNL1        0.0030
      4 C         -20.9470   -9.4420  -10.8320 C.ar    1  UNL1       -0.0014
      5 C         -21.1823   -8.8773   -9.5542 C.ar    1  UNL1        0.0146
      6 C         -20.2535   -9.0886   -8.5128 C.ar    1  UNL1        0.1636
      7 O         -20.4684   -8.4992   -7.2646 O.3     1  UNL1       -0.5031
      8 C         -22.4290   -8.0493   -9.3214 C.3     1  UNL1        0.0324
      9 C         -22.3596   -6.6860  -10.0312 C.3     1  UNL1        0.0386
     10 C         -21.7936   -6.7356  -11.4707 C.3     1  UNL1        0.1343
     11 C         -22.3489   -7.9346  -12.2410 C.2     1  UNL1       -0.0132
     12 C         -21.8791   -9.1872  -11.9704 C.2     1  UNL1       -0.0054
     13 H         -19.8300   -8.6210   -6.4878 H       1  UNL1        0.2923
     14 C         -22.3384  -10.3611  -12.7442 C.ar    1  UNL1        0.0057
     15 C         -23.3644  -11.1653  -12.2469 C.ar    1  UNL1        0.0402
     16 C         -23.8284  -12.2655  -12.9878 C.ar    1  UNL1        0.1754
     17 C         -23.2517  -12.5686  -14.2337 C.ar    1  UNL1        0.2061
     18 C         -22.1930  -11.7653  -14.7335 C.ar    1  UNL1        0.1754
     19 C         -21.7481  -10.6674  -13.9732 C.ar    1  UNL1        0.0402
     20 O         -24.8692  -13.0852  -12.5211 O.3     1  UNL1       -0.4683
     21 C         -26.0199  -13.4418  -13.2805 C.3     1  UNL1        0.2526
     22 O         -23.7795  -13.6795  -14.9197 O.3     1  UNL1       -0.4654
     23 C         -23.1438  -14.9384  -15.1115 C.3     1  UNL1        0.2528
     24 O         -21.6050  -12.0664  -15.9720 O.3     1  UNL1       -0.4683
     25 C         -22.1891  -11.7930  -17.2418 C.3     1  UNL1        0.2526
     26 C         -17.4031  -11.2425   -7.5020 C.3     1  UNL1        0.2526
     27 O         -18.2147  -10.0844   -7.6697 O.3     1  UNL1       -0.4684
     28 O         -22.1151   -5.5244  -12.1399 O.3     1  UNL1       -0.3495
     29 C         -22.5432   -4.5365  -11.2273 C.3     1  UNL1        0.1744
     30 C         -23.4537   -7.7195  -13.2689 C.3     1  UNL1        0.0506
     31 C         -24.7845   -7.4044  -12.6304 C.ar    1  UNL1       -0.0180
     32 C         -25.4130   -6.1662  -12.8515 C.ar    1  UNL1       -0.0039
     33 C         -26.6425   -5.8818  -12.2497 C.ar    1  UNL1       -0.0003
     34 C         -27.2484   -6.8232  -11.4140 C.ar    1  UNL1       -0.0000
     35 C         -26.6248   -8.0504  -11.1763 C.ar    1  UNL1       -0.0003
     36 C         -25.3943   -8.3383  -11.7735 C.ar    1  UNL1       -0.0039
@<TRIPOS>BOND
     1    26    27    1
     2    27     1    1
     3     1     2   ar
     4     2     3   ar
     5     3     4   ar
     6     4     5   ar
     7     5     6   ar
     8     6     7    1
     9     5     8    1
    10     8     9    1
    11     9    10    1
    12    10    28    1
    13    28    29    1
    14    10    11    1
    15    11    30    1
    16    30    31    1
    17    31    32   ar
    18    32    33   ar
    19    33    34   ar
    20    34    35   ar
    21    35    36   ar
    22    11    12    2
    23    12    14    1
    24    14    15   ar
    25    15    16   ar
    26    16    20    1
    27    20    21    1
    28    16    17   ar
    29    17    22    1
    30    22    23    1
    31    17    18   ar
    32    18    24    1
    33    24    25    1
    34    18    19   ar
    35     6     1   ar
    36    36    31   ar
    37    19    14   ar
    38    12     4    1
    39     7    13    1
@<TRIPOS>MOLECULE
*****
 36 39 0 0 0
SMALL
GASTEIGER

@<TRIPOS>ATOM
      1 C         -21.2276   -8.1782   -8.6584 C.ar    1  UNL1        0.1718
      2 C         -20.5823   -8.1892   -9.9064 C.ar    1  UNL1        0.0400
      3 C         -21.2525   -8.6272  -11.0467 C.ar    1  UNL1        0.0030
      4 C         -22.5818   -9.0678  -10.9714 C.ar    1  UNL1       -0.0014
      5 C         -23.2332   -9.0931   -9.7135 C.ar    1  UNL1        0.0146
      6 C         -22.5572   -8.6291   -8.5648 C.ar    1  UNL1        0.1636
      7 O         -23.2149   -8.6194   -7.3323 O.3     1  UNL1       -0.5031
      8 C         -24.6514   -9.6160   -9.6170 C.3     1  UNL1        0.0324
      9 C         -25.6693   -8.6492  -10.2467 C.3     1  UNL1        0.0386
     10 C         -25.2256   -8.0328  -11.5950 C.3     1  UNL1        0.1343
     11 C         -24.5615   -9.0810  -12.4891 C.2     1  UNL1       -0.0132
     12 C         -23.2902   -9.4950  -12.2145 C.2     1  UNL1       -0.0054
     13 H         -22.7718   -8.2949   -6.4813 H       1  UNL1        0.2923
     14 C         -22.5889  -10.4519  -13.0976 C.ar    1  UNL1        0.0057
     15 C         -21.9157  -11.5433  -12.5474 C.ar    1  UNL1        0.0402
     16 C         -21.2713  -12.4746  -13.3793 C.ar    1  UNL1        0.1754
     17 C         -21.2928  -12.3049  -14.7748 C.ar    1  UNL1        0.2061
     18 C         -21.9586  -11.1842  -15.3375 C.ar    1  UNL1        0.1754
     19 C         -22.5986  -10.2671  -14.4827 C.ar    1  UNL1        0.0402
     20 O         -20.5979  -13.5910  -12.8567 O.3     1  UNL1       -0.4683
     21 C         -19.6615  -13.5415  -11.7850 C.3     1  UNL1        0.2526
     22 O         -20.6341  -13.2867  -15.5400 O.3     1  UNL1       -0.4654
     23 C         -21.2462  -14.3344  -16.2838 C.3     1  UNL1        0.2528
     24 O         -21.9769  -11.0017  -16.7291 O.3     1  UNL1       -0.4683
     25 C         -23.1495  -10.9995  -17.5375 C.3     1  UNL1        0.2526
     26 C         -19.4537   -8.3635   -6.9001 C.3     1  UNL1        0.2526
     27 O         -20.5810   -7.7289   -7.4954 O.3     1  UNL1       -0.4684
     28 O         -26.3568   -7.4713  -12.2455 O.3     1  UNL1       -0.3495
     29 C         -26.2750   -6.0628  -12.2842 C.3     1  UNL1        0.1744
     30 C         -25.3463   -9.6837  -13.6486 C.3     1  UNL1        0.0506
     31 C         -25.4182  -11.1896  -13.5777 C.ar    1  UNL1       -0.0180
     32 C         -25.3217  -11.8569  -12.3437 C.ar    1  UNL1       -0.0039
     33 C         -25.3826  -13.2526  -12.2898 C.ar    1  UNL1       -0.0003
     34 C         -25.5274  -13.9939  -13.4652 C.ar    1  UNL1       -0.0000
     35 C         -25.6092  -13.3410  -14.6974 C.ar    1  UNL1       -0.0003
     36 C         -25.5461  -11.9459  -14.7567 C.ar    1  UNL1       -0.0039
@<TRIPOS>BOND
     1    26    27    1
     2    27     1    1
     3     1     2   ar
     4     2     3   ar
     5     3     4   ar
     6     4     5   ar
     7     5     6   ar
     8     6     7    1
     9     5     8    1
    10     8     9    1
    11     9    10    1
    12    10    28    1
    13    28    29    1
    14    10    11    1
    15    11    30    1
    16    30    31    1
    17    31    32   ar
    18    32    33   ar
    19    33    34   ar
    20    34    35   ar
    21    35    36   ar
    22    11    12    2
    23    12    14    1
    24    14    15   ar
    25    15    16   ar
    26    16    20    1
    27    20    21    1
    28    16    17   ar
    29    17    22    1
    30    22    23    1
    31    17    18   ar
    32    18    24    1
    33    24    25    1
    34    18    19   ar
    35     6     1   ar
    36    36    31   ar
    37    19    14   ar
    38    12     4    1
    39     7    13    1
@<TRIPOS>MOLECULE
*****
 36 39 0 0 0
SMALL
GASTEIGER

@<TRIPOS>ATOM
      1 C         -21.0847   -8.1475   -8.5727 C.ar    1  UNL1        0.1718
      2 C         -20.6964   -7.7715   -9.8695 C.ar    1  UNL1        0.0400
      3 C         -21.5425   -7.9921  -10.9544 C.ar    1  UNL1        0.0030
      4 C         -22.7956   -8.5953  -10.7743 C.ar    1  UNL1       -0.0014
      5 C         -23.1854   -9.0094   -9.4766 C.ar    1  UNL1        0.0146
      6 C         -22.3339   -8.7652   -8.3779 C.ar    1  UNL1        0.1636
      7 O         -22.7372   -9.1400   -7.0940 O.3     1  UNL1       -0.5031
      8 C         -24.5153   -9.7078   -9.2832 C.3     1  UNL1        0.0324
      9 C         -25.7044   -8.7461   -9.4518 C.3     1  UNL1        0.0386
     10 C         -25.5787   -7.7665  -10.6433 C.3     1  UNL1        0.1343
     11 C         -25.0271   -8.4730  -11.8826 C.2     1  UNL1       -0.0132
     12 C         -23.6999   -8.7848  -11.9474 C.2     1  UNL1       -0.0054
     13 H         -22.1615   -8.9846   -6.2754 H       1  UNL1        0.2923
     14 C         -23.1164   -9.4016  -13.1584 C.ar    1  UNL1        0.0057
     15 C         -22.8563  -10.7722  -13.1859 C.ar    1  UNL1        0.0402
     16 C         -22.3296  -11.3731  -14.3420 C.ar    1  UNL1        0.1754
     17 C         -22.0514  -10.5916  -15.4770 C.ar    1  UNL1        0.2061
     18 C         -22.2948   -9.1931  -15.4457 C.ar    1  UNL1        0.1754
     19 C         -22.8250   -8.6158  -14.2766 C.ar    1  UNL1        0.0402
     20 O         -22.0707  -12.7521  -14.4058 O.3     1  UNL1       -0.4683
     21 C         -20.8707  -13.3711  -13.9532 C.3     1  UNL1        0.2526
     22 O         -21.5363  -11.2694  -16.5989 O.3     1  UNL1       -0.4654
     23 C         -22.2885  -11.9417  -17.6028 C.3     1  UNL1        0.2528
     24 O         -22.0109   -8.4037  -16.5711 O.3     1  UNL1       -0.4683
     25 C         -22.8662   -7.3937  -17.0974 C.3     1  UNL1        0.2526
     26 C         -19.1615   -8.7532   -7.0870 C.3     1  UNL1        0.2526
     27 O         -20.2582   -7.9245   -7.4593 O.3     1  UNL1       -0.4684
     28 O         -26.8531   -7.2031  -10.9198 O.3     1  UNL1       -0.3495
     29 C         -27.6596   -7.1749   -9.7619 C.3     1  UNL1        0.1744
     30 C         -25.9769   -8.8610  -13.0099 C.3     1  UNL1        0.0506
     31 C         -26.6780   -7.6678  -13.6122 C.ar    1  UNL1       -0.0180
     32 C         -28.0788   -7.6419  -13.7324 C.ar    1  UNL1       -0.0039
     33 C         -28.7178   -6.5345  -14.2981 C.ar    1  UNL1       -0.0003
     34 C         -27.9659   -5.4510  -14.7592 C.ar    1  UNL1       -0.0000
     35 C         -26.5729   -5.4737  -14.6578 C.ar    1  UNL1       -0.0003
     36 C         -25.9292   -6.5797  -14.0954 C.ar    1  UNL1       -0.0039
@<TRIPOS>BOND
     1    26    27    1
     2    27     1    1
     3     1     2   ar
     4     2     3   ar
     5     3     4   ar
     6     4     5   ar
     7     5     6   ar
     8     6     7    1
     9     5     8    1
    10     8     9    1
    11     9    10    1
    12    10    28    1
    13    28    29    1
    14    10    11    1
    15    11    30    1
    16    30    31    1
    17    31    32   ar
    18    32    33   ar
    19    33    34   ar
    20    34    35   ar
    21    35    36   ar
    22    11    12    2
    23    12    14    1
    24    14    15   ar
    25    15    16   ar
    26    16    20    1
    27    20    21    1
    28    16    17   ar
    29    17    22    1
    30    22    23    1
    31    17    18   ar
    32    18    24    1
    33    24    25    1
    34    18    19   ar
    35     6     1   ar
    36    36    31   ar
    37    19    14   ar
    38    12     4    1
    39     7    13    1
@<TRIPOS>MOLECULE
*****
 36 39 0 0 0
SMALL
GASTEIGER

@<TRIPOS>ATOM
      1 C         -27.5794   -6.2644  -13.4849 C.ar    1  UNL1        0.1718
      2 C         -27.7281   -7.4884  -14.1584 C.ar    1  UNL1        0.0400
      3 C         -26.7874   -8.5038  -13.9987 C.ar    1  UNL1        0.0030
      4 C         -25.6736   -8.3239  -13.1658 C.ar    1  UNL1       -0.0014
      5 C         -25.4944   -7.0824  -12.5070 C.ar    1  UNL1        0.0146
      6 C         -26.4605   -6.0644  -12.6555 C.ar    1  UNL1        0.1636
      7 O         -26.3008   -4.8551  -11.9744 O.3     1  UNL1       -0.5031
      8 C         -24.2672   -6.8635  -11.6468 C.3     1  UNL1        0.0324
      9 C         -24.3243   -7.6727  -10.3395 C.3     1  UNL1        0.0386
     10 C         -24.8334   -9.1252  -10.5009 C.3     1  UNL1        0.1343
     11 C         -24.2352   -9.7846  -11.7445 C.2     1  UNL1       -0.0132
     12 C         -24.7010   -9.4417  -12.9808 C.2     1  UNL1       -0.0054
     13 H         -26.9675   -4.0963  -12.0488 H       1  UNL1        0.2923
     14 C         -24.1988  -10.1100  -14.2008 C.ar    1  UNL1        0.0057
     15 C         -23.1309   -9.5573  -14.9087 C.ar    1  UNL1        0.0402
     16 C         -22.6270  -10.2000  -16.0523 C.ar    1  UNL1        0.1754
     17 C         -23.2053  -11.4021  -16.4965 C.ar    1  UNL1        0.2061
     18 C         -24.3058  -11.9566  -15.7912 C.ar    1  UNL1        0.1754
     19 C         -24.7903  -11.2947  -14.6472 C.ar    1  UNL1        0.0402
     20 O         -21.5441   -9.6766  -16.7777 O.3     1  UNL1       -0.4683
     21 C         -20.8507   -8.4786  -16.4434 C.3     1  UNL1        0.2526
     22 O         -22.6365  -11.9902  -17.6427 O.3     1  UNL1       -0.4654
     23 C         -23.1348  -11.9098  -18.9734 C.3     1  UNL1        0.2528
     24 O         -24.8955  -13.1512  -16.2331 O.3     1  UNL1       -0.4683
     25 C         -24.5650  -14.4514  -15.7546 C.3     1  UNL1        0.2526
     26 C         -29.2205   -4.9207  -14.8167 C.3     1  UNL1        0.2526
     27 O         -28.5191   -5.2290  -13.6163 O.3     1  UNL1       -0.4684
     28 O         -24.4998   -9.8680   -9.3368 O.3     1  UNL1       -0.3495
     29 C         -25.6381  -10.5009   -8.7930 C.3     1  UNL1        0.1744
     30 C         -23.0938  -10.7829  -11.5887 C.3     1  UNL1        0.0506
     31 C         -21.7767  -10.1124  -11.2825 C.ar    1  UNL1       -0.0180
     32 C         -21.3543   -8.9887  -12.0146 C.ar    1  UNL1       -0.0039
     33 C         -20.1292   -8.3793  -11.7274 C.ar    1  UNL1       -0.0003
     34 C         -19.3109   -8.8922  -10.7179 C.ar    1  UNL1       -0.0000
     35 C         -19.7148  -10.0171   -9.9949 C.ar    1  UNL1       -0.0003
     36 C         -20.9375  -10.6314  -10.2801 C.ar    1  UNL1       -0.0039
@<TRIPOS>BOND
     1    26    27    1
     2    27     1    1
     3     1     2   ar
     4     2     3   ar
     5     3     4   ar
     6     4     5   ar
     7     5     6   ar
     8     6     7    1
     9     5     8    1
    10     8     9    1
    11     9    10    1
    12    10    28    1
    13    28    29    1
    14    10    11    1
    15    11    30    1
    16    30    31    1
    17    31    32   ar
    18    32    33   ar
    19    33    34   ar
    20    34    35   ar
    21    35    36   ar
    22    11    12    2
    23    12    14    1
    24    14    15   ar
    25    15    16   ar
    26    16    20    1
    27    20    21    1
    28    16    17   ar
    29    17    22    1
    30    22    23    1
    31    17    18   ar
    32    18    24    1
    33    24    25    1
    34    18    19   ar
    35     6     1   ar
    36    36    31   ar
    37    19    14   ar
    38    12     4    1
    39     7    13    1
@<TRIPOS>MOLECULE
*****
 36 39 0 0 0
SMALL
GASTEIGER

@<TRIPOS>ATOM
      1 C         -27.4248   -6.3061  -13.4844 C.ar    1  UNL1        0.1718
      2 C         -27.5606   -7.5221  -14.1749 C.ar    1  UNL1        0.0400
      3 C         -26.6221   -8.5388  -14.0105 C.ar    1  UNL1        0.0030
      4 C         -25.5235   -8.3681  -13.1558 C.ar    1  UNL1       -0.0014
      5 C         -25.3569   -7.1345  -12.4792 C.ar    1  UNL1        0.0146
      6 C         -26.3210   -6.1153  -12.6329 C.ar    1  UNL1        0.1636
      7 O         -26.1743   -4.9141  -11.9348 O.3     1  UNL1       -0.5031
      8 C         -24.1453   -6.9251  -11.5948 C.3     1  UNL1        0.0324
      9 C         -24.2251   -7.7498  -10.2984 C.3     1  UNL1        0.0386
     10 C         -24.7302   -9.2005  -10.4860 C.3     1  UNL1        0.1343
     11 C         -24.1095   -9.8448  -11.7265 C.2     1  UNL1       -0.0132
     12 C         -24.5534   -9.4875  -12.9667 C.2     1  UNL1       -0.0054
     13 H         -26.8401   -4.1548  -12.0120 H       1  UNL1        0.2923
     14 C         -24.0292  -10.1411  -14.1855 C.ar    1  UNL1        0.0057
     15 C         -24.6111  -11.3219  -14.6482 C.ar    1  UNL1        0.0402
     16 C         -24.1398  -11.9349  -15.8216 C.ar    1  UNL1        0.1754
     17 C         -23.0688  -11.3649  -16.5321 C.ar    1  UNL1        0.2061
     18 C         -22.4601  -10.1750  -16.0530 C.ar    1  UNL1        0.1754
     19 C         -22.9524   -9.5792  -14.8765 C.ar    1  UNL1        0.0402
     20 O         -24.7139  -13.1156  -16.3207 O.3     1  UNL1       -0.4683
     21 C         -24.7293  -14.3613  -15.6308 C.3     1  UNL1        0.2526
     22 O         -22.6625  -12.0324  -17.7037 O.3     1  UNL1       -0.4654
     23 C         -23.1801  -11.8357  -19.0148 C.3     1  UNL1        0.2528
     24 O         -21.3841   -9.6044  -16.7507 O.3     1  UNL1       -0.4683
     25 C         -20.7743   -8.3569  -16.4337 C.3     1  UNL1        0.2526
     26 C         -29.0754   -4.9754  -14.8176 C.3     1  UNL1        0.2526
     27 O         -28.3628   -5.2696  -13.6202 O.3     1  UNL1       -0.4684
     28 O         -24.4169   -9.9569   -9.3251 O.3     1  UNL1       -0.3495
     29 C         -25.5762  -10.5366   -8.7667 C.3     1  UNL1        0.1744
     30 C         -22.9703  -10.8443  -11.5623 C.3     1  UNL1        0.0506
     31 C         -21.6542  -10.1750  -11.2494 C.ar    1  UNL1       -0.0180
     32 C         -21.2631   -9.0060  -11.9258 C.ar    1  UNL1       -0.0039
     33 C         -20.0387   -8.3977  -11.6332 C.ar    1  UNL1       -0.0003
     34 C         -19.1900   -8.9563  -10.6743 C.ar    1  UNL1       -0.0000
     35 C         -19.5628  -10.1258  -10.0075 C.ar    1  UNL1       -0.0003
     36 C         -20.7847  -10.7390  -10.2985 C.ar    1  UNL1       -0.0039
@<TRIPOS>BOND
     1    26    27    1
     2    27     1    1
     3     1     2   ar
     4     2     3   ar
     5     3     4   ar
     6     4     5   ar
     7     5     6   ar
     8     6     7    1
     9     5     8    1
    10     8     9    1
    11     9    10    1
    12    10    28    1
    13    28    29    1
    14    10    11    1
    15    11    30    1
    16    30    31    1
    17    31    32   ar
    18    32    33   ar
    19    33    34   ar
    20    34    35   ar
    21    35    36   ar
    22    11    12    2
    23    12    14    1
    24    14    15   ar
    25    15    16   ar
    26    16    20    1
    27    20    21    1
    28    16    17   ar
    29    17    22    1
    30    22    23    1
    31    17    18   ar
    32    18    24    1
    33    24    25    1
    34    18    19   ar
    35     6     1   ar
    36    36    31   ar
    37    19    14   ar
    38    12     4    1
    39     7    13    1
@<TRIPOS>MOLECULE
*****
 36 39 0 0 0
SMALL
GASTEIGER

@<TRIPOS>ATOM
      1 C         -24.0347  -13.6509  -14.4245 C.ar    1  UNL1        0.1718
      2 C         -24.4576  -12.9476  -13.2841 C.ar    1  UNL1        0.0400
      3 C         -23.8377  -11.7549  -12.9168 C.ar    1  UNL1        0.0030
      4 C         -22.7791  -11.2347  -13.6754 C.ar    1  UNL1       -0.0014
      5 C         -22.3210  -11.9512  -14.8086 C.ar    1  UNL1        0.0146
      6 C         -22.9654  -13.1479  -15.1886 C.ar    1  UNL1        0.1636
      7 O         -22.5364  -13.8323  -16.3285 O.3     1  UNL1       -0.5031
      8 C         -21.1449  -11.4213  -15.6023 C.3     1  UNL1        0.0324
      9 C         -21.5105  -10.1636  -16.4097 C.3     1  UNL1        0.0386
     10 C         -22.3776   -9.1349  -15.6450 C.3     1  UNL1        0.1343
     11 C         -21.8908   -8.9647  -14.2051 C.2     1  UNL1       -0.0132
     12 C         -22.1577   -9.9349  -13.2829 C.2     1  UNL1       -0.0054
     13 H         -22.9680  -14.6936  -16.6410 H       1  UNL1        0.2923
     14 C         -21.7672   -9.7726  -11.8657 C.ar    1  UNL1        0.0057
     15 C         -20.4327   -9.9270  -11.4886 C.ar    1  UNL1        0.0402
     16 C         -20.0464   -9.7458  -10.1496 C.ar    1  UNL1        0.1754
     17 C         -21.0079   -9.4171   -9.1781 C.ar    1  UNL1        0.2061
     18 C         -22.3702   -9.2800   -9.5540 C.ar    1  UNL1        0.1754
     19 C         -22.7310   -9.4642  -10.9020 C.ar    1  UNL1        0.0402
     20 O         -18.7092   -9.8798   -9.7415 O.3     1  UNL1       -0.4683
     21 C         -18.1064  -11.1049   -9.3367 C.3     1  UNL1        0.2526
     22 O         -20.5399   -9.2410   -7.8615 O.3     1  UNL1       -0.4654
     23 C         -19.8094   -8.1259   -7.3630 C.3     1  UNL1        0.2528
     24 O         -23.3383   -8.9615   -8.5887 O.3     1  UNL1       -0.4683
     25 C         -24.7435   -9.1214   -8.7573 C.3     1  UNL1        0.2526
     26 C         -25.2468  -15.0623  -16.1011 C.3     1  UNL1        0.2526
     27 O         -24.6503  -14.8477  -14.8260 O.3     1  UNL1       -0.4684
     28 O         -22.3398   -7.8917  -16.3313 O.3     1  UNL1       -0.3495
     29 C         -23.3221   -7.8386  -17.3434 C.3     1  UNL1        0.1744
     30 C         -21.0732   -7.7340  -13.8302 C.3     1  UNL1        0.0506
     31 C         -21.7866   -6.8449  -12.8410 C.ar    1  UNL1       -0.0180
     32 C         -21.0737   -6.1782  -11.8288 C.ar    1  UNL1       -0.0039
     33 C         -21.7452   -5.3623  -10.9133 C.ar    1  UNL1       -0.0003
     34 C         -23.1322   -5.2146  -10.9917 C.ar    1  UNL1       -0.0000
     35 C         -23.8512   -5.8845  -11.9845 C.ar    1  UNL1       -0.0003
     36 C         -23.1847   -6.7035  -12.9004 C.ar    1  UNL1       -0.0039
@<TRIPOS>BOND
     1    26    27    1
     2    27     1    1
     3     1     2   ar
     4     2     3   ar
     5     3     4   ar
     6     4     5   ar
     7     5     6   ar
     8     6     7    1
     9     5     8    1
    10     8     9    1
    11     9    10    1
    12    10    28    1
    13    28    29    1
    14    10    11    1
    15    11    30    1
    16    30    31    1
    17    31    32   ar
    18    32    33   ar
    19    33    34   ar
    20    34    35   ar
    21    35    36   ar
    22    11    12    2
    23    12    14    1
    24    14    15   ar
    25    15    16   ar
    26    16    20    1
    27    20    21    1
    28    16    17   ar
    29    17    22    1
    30    22    23    1
    31    17    18   ar
    32    18    24    1
    33    24    25    1
    34    18    19   ar
    35     6     1   ar
    36    36    31   ar
    37    19    14   ar
    38    12     4    1
    39     7    13    1
@<TRIPOS>MOLECULE
*****
 36 39 0 0 0
SMALL
GASTEIGER

@<TRIPOS>ATOM
      1 C         -24.2907  -13.9540  -15.3754 C.ar    1  UNL1        0.1718
      2 C         -25.4585  -13.2143  -15.1244 C.ar    1  UNL1        0.0400
      3 C         -25.3809  -11.8824  -14.7227 C.ar    1  UNL1        0.0030
      4 C         -24.1374  -11.2551  -14.5585 C.ar    1  UNL1       -0.0014
      5 C         -22.9517  -11.9994  -14.7761 C.ar    1  UNL1        0.0146
      6 C         -23.0355  -13.3420  -15.2028 C.ar    1  UNL1        0.1636
      7 O         -21.8648  -14.0621  -15.4535 O.3     1  UNL1       -0.5031
      8 C         -21.6055  -11.3428  -14.5508 C.3     1  UNL1        0.0324
      9 C         -21.2803  -10.3012  -15.6355 C.3     1  UNL1        0.0386
     10 C         -22.4648   -9.3856  -16.0273 C.3     1  UNL1        0.1343
     11 C         -23.2472   -8.9365  -14.7922 C.2     1  UNL1       -0.0132
     12 C         -24.0822   -9.8156  -14.1653 C.2     1  UNL1       -0.0054
     13 H         -21.8746  -15.0267  -15.7621 H       1  UNL1        0.2923
     14 C         -24.9097   -9.3970  -13.0132 C.ar    1  UNL1        0.0057
     15 C         -24.5131   -9.7225  -11.7156 C.ar    1  UNL1        0.0402
     16 C         -25.2765   -9.3041  -10.6125 C.ar    1  UNL1        0.1754
     17 C         -26.4536   -8.5617  -10.8121 C.ar    1  UNL1        0.2061
     18 C         -26.8719   -8.2466  -12.1318 C.ar    1  UNL1        0.1754
     19 C         -26.0883   -8.6753  -13.2198 C.ar    1  UNL1        0.0402
     20 O         -24.8960   -9.6034   -9.2939 O.3     1  UNL1       -0.4683
     21 C         -23.5490   -9.6725   -8.8372 C.3     1  UNL1        0.2526
     22 O         -27.1563   -8.1701   -9.6561 O.3     1  UNL1       -0.4654
     23 C         -27.5430   -6.8459   -9.3063 C.3     1  UNL1        0.2528
     24 O         -28.0509   -7.5141  -12.3408 O.3     1  UNL1       -0.4683
     25 C         -28.6011   -7.1977  -13.6158 C.3     1  UNL1        0.2526
     26 C         -25.0241  -15.7532  -16.9557 C.3     1  UNL1        0.2526
     27 O         -24.3394  -15.2935  -15.7948 O.3     1  UNL1       -0.4684
     28 O         -21.9685   -8.2592  -16.7364 O.3     1  UNL1       -0.3495
     29 C         -20.5638   -8.1699  -16.6315 C.3     1  UNL1        0.1744
     30 C         -23.0483   -7.5257  -14.2503 C.3     1  UNL1        0.0506
     31 C         -22.3118   -7.5106  -12.9329 C.ar    1  UNL1       -0.0180
     32 C         -22.7562   -6.7047  -11.8698 C.ar    1  UNL1       -0.0039
     33 C         -22.0627   -6.6928  -10.6559 C.ar    1  UNL1       -0.0003
     34 C         -20.9152   -7.4737  -10.4965 C.ar    1  UNL1       -0.0000
     35 C         -20.4572   -8.2663  -11.5516 C.ar    1  UNL1       -0.0003
     36 C         -21.1456   -8.2794  -12.7680 C.ar    1  UNL1       -0.0039
@<TRIPOS>BOND
     1    26    27    1
     2    27     1    1
     3     1     2   ar
     4     2     3   ar
     5     3     4   ar
     6     4     5   ar
     7     5     6   ar
     8     6     7    1
     9     5     8    1
    10     8     9    1
    11     9    10    1
    12    10    28    1
    13    28    29    1
    14    10    11    1
    15    11    30    1
    16    30    31    1
    17    31    32   ar
    18    32    33   ar
    19    33    34   ar
    20    34    35   ar
    21    35    36   ar
    22    11    12    2
    23    12    14    1
    24    14    15   ar
    25    15    16   ar
    26    16    20    1
    27    20    21    1
    28    16    17   ar
    29    17    22    1
    30    22    23    1
    31    17    18   ar
    32    18    24    1
    33    24    25    1
    34    18    19   ar
    35     6     1   ar
    36    36    31   ar
    37    19    14   ar
    38    12     4    1
    39     7    13    1
@<TRIPOS>MOLECULE
*****
 36 39 0 0 0
SMALL
GASTEIGER

@<TRIPOS>ATOM
      1 C         -18.8146  -10.1078   -8.5818 C.ar    1  UNL1        0.1718
      2 C         -18.6646  -10.7161   -9.8393 C.ar    1  UNL1        0.0400
      3 C         -19.5675  -10.4509  -10.8669 C.ar    1  UNL1        0.0030
      4 C         -20.6440   -9.5747  -10.6661 C.ar    1  UNL1       -0.0014
      5 C         -20.8257   -8.9806   -9.3928 C.ar    1  UNL1        0.0146
      6 C         -19.8969   -9.2360   -8.3613 C.ar    1  UNL1        0.1636
      7 O         -20.0571   -8.6188   -7.1183 O.3     1  UNL1       -0.5031
      8 C         -22.0152   -8.0738   -9.1544 C.3     1  UNL1        0.0324
      9 C         -21.8717   -6.7265   -9.8833 C.3     1  UNL1        0.0386
     10 C         -21.3306   -6.8292  -11.3295 C.3     1  UNL1        0.1343
     11 C         -21.9699   -8.0010  -12.0760 C.2     1  UNL1       -0.0132
     12 C         -21.5748   -9.2768  -11.7951 C.2     1  UNL1       -0.0054
     13 H         -19.4163   -8.7702   -6.3487 H       1  UNL1        0.2923
     14 C         -22.1169  -10.4295  -12.5467 C.ar    1  UNL1        0.0057
     15 C         -23.2320  -11.1146  -12.0630 C.ar    1  UNL1        0.0402
     16 C         -23.7729  -12.1924  -12.7845 C.ar    1  UNL1        0.1754
     17 C         -23.1845  -12.5938  -13.9966 C.ar    1  UNL1        0.2061
     18 C         -22.0369  -11.9128  -14.4816 C.ar    1  UNL1        0.1754
     19 C         -21.5159  -10.8348  -13.7414 C.ar    1  UNL1        0.0402
     20 O         -24.9031  -12.8924  -12.3313 O.3     1  UNL1       -0.4683
     21 C         -25.9906  -13.2939  -13.1583 C.3     1  UNL1        0.2526
     22 O         -23.7918  -13.6742  -14.6654 O.3     1  UNL1       -0.4654
     23 C         -23.2121  -14.9491  -14.9183 C.3     1  UNL1        0.2528
     24 O         -21.4372  -12.3131  -15.6860 O.3     1  UNL1       -0.4683
     25 C         -21.9122  -11.9777  -16.9862 C.3     1  UNL1        0.2526
     26 C         -17.1125  -11.5173   -7.4034 C.3     1  UNL1        0.2526
     27 O         -17.9118  -10.3458   -7.5326 O.3     1  UNL1       -0.4684
     28 O         -21.5860   -5.6089  -12.0104 O.3     1  UNL1       -0.3495
     29 C         -22.1580   -4.6524  -11.1443 C.3     1  UNL1        0.1744
     30 C         -23.0739   -7.7306  -13.0917 C.3     1  UNL1        0.0506
     31 C         -22.6019   -7.8927  -14.5161 C.ar    1  UNL1       -0.0180
     32 C         -21.2369   -7.7891  -14.8376 C.ar    1  UNL1       -0.0039
     33 C         -20.8109   -7.9341  -16.1613 C.ar    1  UNL1       -0.0003
     34 C         -21.7423   -8.1707  -17.1755 C.ar    1  UNL1       -0.0000
     35 C         -23.1020   -8.2604  -16.8684 C.ar    1  UNL1       -0.0003
     36 C         -23.5331   -8.1135  -15.5469 C.ar    1  UNL1       -0.0039
@<TRIPOS>BOND
     1    26    27    1
     2    27     1    1
     3     1     2   ar
     4     2     3   ar
     5     3     4   ar
     6     4     5   ar
     7     5     6   ar
     8     6     7    1
     9     5     8    1
    10     8     9    1
    11     9    10    1
    12    10    28    1
    13    28    29    1
    14    10    11    1
    15    11    30    1
    16    30    31    1
    17    31    32   ar
    18    32    33   ar
    19    33    34   ar
    20    34    35   ar
    21    35    36   ar
    22    11    12    2
    23    12    14    1
    24    14    15   ar
    25    15    16   ar
    26    16    20    1
    27    20    21    1
    28    16    17   ar
    29    17    22    1
    30    22    23    1
    31    17    18   ar
    32    18    24    1
    33    24    25    1
    34    18    19   ar
    35     6     1   ar
    36    36    31   ar
    37    19    14   ar
    38    12     4    1
    39     7    13    1
