@<TRIPOS>MOLECULE
*****
 47 52 0 0 0
SMALL
GASTEIGER

@<TRIPOS>ATOM
      1 C         -62.0705  -41.4992  -20.6670 C.ar    1  UNL1        0.0702
      2 C         -62.1697  -40.4813  -21.6282 C.ar    1  UNL1        0.0191
      3 C         -62.6697  -39.2277  -21.2725 C.ar    1  UNL1        0.0356
      4 C         -63.0823  -38.9943  -19.9500 C.ar    1  UNL1        0.1318
      5 N         -63.0039  -40.0077  -19.0433 N.ar    1  UNL1       -0.2279
      6 C         -62.5214  -41.2363  -19.3674 C.ar    1  UNL1        0.1149
      7 N         -63.6066  -37.7137  -19.5433 N.pl3   1  UNL1       -0.2932
      8 C         -63.0630  -36.4655  -20.0980 C.3     1  UNL1        0.0923
      9 C         -63.0222  -35.3687  -19.0266 C.3     1  UNL1        0.0252
     10 C         -64.3682  -35.2119  -18.2898 C.3     1  UNL1        0.0472
     11 C         -64.8312  -36.5709  -17.7297 C.3     1  UNL1        0.0252
     12 C         -64.8785  -37.6566  -18.8102 C.3     1  UNL1        0.0923
     13 C         -65.4491  -34.5513  -19.1663 C.3     1  UNL1        0.2054
     14 O         -66.3681  -33.8345  -18.3445 O.3     1  UNL1       -0.4755
     15 C         -67.7640  -33.9373  -18.4353 C.ar    1  UNL1        0.1388
     16 C         -68.3027  -34.7902  -19.4041 C.ar    1  UNL1        0.0369
     17 C         -69.6853  -34.9294  -19.5350 C.ar    1  UNL1        0.0033
     18 C         -70.5453  -34.2160  -18.6976 C.ar    1  UNL1        0.0066
     19 C         -70.0276  -33.3520  -17.7163 C.ar    1  UNL1        0.0785
     20 C         -68.6327  -33.2172  -17.5908 C.ar    1  UNL1        0.0433
     21 C         -70.9351  -32.5937  -16.8263 C.2     1  UNL1        0.3381
     22 O         -70.5676  -32.2716  -15.6639 O.2     1  UNL1       -0.2451
     23 O         -72.2054  -32.2280  -17.2646 O.3     1  UNL1       -0.4771
     24 H         -72.8340  -31.7090  -16.6632 H       1  UNL1        0.2954
     25 C         -62.0028  -43.5532  -22.1580 C.2     1  UNL1        0.2839
     26 O         -62.6472  -42.9820  -23.0779 O.2     1  UNL1       -0.2665
     27 N         -61.5858  -42.8113  -21.0004 N.am    1  UNL1       -0.2766
     28 H         -60.8189  -43.2116  -20.4135 H       1  UNL1        0.1553
     29 C         -61.4409  -48.3759  -23.5112 C.ar    1  UNL1        0.0374
     30 C         -60.8580  -49.4432  -22.7652 C.ar    1  UNL1        0.0029
     31 C         -60.3246  -49.1958  -21.4773 C.ar    1  UNL1        0.0032
     32 C         -60.3828  -47.9180  -20.9075 C.ar    1  UNL1        0.0375
     33 C         -60.9577  -46.8955  -21.6494 C.ar    1  UNL1        0.1453
     34 O         -61.0937  -45.6478  -21.2788 O.2     1  UNL1       -0.4492
     35 C         -61.6658  -44.9868  -22.2647 C.ar    1  UNL1        0.1946
     36 C         -61.8921  -45.8464  -23.3485 C.ar    1  UNL1        0.0203
     37 C         -62.4538  -45.4821  -24.6933 C.3     1  UNL1        0.0345
     38 C         -61.4589  -47.0976  -22.9131 C.ar    1  UNL1        0.0364
     39 C         -60.8257  -50.8310  -23.2810 C.ar    1  UNL1        0.0001
     40 C         -61.7937  -51.7657  -22.8759 C.ar    1  UNL1        0.0000
     41 C         -61.7552  -53.0755  -23.3638 C.ar    1  UNL1        0.0000
     42 C         -60.7473  -53.4631  -24.2508 C.ar    1  UNL1        0.0000
     43 C         -59.7737  -52.5427  -24.6484 C.ar    1  UNL1        0.0000
     44 C         -59.8085  -51.2318  -24.1631 C.ar    1  UNL1        0.0000
     45 C         -63.4419  -49.0063  -25.0265 C.3     1  UNL1        0.0773
     46 C         -62.0108  -48.6053  -24.8542 C.2     1  UNL1        0.1736
     47 O         -61.2915  -48.4299  -25.8736 O.2     1  UNL1       -0.2913
@<TRIPOS>BOND
     1    45    46    1
     2    46    47    2
     3    46    29    1
     4    29    30   ar
     5    30    39    1
     6    39    40   ar
     7    40    41   ar
     8    41    42   ar
     9    42    43   ar
    10    43    44   ar
    11    30    31   ar
    12    31    32   ar
    13    32    33   ar
    14    33    34   ar
    15    34    35   ar
    16    35    25    1
    17    25    26    2
    18    25    27   am
    19    27     1    1
    20     1     2   ar
    21     2     3   ar
    22     3     4   ar
    23     4     7    1
    24     7     8    1
    25     8     9    1
    26     9    10    1
    27    10    13    1
    28    13    14    1
    29    14    15    1
    30    15    16   ar
    31    16    17   ar
    32    17    18   ar
    33    18    19   ar
    34    19    21    1
    35    21    22    2
    36    21    23    1
    37    19    20   ar
    38    10    11    1
    39    11    12    1
    40     4     5   ar
    41     5     6   ar
    42    35    36   ar
    43    36    37    1
    44    36    38   ar
    45    38    29   ar
    46    44    39   ar
    47    38    33   ar
    48     6     1   ar
    49    12     7    1
    50    20    15   ar
    51    27    28    1
    52    23    24    1
