@<TRIPOS>MOLECULE
*****
 47 52 0 0 0
SMALL
GASTEIGER

@<TRIPOS>ATOM
      1 C         -64.3328  -52.3214  -24.6084 C.ar    1  UNL1        0.0832
      2 C         -65.5357  -52.9416  -24.9752 C.ar    1  UNL1        0.1161
      3 N         -66.0993  -53.8787  -24.1709 N.ar    1  UNL1       -0.2278
      4 C         -65.5446  -54.2578  -22.9868 C.ar    1  UNL1        0.1330
      5 C         -64.3428  -53.6520  -22.5779 C.ar    1  UNL1        0.0496
      6 C         -63.7321  -52.6829  -23.3855 C.ar    1  UNL1        0.0595
      7 N         -62.4890  -52.1048  -22.9655 N.pl3   1  UNL1       -0.3559
      8 H         -62.0771  -52.3504  -22.0377 H       1  UNL1        0.1424
      9 H         -61.9341  -51.4757  -23.5854 H       1  UNL1        0.1424
     10 N         -66.1917  -55.2722  -22.1815 N.pl3   1  UNL1       -0.2932
     11 C         -67.1467  -56.2181  -22.7869 C.3     1  UNL1        0.0923
     12 C         -67.9575  -56.9735  -21.7233 C.3     1  UNL1        0.0252
     13 C         -68.4128  -56.0037  -20.6181 C.3     1  UNL1        0.0472
     14 C         -67.2041  -55.3221  -19.9194 C.3     1  UNL1        0.0252
     15 C         -65.9062  -55.3818  -20.7421 C.3     1  UNL1        0.0923
     16 C         -69.3140  -56.7244  -19.6049 C.3     1  UNL1        0.2054
     17 O         -69.6647  -55.8315  -18.5493 O.3     1  UNL1       -0.4755
     18 C         -69.3791  -56.0513  -17.1938 C.ar    1  UNL1        0.1388
     19 C         -70.3307  -56.7206  -16.4175 C.ar    1  UNL1        0.0369
     20 C         -70.0955  -56.9640  -15.0634 C.ar    1  UNL1        0.0033
     21 C         -68.9045  -56.5400  -14.4704 C.ar    1  UNL1        0.0066
     22 C         -67.9325  -55.8654  -15.2301 C.ar    1  UNL1        0.0785
     23 C         -68.1773  -55.6240  -16.5946 C.ar    1  UNL1        0.0433
     24 C         -66.6685  -55.4144  -14.6059 C.2     1  UNL1        0.3381
     25 O         -65.9069  -54.6132  -15.2126 O.2     1  UNL1       -0.2451
     26 O         -66.3075  -55.8713  -13.3409 O.3     1  UNL1       -0.4771
     27 H         -65.4445  -55.5686  -12.9050 H       1  UNL1        0.2954
     28 C         -63.9962  -49.8887  -25.2045 C.2     1  UNL1        0.2840
     29 O         -64.8600  -49.5179  -24.3644 O.2     1  UNL1       -0.2665
     30 N         -63.7695  -51.2883  -25.4343 N.am    1  UNL1       -0.2757
     31 H         -63.1827  -51.5706  -26.2511 H       1  UNL1        0.1553
     32 C         -64.1153  -49.3960  -28.3689 C.3     1  UNL1        0.0345
     33 C         -63.2864  -48.6662  -27.3554 C.ar    1  UNL1        0.0202
     34 C         -63.2367  -48.8848  -25.9741 C.ar    1  UNL1        0.1946
     35 O         -62.3878  -48.0419  -25.4133 O.2     1  UNL1       -0.4492
     36 C         -61.8839  -47.2882  -26.3597 C.ar    1  UNL1        0.1452
     37 C         -60.9516  -46.2664  -26.2180 C.ar    1  UNL1        0.0375
     38 C         -60.5454  -45.5785  -27.3746 C.ar    1  UNL1        0.0031
     39 C         -61.0740  -45.9198  -28.6488 C.ar    1  UNL1        0.0002
     40 C         -62.0211  -46.9672  -28.7491 C.ar    1  UNL1        0.0028
     41 C         -62.4015  -47.6289  -27.5805 C.ar    1  UNL1        0.0337
     42 C         -60.6374  -45.1859  -29.8637 C.ar    1  UNL1        0.0000
     43 C         -59.3177  -45.3086  -30.3386 C.ar    1  UNL1        0.0000
     44 C         -58.9095  -44.6163  -31.4828 C.ar    1  UNL1        0.0000
     45 C         -59.8109  -43.7968  -32.1653 C.ar    1  UNL1        0.0000
     46 C         -61.1230  -43.6672  -31.7048 C.ar    1  UNL1        0.0000
     47 C         -61.5366  -44.3563  -30.5605 C.ar    1  UNL1        0.0000
@<TRIPOS>BOND
     1    32    33    1
     2    33    34   ar
     3    34    28    1
     4    28    29    2
     5    28    30   am
     6    30     1    1
     7     1     2   ar
     8     2     3   ar
     9     3     4   ar
    10     4    10    1
    11    10    11    1
    12    11    12    1
    13    12    13    1
    14    13    16    1
    15    16    17    1
    16    17    18    1
    17    18    19   ar
    18    19    20   ar
    19    20    21   ar
    20    21    22   ar
    21    22    24    1
    22    24    25    2
    23    24    26    1
    24    22    23   ar
    25    13    14    1
    26    14    15    1
    27     4     5   ar
    28     5     6   ar
    29     6     7    1
    30    34    35   ar
    31    35    36   ar
    32    36    37   ar
    33    37    38   ar
    34    38    39   ar
    35    39    42    1
    36    42    43   ar
    37    43    44   ar
    38    44    45   ar
    39    45    46   ar
    40    46    47   ar
    41    39    40   ar
    42    40    41   ar
    43    41    33   ar
    44     6     1   ar
    45    41    36   ar
    46    15    10    1
    47    47    42   ar
    48    23    18   ar
    49    30    31    1
    50    26    27    1
    51     7     8    1
    52     7     9    1
@<TRIPOS>MOLECULE
*****
 47 52 0 0 0
SMALL
GASTEIGER

@<TRIPOS>ATOM
      1 C         -64.3067  -52.3091  -24.5332 C.ar    1  UNL1        0.0832
      2 C         -65.5387  -52.8879  -24.8697 C.ar    1  UNL1        0.1161
      3 N         -66.1101  -53.8111  -24.0550 N.ar    1  UNL1       -0.2278
      4 C         -65.5356  -54.2150  -22.8886 C.ar    1  UNL1        0.1330
      5 C         -64.3041  -53.6508  -22.5100 C.ar    1  UNL1        0.0496
      6 C         -63.6847  -52.6971  -23.3293 C.ar    1  UNL1        0.0595
      7 N         -62.4124  -52.1621  -22.9408 N.pl3   1  UNL1       -0.3559
      8 H         -61.9832  -52.4264  -22.0260 H       1  UNL1        0.1424
      9 H         -61.8545  -51.5475  -23.5726 H       1  UNL1        0.1424
     10 N         -66.1930  -55.2128  -22.0709 N.pl3   1  UNL1       -0.2932
     11 C         -66.7329  -56.4445  -22.6748 C.3     1  UNL1        0.0923
     12 C         -67.6681  -57.1923  -21.7128 C.3     1  UNL1        0.0252
     13 C         -68.6022  -56.1961  -21.0026 C.3     1  UNL1        0.0472
     14 C         -67.8033  -55.1417  -20.1878 C.3     1  UNL1        0.0252
     15 C         -66.3323  -55.0191  -20.6188 C.3     1  UNL1        0.0923
     16 C         -69.6137  -56.9404  -20.1188 C.3     1  UNL1        0.2054
     17 O         -70.8218  -56.1876  -20.0279 O.3     1  UNL1       -0.4755
     18 C         -71.2383  -55.4866  -18.8866 C.ar    1  UNL1        0.1388
     19 C         -70.8614  -55.9799  -17.6333 C.ar    1  UNL1        0.0369
     20 C         -71.2502  -55.3199  -16.4666 C.ar    1  UNL1        0.0033
     21 C         -72.0212  -54.1580  -16.5407 C.ar    1  UNL1        0.0066
     22 C         -72.4122  -53.6426  -17.7891 C.ar    1  UNL1        0.0785
     23 C         -72.0160  -54.3137  -18.9606 C.ar    1  UNL1        0.0433
     24 C         -73.2292  -52.4111  -17.8728 C.2     1  UNL1        0.3381
     25 O         -74.2300  -52.3594  -18.6380 O.2     1  UNL1       -0.2451
     26 O         -72.8999  -51.2961  -17.1062 O.3     1  UNL1       -0.4771
     27 H         -73.4526  -50.4486  -17.1562 H       1  UNL1        0.2954
     28 C         -64.0043  -49.8897  -25.1979 C.2     1  UNL1        0.2840
     29 O         -64.9135  -49.5138  -24.4094 O.2     1  UNL1       -0.2665
     30 N         -63.7330  -51.2897  -25.3690 N.am    1  UNL1       -0.2757
     31 H         -63.1038  -51.5837  -26.1493 H       1  UNL1        0.1553
     32 C         -64.1221  -49.3951  -28.3620 C.3     1  UNL1        0.0345
     33 C         -63.2856  -48.6731  -27.3491 C.ar    1  UNL1        0.0202
     34 C         -63.2365  -48.8925  -25.9679 C.ar    1  UNL1        0.1946
     35 O         -62.3794  -48.0575  -25.4078 O.2     1  UNL1       -0.4492
     36 C         -61.8697  -47.3081  -26.3544 C.ar    1  UNL1        0.1452
     37 C         -60.9280  -46.2949  -26.2135 C.ar    1  UNL1        0.0375
     38 C         -60.5167  -45.6103  -27.3703 C.ar    1  UNL1        0.0031
     39 C         -61.0497  -45.9466  -28.6441 C.ar    1  UNL1        0.0002
     40 C         -62.0063  -46.9853  -28.7437 C.ar    1  UNL1        0.0028
     41 C         -62.3916  -47.6438  -27.5748 C.ar    1  UNL1        0.0337
     42 C         -60.6077  -45.2163  -29.8592 C.ar    1  UNL1        0.0000
     43 C         -59.2837  -45.3342  -30.3233 C.ar    1  UNL1        0.0000
     44 C         -58.8704  -44.6454  -31.4678 C.ar    1  UNL1        0.0000
     45 C         -59.7710  -43.8341  -32.1613 C.ar    1  UNL1        0.0000
     46 C         -61.0872  -43.7094  -31.7115 C.ar    1  UNL1        0.0000
     47 C         -61.5059  -44.3951  -30.5670 C.ar    1  UNL1        0.0000
@<TRIPOS>BOND
     1    32    33    1
     2    33    34   ar
     3    34    28    1
     4    28    29    2
     5    28    30   am
     6    30     1    1
     7     1     2   ar
     8     2     3   ar
     9     3     4   ar
    10     4    10    1
    11    10    11    1
    12    11    12    1
    13    12    13    1
    14    13    16    1
    15    16    17    1
    16    17    18    1
    17    18    19   ar
    18    19    20   ar
    19    20    21   ar
    20    21    22   ar
    21    22    24    1
    22    24    25    2
    23    24    26    1
    24    22    23   ar
    25    13    14    1
    26    14    15    1
    27     4     5   ar
    28     5     6   ar
    29     6     7    1
    30    34    35   ar
    31    35    36   ar
    32    36    37   ar
    33    37    38   ar
    34    38    39   ar
    35    39    42    1
    36    42    43   ar
    37    43    44   ar
    38    44    45   ar
    39    45    46   ar
    40    46    47   ar
    41    39    40   ar
    42    40    41   ar
    43    41    33   ar
    44     6     1   ar
    45    41    36   ar
    46    15    10    1
    47    47    42   ar
    48    23    18   ar
    49    30    31    1
    50    26    27    1
    51     7     8    1
    52     7     9    1
@<TRIPOS>MOLECULE
*****
 47 52 0 0 0
SMALL
GASTEIGER

@<TRIPOS>ATOM
      1 C         -66.5878  -54.0487  -23.7692 C.ar    1  UNL1        0.0832
      2 C         -66.5885  -54.8499  -24.9200 C.ar    1  UNL1        0.1161
      3 N         -67.6926  -55.5618  -25.2615 N.ar    1  UNL1       -0.2278
      4 C         -68.8381  -55.5355  -24.5263 C.ar    1  UNL1        0.1330
      5 C         -68.8816  -54.7361  -23.3698 C.ar    1  UNL1        0.0496
      6 C         -67.7585  -53.9905  -22.9863 C.ar    1  UNL1        0.0595
      7 N         -67.8139  -53.2108  -21.7843 N.pl3   1  UNL1       -0.3559
      8 H         -68.7008  -53.1431  -21.2369 H       1  UNL1        0.1424
      9 H         -66.9702  -52.7405  -21.3906 H       1  UNL1        0.1424
     10 N         -69.9767  -56.3282  -24.9402 N.pl3   1  UNL1       -0.2932
     11 C         -70.2562  -56.5554  -26.3698 C.3     1  UNL1        0.0923
     12 C         -71.6663  -57.1213  -26.5952 C.3     1  UNL1        0.0252
     13 C         -72.6821  -56.3782  -25.7092 C.3     1  UNL1        0.0472
     14 C         -72.3354  -56.5147  -24.2009 C.3     1  UNL1        0.0252
     15 C         -70.8767  -56.9266  -23.9415 C.3     1  UNL1        0.0923
     16 C         -74.1099  -56.8609  -26.0032 C.3     1  UNL1        0.2054
     17 O         -74.4247  -56.6314  -27.3753 O.3     1  UNL1       -0.4755
     18 C         -74.6276  -55.3653  -27.9439 C.ar    1  UNL1        0.1388
     19 C         -74.6891  -55.2684  -29.3377 C.ar    1  UNL1        0.0369
     20 C         -74.8889  -54.0318  -29.9533 C.ar    1  UNL1        0.0033
     21 C         -75.0296  -52.8773  -29.1806 C.ar    1  UNL1        0.0066
     22 C         -74.9716  -52.9493  -27.7775 C.ar    1  UNL1        0.0785
     23 C         -74.7700  -54.1997  -27.1647 C.ar    1  UNL1        0.0433
     24 C         -75.1204  -51.7283  -26.9542 C.2     1  UNL1        0.3381
     25 O         -75.0406  -50.5870  -27.4843 O.2     1  UNL1       -0.2451
     26 O         -75.3502  -51.8283  -25.5844 O.3     1  UNL1       -0.4771
     27 H         -75.4534  -50.9987  -25.0121 H       1  UNL1        0.2954
     28 C         -64.5279  -52.7431  -24.4316 C.2     1  UNL1        0.2840
     29 O         -64.6081  -53.1380  -25.6262 O.2     1  UNL1       -0.2665
     30 N         -65.4370  -53.2514  -23.4426 N.am    1  UNL1       -0.2757
     31 H         -65.2434  -53.0482  -22.4365 H       1  UNL1        0.1553
     32 C         -64.5362  -49.5799  -24.9462 C.3     1  UNL1        0.0345
     33 C         -63.4812  -50.3977  -24.2640 C.ar    1  UNL1        0.0202
     34 C         -63.4810  -51.7793  -24.0417 C.ar    1  UNL1        0.1946
     35 O         -62.3777  -52.1350  -23.4079 O.2     1  UNL1       -0.4492
     36 C         -61.6620  -51.0554  -23.2081 C.ar    1  UNL1        0.1452
     37 C         -60.4269  -50.9669  -22.5756 C.ar    1  UNL1        0.0375
     38 C         -59.8304  -49.6988  -22.4666 C.ar    1  UNL1        0.0031
     39 C         -60.4734  -48.5439  -22.9886 C.ar    1  UNL1        0.0002
     40 C         -61.7303  -48.6780  -23.6259 C.ar    1  UNL1        0.0028
     41 C         -62.2932  -49.9521  -23.7164 C.ar    1  UNL1        0.0337
     42 C         -59.8336  -47.2094  -22.8675 C.ar    1  UNL1        0.0000
     43 C         -58.4521  -47.0549  -23.0909 C.ar    1  UNL1        0.0000
     44 C         -57.8524  -45.7969  -22.9762 C.ar    1  UNL1        0.0000
     45 C         -58.6220  -44.6814  -22.6394 C.ar    1  UNL1        0.0000
     46 C         -59.9935  -44.8214  -22.4160 C.ar    1  UNL1        0.0000
     47 C         -60.5985  -46.0771  -22.5283 C.ar    1  UNL1        0.0000
@<TRIPOS>BOND
     1    32    33    1
     2    33    34   ar
     3    34    28    1
     4    28    29    2
     5    28    30   am
     6    30     1    1
     7     1     2   ar
     8     2     3   ar
     9     3     4   ar
    10     4    10    1
    11    10    11    1
    12    11    12    1
    13    12    13    1
    14    13    16    1
    15    16    17    1
    16    17    18    1
    17    18    19   ar
    18    19    20   ar
    19    20    21   ar
    20    21    22   ar
    21    22    24    1
    22    24    25    2
    23    24    26    1
    24    22    23   ar
    25    13    14    1
    26    14    15    1
    27     4     5   ar
    28     5     6   ar
    29     6     7    1
    30    34    35   ar
    31    35    36   ar
    32    36    37   ar
    33    37    38   ar
    34    38    39   ar
    35    39    42    1
    36    42    43   ar
    37    43    44   ar
    38    44    45   ar
    39    45    46   ar
    40    46    47   ar
    41    39    40   ar
    42    40    41   ar
    43    41    33   ar
    44     6     1   ar
    45    41    36   ar
    46    15    10    1
    47    47    42   ar
    48    23    18   ar
    49    30    31    1
    50    26    27    1
    51     7     8    1
    52     7     9    1
@<TRIPOS>MOLECULE
*****
 47 52 0 0 0
SMALL
GASTEIGER

@<TRIPOS>ATOM
      1 C         -64.2267  -52.1534  -24.5851 C.ar    1  UNL1        0.0832
      2 C         -65.4590  -52.7451  -24.8978 C.ar    1  UNL1        0.1161
      3 N         -66.0071  -53.6706  -24.0700 N.ar    1  UNL1       -0.2278
      4 C         -65.4084  -54.0649  -22.9125 C.ar    1  UNL1        0.1330
      5 C         -64.1758  -53.4878  -22.5576 C.ar    1  UNL1        0.0496
      6 C         -63.5800  -52.5313  -23.3910 C.ar    1  UNL1        0.0595
      7 N         -62.3062  -51.9829  -23.0270 N.pl3   1  UNL1       -0.3559
      8 H         -61.8585  -52.2399  -22.1190 H       1  UNL1        0.1424
      9 H         -61.7654  -51.3654  -23.6706 H       1  UNL1        0.1424
     10 N         -66.0418  -55.0659  -22.0800 N.pl3   1  UNL1       -0.2932
     11 C         -66.2396  -56.4406  -22.5740 C.3     1  UNL1        0.0923
     12 C         -67.2115  -57.2339  -21.6877 C.3     1  UNL1        0.0252
     13 C         -68.4198  -56.3575  -21.3119 C.3     1  UNL1        0.0472
     14 C         -67.9845  -55.0810  -20.5404 C.3     1  UNL1        0.0252
     15 C         -66.4979  -54.7318  -20.7213 C.3     1  UNL1        0.0923
     16 C         -69.4502  -57.1711  -20.5156 C.3     1  UNL1        0.2054
     17 O         -70.7694  -56.7937  -20.9051 O.3     1  UNL1       -0.4755
     18 C         -71.1266  -56.3638  -22.1916 C.ar    1  UNL1        0.1388
     19 C         -72.3551  -56.7834  -22.7118 C.ar    1  UNL1        0.0369
     20 C         -72.7574  -56.3840  -23.9872 C.ar    1  UNL1        0.0033
     21 C         -71.9343  -55.5597  -24.7572 C.ar    1  UNL1        0.0066
     22 C         -70.6947  -55.1247  -24.2558 C.ar    1  UNL1        0.0785
     23 C         -70.2966  -55.5316  -22.9691 C.ar    1  UNL1        0.0433
     24 C         -69.8190  -54.2506  -25.0682 C.2     1  UNL1        0.3381
     25 O         -70.3121  -53.3224  -25.7647 O.2     1  UNL1       -0.2451
     26 O         -68.4401  -54.4452  -25.0712 O.3     1  UNL1       -0.4771
     27 H         -67.8321  -53.8524  -25.6237 H       1  UNL1        0.2954
     28 C         -63.9449  -49.7323  -25.2525 C.2     1  UNL1        0.2840
     29 O         -64.8317  -49.3589  -24.4380 O.2     1  UNL1       -0.2665
     30 N         -63.6775  -51.1318  -25.4345 N.am    1  UNL1       -0.2757
     31 H         -63.0704  -51.4235  -26.2328 H       1  UNL1        0.1553
     32 C         -64.0485  -49.3225  -28.4293 C.3     1  UNL1        0.0345
     33 C         -63.2427  -48.5503  -27.4284 C.ar    1  UNL1        0.0202
     34 C         -63.1998  -48.7329  -26.0417 C.ar    1  UNL1        0.1946
     35 O         -62.3728  -47.8587  -25.4961 O.2     1  UNL1       -0.4492
     36 C         -61.8767  -47.1190  -26.4576 C.ar    1  UNL1        0.1452
     37 C         -60.9665  -46.0750  -26.3350 C.ar    1  UNL1        0.0375
     38 C         -60.5651  -45.4084  -27.5056 C.ar    1  UNL1        0.0031
     39 C         -61.0763  -45.7927  -28.7746 C.ar    1  UNL1        0.0002
     40 C         -62.0011  -46.8616  -28.8554 C.ar    1  UNL1        0.0028
     41 C         -62.3774  -47.5011  -27.6732 C.ar    1  UNL1        0.0337
     42 C         -60.6450  -45.0810  -30.0045 C.ar    1  UNL1        0.0000
     43 C         -59.3476  -45.2639  -30.5197 C.ar    1  UNL1        0.0000
     44 C         -58.9442  -44.5924  -31.6779 C.ar    1  UNL1        0.0000
     45 C         -59.8285  -43.7338  -32.3345 C.ar    1  UNL1        0.0000
     46 C         -61.1185  -43.5444  -31.8338 C.ar    1  UNL1        0.0000
     47 C         -61.5270  -44.2125  -30.6754 C.ar    1  UNL1        0.0000
@<TRIPOS>BOND
     1    32    33    1
     2    33    34   ar
     3    34    28    1
     4    28    29    2
     5    28    30   am
     6    30     1    1
     7     1     2   ar
     8     2     3   ar
     9     3     4   ar
    10     4    10    1
    11    10    11    1
    12    11    12    1
    13    12    13    1
    14    13    16    1
    15    16    17    1
    16    17    18    1
    17    18    19   ar
    18    19    20   ar
    19    20    21   ar
    20    21    22   ar
    21    22    24    1
    22    24    25    2
    23    24    26    1
    24    22    23   ar
    25    13    14    1
    26    14    15    1
    27     4     5   ar
    28     5     6   ar
    29     6     7    1
    30    34    35   ar
    31    35    36   ar
    32    36    37   ar
    33    37    38   ar
    34    38    39   ar
    35    39    42    1
    36    42    43   ar
    37    43    44   ar
    38    44    45   ar
    39    45    46   ar
    40    46    47   ar
    41    39    40   ar
    42    40    41   ar
    43    41    33   ar
    44     6     1   ar
    45    41    36   ar
    46    15    10    1
    47    47    42   ar
    48    23    18   ar
    49    30    31    1
    50    26    27    1
    51     7     8    1
    52     7     9    1
@<TRIPOS>MOLECULE
*****
 47 52 0 0 0
SMALL
GASTEIGER

@<TRIPOS>ATOM
      1 C         -63.9002  -51.4156  -24.0140 C.ar    1  UNL1        0.0832
      2 C         -62.9649  -51.8895  -23.0830 C.ar    1  UNL1        0.1161
      3 N         -61.9367  -51.1008  -22.6789 N.ar    1  UNL1       -0.2278
      4 C         -61.7613  -49.8318  -23.1397 C.ar    1  UNL1        0.1330
      5 C         -62.6838  -49.3153  -24.0674 C.ar    1  UNL1        0.0496
      6 C         -63.7555  -50.1036  -24.5085 C.ar    1  UNL1        0.0595
      7 N         -64.6629  -49.5689  -25.4815 N.pl3   1  UNL1       -0.3559
      8 H         -64.5688  -48.5810  -25.8073 H       1  UNL1        0.1424
      9 H         -65.3986  -50.1548  -25.9326 H       1  UNL1        0.1424
     10 N         -60.6361  -49.0474  -22.6762 N.pl3   1  UNL1       -0.2932
     11 C         -60.6893  -48.3471  -21.3801 C.3     1  UNL1        0.0923
     12 C         -59.5555  -47.3209  -21.2361 C.3     1  UNL1        0.0252
     13 C         -59.3896  -46.5291  -22.5456 C.3     1  UNL1        0.0472
     14 C         -59.0558  -47.4626  -23.7419 C.3     1  UNL1        0.0252
     15 C         -59.4141  -48.9364  -23.4887 C.3     1  UNL1        0.0923
     16 C         -58.3323  -45.4278  -22.3805 C.3     1  UNL1        0.2054
     17 O         -58.6706  -44.3070  -23.1953 O.3     1  UNL1       -0.4755
     18 C         -59.8179  -43.5180  -23.0260 C.ar    1  UNL1        0.1388
     19 C         -60.8182  -43.5877  -24.0010 C.ar    1  UNL1        0.0369
     20 C         -61.9793  -42.8226  -23.8800 C.ar    1  UNL1        0.0033
     21 C         -62.1526  -41.9784  -22.7813 C.ar    1  UNL1        0.0066
     22 C         -61.1612  -41.8914  -21.7880 C.ar    1  UNL1        0.0785
     23 C         -59.9937  -42.6660  -21.9173 C.ar    1  UNL1        0.0433
     24 C         -61.3406  -40.9982  -20.6215 C.2     1  UNL1        0.3381
     25 O         -61.5375  -41.4796  -19.4729 O.2     1  UNL1       -0.2451
     26 O         -61.2938  -39.6156  -20.7814 O.3     1  UNL1       -0.4771
     27 H         -61.4154  -38.9957  -19.9895 H       1  UNL1        0.2954
     28 C         -65.4640  -53.3632  -23.6292 C.2     1  UNL1        0.2840
     29 O         -64.7623  -53.7947  -22.6748 O.2     1  UNL1       -0.2665
     30 N         -65.0200  -52.2325  -24.3956 N.am    1  UNL1       -0.2757
     31 H         -65.5224  -52.0030  -25.2821 H       1  UNL1        0.1553
     32 C         -68.1455  -53.4518  -21.8764 C.3     1  UNL1        0.0345
     33 C         -67.9020  -54.0777  -23.2166 C.ar    1  UNL1        0.0202
     34 C         -66.7291  -54.0372  -23.9787 C.ar    1  UNL1        0.1946
     35 O         -66.8988  -54.7062  -25.1053 O.2     1  UNL1       -0.4492
     36 C         -68.1211  -55.1790  -25.1130 C.ar    1  UNL1        0.1452
     37 C         -68.7246  -55.9415  -26.1068 C.ar    1  UNL1        0.0375
     38 C         -70.0567  -56.3455  -25.9114 C.ar    1  UNL1        0.0031
     39 C         -70.7623  -55.9836  -24.7320 C.ar    1  UNL1        0.0002
     40 C         -70.1104  -55.2066  -23.7444 C.ar    1  UNL1        0.0028
     41 C         -68.7876  -54.8231  -23.9714 C.ar    1  UNL1        0.0337
     42 C         -72.1693  -56.4161  -24.5366 C.ar    1  UNL1        0.0000
     43 C         -72.6744  -56.6460  -23.2426 C.ar    1  UNL1        0.0000
     44 C         -73.9997  -57.0533  -23.0616 C.ar    1  UNL1        0.0000
     45 C         -74.8347  -57.2342  -24.1663 C.ar    1  UNL1        0.0000
     46 C         -74.3458  -57.0087  -25.4550 C.ar    1  UNL1        0.0000
     47 C         -73.0210  -56.6023  -25.6421 C.ar    1  UNL1        0.0000
@<TRIPOS>BOND
     1    32    33    1
     2    33    34   ar
     3    34    28    1
     4    28    29    2
     5    28    30   am
     6    30     1    1
     7     1     2   ar
     8     2     3   ar
     9     3     4   ar
    10     4    10    1
    11    10    11    1
    12    11    12    1
    13    12    13    1
    14    13    16    1
    15    16    17    1
    16    17    18    1
    17    18    19   ar
    18    19    20   ar
    19    20    21   ar
    20    21    22   ar
    21    22    24    1
    22    24    25    2
    23    24    26    1
    24    22    23   ar
    25    13    14    1
    26    14    15    1
    27     4     5   ar
    28     5     6   ar
    29     6     7    1
    30    34    35   ar
    31    35    36   ar
    32    36    37   ar
    33    37    38   ar
    34    38    39   ar
    35    39    42    1
    36    42    43   ar
    37    43    44   ar
    38    44    45   ar
    39    45    46   ar
    40    46    47   ar
    41    39    40   ar
    42    40    41   ar
    43    41    33   ar
    44     6     1   ar
    45    41    36   ar
    46    15    10    1
    47    47    42   ar
    48    23    18   ar
    49    30    31    1
    50    26    27    1
    51     7     8    1
    52     7     9    1
@<TRIPOS>MOLECULE
*****
 47 52 0 0 0
SMALL
GASTEIGER

@<TRIPOS>ATOM
      1 C         -63.8728  -51.0865  -24.1958 C.ar    1  UNL1        0.0832
      2 C         -65.1716  -51.4716  -24.5578 C.ar    1  UNL1        0.1161
      3 N         -65.6714  -52.6678  -24.1554 N.ar    1  UNL1       -0.2278
      4 C         -64.9589  -53.5400  -23.3904 C.ar    1  UNL1        0.1330
      5 C         -63.6553  -53.1867  -22.9976 C.ar    1  UNL1        0.0496
      6 C         -63.1070  -51.9606  -23.3980 C.ar    1  UNL1        0.0595
      7 N         -61.7634  -51.6372  -23.0157 N.pl3   1  UNL1       -0.3559
      8 H         -61.2227  -52.2746  -22.3893 H       1  UNL1        0.1424
      9 H         -61.2682  -50.7990  -23.3901 H       1  UNL1        0.1424
     10 N         -65.5475  -54.8053  -23.0050 N.pl3   1  UNL1       -0.2932
     11 C         -66.5770  -55.4439  -23.8450 C.3     1  UNL1        0.0923
     12 C         -67.2978  -56.5799  -23.1041 C.3     1  UNL1        0.0252
     13 C         -67.6231  -56.1483  -21.6628 C.3     1  UNL1        0.0472
     14 C         -66.3380  -55.7844  -20.8692 C.3     1  UNL1        0.0252
     15 C         -65.1271  -55.4819  -21.7676 C.3     1  UNL1        0.0923
     16 C         -68.4381  -57.2338  -20.9449 C.3     1  UNL1        0.2054
     17 O         -68.9208  -56.7319  -19.7001 O.3     1  UNL1       -0.4755
     18 C         -69.9874  -55.8309  -19.5656 C.ar    1  UNL1        0.1388
     19 C         -69.6947  -54.5047  -19.2318 C.ar    1  UNL1        0.0369
     20 C         -70.7197  -53.5687  -19.0855 C.ar    1  UNL1        0.0033
     21 C         -72.0502  -53.9495  -19.2717 C.ar    1  UNL1        0.0066
     22 C         -72.3695  -55.2769  -19.6080 C.ar    1  UNL1        0.0785
     23 C         -71.3303  -56.2144  -19.7537 C.ar    1  UNL1        0.0433
     24 C         -73.7782  -55.6852  -19.8067 C.2     1  UNL1        0.3381
     25 O         -74.6349  -54.8503  -20.2054 O.2     1  UNL1       -0.2451
     26 O         -74.1718  -56.9970  -19.5547 O.3     1  UNL1       -0.4771
     27 H         -75.1335  -57.2865  -19.6876 H       1  UNL1        0.2954
     28 C         -63.6382  -49.1899  -25.8495 C.2     1  UNL1        0.2840
     29 O         -64.1861  -49.8619  -26.7647 O.2     1  UNL1       -0.2665
     30 N         -63.3682  -49.7948  -24.5750 N.am    1  UNL1       -0.2757
     31 H         -62.7613  -49.2808  -23.8979 H       1  UNL1        0.1553
     32 C         -63.6226  -47.6632  -28.6671 C.3     1  UNL1        0.0345
     33 C         -63.2395  -47.1185  -27.3242 C.ar    1  UNL1        0.0202
     34 C         -63.2471  -47.7888  -26.0958 C.ar    1  UNL1        0.1946
     35 O         -62.8441  -46.9763  -25.1351 O.2     1  UNL1       -0.4492
     36 C         -62.5750  -45.8137  -25.6770 C.ar    1  UNL1        0.1452
     37 C         -62.1220  -44.6674  -25.0335 C.ar    1  UNL1        0.0375
     38 C         -61.8969  -43.5188  -25.8119 C.ar    1  UNL1        0.0031
     39 C         -62.1263  -43.5326  -27.2143 C.ar    1  UNL1        0.0002
     40 C         -62.5871  -44.7210  -27.8304 C.ar    1  UNL1        0.0028
     41 C         -62.7999  -45.8425  -27.0271 C.ar    1  UNL1        0.0337
     42 C         -61.8850  -42.3130  -28.0264 C.ar    1  UNL1        0.0000
     43 C         -60.6567  -41.6297  -27.9443 C.ar    1  UNL1        0.0000
     44 C         -60.4323  -40.4816  -28.7102 C.ar    1  UNL1        0.0000
     45 C         -61.4275  -40.0038  -29.5655 C.ar    1  UNL1        0.0000
     46 C         -62.6499  -40.6729  -29.6564 C.ar    1  UNL1        0.0000
     47 C         -62.8804  -41.8210  -28.8921 C.ar    1  UNL1        0.0000
@<TRIPOS>BOND
     1    32    33    1
     2    33    34   ar
     3    34    28    1
     4    28    29    2
     5    28    30   am
     6    30     1    1
     7     1     2   ar
     8     2     3   ar
     9     3     4   ar
    10     4    10    1
    11    10    11    1
    12    11    12    1
    13    12    13    1
    14    13    16    1
    15    16    17    1
    16    17    18    1
    17    18    19   ar
    18    19    20   ar
    19    20    21   ar
    20    21    22   ar
    21    22    24    1
    22    24    25    2
    23    24    26    1
    24    22    23   ar
    25    13    14    1
    26    14    15    1
    27     4     5   ar
    28     5     6   ar
    29     6     7    1
    30    34    35   ar
    31    35    36   ar
    32    36    37   ar
    33    37    38   ar
    34    38    39   ar
    35    39    42    1
    36    42    43   ar
    37    43    44   ar
    38    44    45   ar
    39    45    46   ar
    40    46    47   ar
    41    39    40   ar
    42    40    41   ar
    43    41    33   ar
    44     6     1   ar
    45    41    36   ar
    46    15    10    1
    47    47    42   ar
    48    23    18   ar
    49    30    31    1
    50    26    27    1
    51     7     8    1
    52     7     9    1
@<TRIPOS>MOLECULE
*****
 47 52 0 0 0
SMALL
GASTEIGER

@<TRIPOS>ATOM
      1 C         -62.4619  -41.4597  -21.1305 C.ar    1  UNL1        0.0832
      2 C         -62.8417  -41.9765  -22.3774 C.ar    1  UNL1        0.1161
      3 N         -62.1692  -43.0222  -22.9221 N.ar    1  UNL1       -0.2278
      4 C         -61.1149  -43.6191  -22.3011 C.ar    1  UNL1        0.1330
      5 C         -60.7087  -43.1367  -21.0438 C.ar    1  UNL1        0.0496
      6 C         -61.3789  -42.0564  -20.4537 C.ar    1  UNL1        0.0595
      7 N         -60.9248  -41.5587  -19.1881 N.pl3   1  UNL1       -0.3559
      8 H         -60.1487  -42.0369  -18.6781 H       1  UNL1        0.1424
      9 H         -61.3072  -40.6838  -18.7682 H       1  UNL1        0.1424
     10 N         -60.4336  -44.7237  -22.9428 N.pl3   1  UNL1       -0.2932
     11 C         -61.0724  -45.4635  -24.0464 C.3     1  UNL1        0.0923
     12 C         -60.3431  -46.7803  -24.3516 C.3     1  UNL1        0.0252
     13 C         -59.9758  -47.4975  -23.0401 C.3     1  UNL1        0.0472
     14 C         -59.0533  -46.6227  -22.1469 C.3     1  UNL1        0.0252
     15 C         -59.0871  -45.1284  -22.5084 C.3     1  UNL1        0.0923
     16 C         -59.3421  -48.8655  -23.3318 C.3     1  UNL1        0.2054
     17 O         -60.0693  -49.8891  -22.6552 O.3     1  UNL1       -0.4755
     18 C         -61.2672  -50.4527  -23.1185 C.ar    1  UNL1        0.1388
     19 C         -61.5652  -51.7685  -22.7496 C.ar    1  UNL1        0.0369
     20 C         -62.7441  -52.3759  -23.1844 C.ar    1  UNL1        0.0033
     21 C         -63.6390  -51.6732  -23.9939 C.ar    1  UNL1        0.0066
     22 C         -63.3616  -50.3493  -24.3778 C.ar    1  UNL1        0.0785
     23 C         -62.1710  -49.7440  -23.9352 C.ar    1  UNL1        0.0433
     24 C         -64.3072  -49.6003  -25.2355 C.2     1  UNL1        0.3381
     25 O         -64.0937  -49.4856  -26.4729 O.2     1  UNL1       -0.2451
     26 O         -65.4433  -49.0140  -24.6834 O.3     1  UNL1       -0.4771
     27 H         -66.0967  -48.4993  -25.2617 H       1  UNL1        0.2954
     28 C         -62.8290  -39.0097  -20.6311 C.2     1  UNL1        0.2840
     29 O         -61.7021  -38.6994  -21.1036 O.2     1  UNL1       -0.2665
     30 N         -63.2124  -40.3902  -20.5306 N.am    1  UNL1       -0.2757
     31 H         -64.0667  -40.6314  -19.9802 H       1  UNL1        0.1553
     32 C         -66.0274  -39.0028  -20.8332 C.3     1  UNL1        0.0345
     33 C         -65.1414  -37.9494  -20.2396 C.ar    1  UNL1        0.0202
     34 C         -63.7447  -37.9558  -20.1538 C.ar    1  UNL1        0.1946
     35 O         -63.3230  -36.8516  -19.5634 O.2     1  UNL1       -0.4492
     36 C         -64.3741  -36.1291  -19.2623 C.ar    1  UNL1        0.1452
     37 C         -64.3939  -34.8907  -18.6303 C.ar    1  UNL1        0.0375
     38 C         -65.6423  -34.2868  -18.4006 C.ar    1  UNL1        0.0031
     39 C         -66.8460  -34.9257  -18.8036 C.ar    1  UNL1        0.0002
     40 C         -66.7814  -36.1862  -19.4447 C.ar    1  UNL1        0.0028
     41 C         -65.5252  -36.7565  -19.6569 C.ar    1  UNL1        0.0337
     42 C         -68.1590  -34.2781  -18.5555 C.ar    1  UNL1        0.0000
     43 C         -68.2651  -33.1933  -17.6643 C.ar    1  UNL1        0.0000
     44 C         -69.5029  -32.5854  -17.4327 C.ar    1  UNL1        0.0000
     45 C         -70.6458  -33.0507  -18.0865 C.ar    1  UNL1        0.0000
     46 C         -70.5536  -34.1255  -18.9735 C.ar    1  UNL1        0.0000
     47 C         -69.3186  -34.7380  -19.2083 C.ar    1  UNL1        0.0000
@<TRIPOS>BOND
     1    32    33    1
     2    33    34   ar
     3    34    28    1
     4    28    29    2
     5    28    30   am
     6    30     1    1
     7     1     2   ar
     8     2     3   ar
     9     3     4   ar
    10     4    10    1
    11    10    11    1
    12    11    12    1
    13    12    13    1
    14    13    16    1
    15    16    17    1
    16    17    18    1
    17    18    19   ar
    18    19    20   ar
    19    20    21   ar
    20    21    22   ar
    21    22    24    1
    22    24    25    2
    23    24    26    1
    24    22    23   ar
    25    13    14    1
    26    14    15    1
    27     4     5   ar
    28     5     6   ar
    29     6     7    1
    30    34    35   ar
    31    35    36   ar
    32    36    37   ar
    33    37    38   ar
    34    38    39   ar
    35    39    42    1
    36    42    43   ar
    37    43    44   ar
    38    44    45   ar
    39    45    46   ar
    40    46    47   ar
    41    39    40   ar
    42    40    41   ar
    43    41    33   ar
    44     6     1   ar
    45    41    36   ar
    46    15    10    1
    47    47    42   ar
    48    23    18   ar
    49    30    31    1
    50    26    27    1
    51     7     8    1
    52     7     9    1
@<TRIPOS>MOLECULE
*****
 47 52 0 0 0
SMALL
GASTEIGER

@<TRIPOS>ATOM
      1 C         -62.9356  -40.7938  -20.6835 C.ar    1  UNL1        0.0832
      2 C         -62.4395  -39.5583  -21.1238 C.ar    1  UNL1        0.1161
      3 N         -62.8623  -38.4034  -20.5493 N.ar    1  UNL1       -0.2278
      4 C         -63.7675  -38.3790  -19.5326 C.ar    1  UNL1        0.1330
      5 C         -64.2818  -39.5980  -19.0551 C.ar    1  UNL1        0.0496
      6 C         -63.8693  -40.8090  -19.6276 C.ar    1  UNL1        0.0595
      7 N         -64.4338  -42.0369  -19.1488 N.pl3   1  UNL1       -0.3559
      8 H         -65.0921  -42.0369  -18.3379 H       1  UNL1        0.1424
      9 H         -64.2555  -42.9493  -19.6219 H       1  UNL1        0.1424
     10 N         -64.1850  -37.1112  -18.9718 N.pl3   1  UNL1       -0.2932
     11 C         -64.8929  -37.0559  -17.6798 C.3     1  UNL1        0.0923
     12 C         -65.5324  -35.6811  -17.4350 C.3     1  UNL1        0.0252
     13 C         -66.2130  -35.1781  -18.7207 C.3     1  UNL1        0.0472
     14 C         -65.2003  -35.0452  -19.8914 C.3     1  UNL1        0.0252
     15 C         -63.9077  -35.8508  -19.6789 C.3     1  UNL1        0.0923
     16 C         -66.9476  -33.8549  -18.4607 C.3     1  UNL1        0.2054
     17 O         -68.3084  -33.9686  -18.8728 O.3     1  UNL1       -0.4755
     18 C         -69.4021  -33.4650  -18.1534 C.ar    1  UNL1        0.1388
     19 C         -69.1468  -32.6392  -17.0539 C.ar    1  UNL1        0.0369
     20 C         -70.1999  -32.1126  -16.3043 C.ar    1  UNL1        0.0033
     21 C         -71.5213  -32.4066  -16.6467 C.ar    1  UNL1        0.0066
     22 C         -71.8033  -33.2342  -17.7479 C.ar    1  UNL1        0.0785
     23 C         -70.7360  -33.7610  -18.4985 C.ar    1  UNL1        0.0433
     24 C         -73.2023  -33.5484  -18.1149 C.2     1  UNL1        0.3381
     25 O         -73.6349  -33.2828  -19.2691 O.2     1  UNL1       -0.2451
     26 O         -74.0557  -34.1410  -17.1876 O.3     1  UNL1       -0.4771
     27 H         -75.0150  -34.3600  -17.4289 H       1  UNL1        0.2954
     28 C         -61.1993  -42.6213  -20.8632 C.2     1  UNL1        0.2840
     29 O         -60.3967  -41.9921  -20.1220 O.2     1  UNL1       -0.2665
     30 N         -62.4423  -42.0174  -21.2547 N.am    1  UNL1       -0.2757
     31 H         -63.0065  -42.4784  -22.0032 H       1  UNL1        0.1553
     32 C         -63.0707  -45.2228  -20.8403 C.3     1  UNL1        0.0345
     33 C         -61.6642  -45.1064  -21.3457 C.ar    1  UNL1        0.0202
     34 C         -60.8499  -43.9683  -21.3533 C.ar    1  UNL1        0.1946
     35 O         -59.6733  -44.2580  -21.8797 O.2     1  UNL1       -0.4492
     36 C         -59.6821  -45.5254  -22.2134 C.ar    1  UNL1        0.1452
     37 C         -58.6515  -46.2505  -22.8012 C.ar    1  UNL1        0.0375
     38 C         -58.8758  -47.6100  -23.0788 C.ar    1  UNL1        0.0031
     39 C         -60.1199  -48.2218  -22.7666 C.ar    1  UNL1        0.0002
     40 C         -61.1429  -47.4477  -22.1680 C.ar    1  UNL1        0.0028
     41 C         -60.8857  -46.1010  -21.9062 C.ar    1  UNL1        0.0337
     42 C         -60.3454  -49.6590  -23.0647 C.ar    1  UNL1        0.0000
     43 C         -59.6734  -50.2825  -24.1333 C.ar    1  UNL1        0.0000
     44 C         -59.8877  -51.6359  -24.4116 C.ar    1  UNL1        0.0000
     45 C         -60.7716  -52.3813  -23.6284 C.ar    1  UNL1        0.0000
     46 C         -61.4437  -51.7746  -22.5651 C.ar    1  UNL1        0.0000
     47 C         -61.2342  -50.4212  -22.2828 C.ar    1  UNL1        0.0000
@<TRIPOS>BOND
     1    32    33    1
     2    33    34   ar
     3    34    28    1
     4    28    29    2
     5    28    30   am
     6    30     1    1
     7     1     2   ar
     8     2     3   ar
     9     3     4   ar
    10     4    10    1
    11    10    11    1
    12    11    12    1
    13    12    13    1
    14    13    16    1
    15    16    17    1
    16    17    18    1
    17    18    19   ar
    18    19    20   ar
    19    20    21   ar
    20    21    22   ar
    21    22    24    1
    22    24    25    2
    23    24    26    1
    24    22    23   ar
    25    13    14    1
    26    14    15    1
    27     4     5   ar
    28     5     6   ar
    29     6     7    1
    30    34    35   ar
    31    35    36   ar
    32    36    37   ar
    33    37    38   ar
    34    38    39   ar
    35    39    42    1
    36    42    43   ar
    37    43    44   ar
    38    44    45   ar
    39    45    46   ar
    40    46    47   ar
    41    39    40   ar
    42    40    41   ar
    43    41    33   ar
    44     6     1   ar
    45    41    36   ar
    46    15    10    1
    47    47    42   ar
    48    23    18   ar
    49    30    31    1
    50    26    27    1
    51     7     8    1
    52     7     9    1
@<TRIPOS>MOLECULE
*****
 47 52 0 0 0
SMALL
GASTEIGER

@<TRIPOS>ATOM
      1 C         -62.7147  -40.5932  -20.9622 C.ar    1  UNL1        0.0832
      2 C         -62.8875  -40.8867  -22.3225 C.ar    1  UNL1        0.1161
      3 N         -62.1729  -41.8815  -22.9074 N.ar    1  UNL1       -0.2278
      4 C         -61.2720  -42.6377  -22.2217 C.ar    1  UNL1        0.1330
      5 C         -61.0767  -42.3817  -20.8525 C.ar    1  UNL1        0.0496
      6 C         -61.7956  -41.3597  -20.2175 C.ar    1  UNL1        0.0595
      7 N         -61.5540  -41.0932  -18.8296 N.pl3   1  UNL1       -0.3559
      8 H         -60.9019  -41.6960  -18.2798 H       1  UNL1        0.1424
      9 H         -61.9683  -40.2679  -18.3445 H       1  UNL1        0.1424
     10 N         -60.5340  -43.6765  -22.9091 N.pl3   1  UNL1       -0.2932
     11 C         -60.9607  -44.1495  -24.2385 C.3     1  UNL1        0.0923
     12 C         -60.2613  -45.4589  -24.6328 C.3     1  UNL1        0.0252
     13 C         -60.2300  -46.4234  -23.4336 C.3     1  UNL1        0.0472
     14 C         -59.4732  -45.8095  -22.2235 C.3     1  UNL1        0.0252
     15 C         -59.3399  -44.2792  -22.2955 C.3     1  UNL1        0.0923
     16 C         -59.6297  -47.7759  -23.8440 C.3     1  UNL1        0.2054
     17 O         -60.4830  -48.4160  -24.7909 O.3     1  UNL1       -0.4755
     18 C         -61.4452  -49.3840  -24.4675 C.ar    1  UNL1        0.1388
     19 C         -62.7733  -49.1447  -24.8349 C.ar    1  UNL1        0.0369
     20 C         -63.7692  -50.0759  -24.5362 C.ar    1  UNL1        0.0033
     21 C         -63.4472  -51.2579  -23.8661 C.ar    1  UNL1        0.0066
     22 C         -62.1191  -51.5210  -23.4867 C.ar    1  UNL1        0.0785
     23 C         -61.1210  -50.5773  -23.7916 C.ar    1  UNL1        0.0433
     24 C         -61.7729  -52.7727  -22.7765 C.2     1  UNL1        0.3381
     25 O         -60.5696  -53.0505  -22.5217 O.2     1  UNL1       -0.2451
     26 O         -62.7740  -53.6568  -22.3825 O.3     1  UNL1       -0.4771
     27 H         -62.5475  -54.5161  -21.8959 H       1  UNL1        0.2954
     28 C         -63.2296  -38.1744  -20.4416 C.2     1  UNL1        0.2840
     29 O         -62.1432  -37.7879  -20.9513 O.2     1  UNL1       -0.2665
     30 N         -63.5149  -39.5780  -20.3330 N.am    1  UNL1       -0.2757
     31 H         -64.3314  -39.8773  -19.7544 H       1  UNL1        0.1553
     32 C         -66.4230  -38.3081  -20.6749 C.3     1  UNL1        0.0345
     33 C         -65.5923  -37.2408  -20.0285 C.ar    1  UNL1        0.0202
     34 C         -64.1975  -37.1858  -19.9292 C.ar    1  UNL1        0.1946
     35 O         -63.8329  -36.0894  -19.2885 O.2     1  UNL1       -0.4492
     36 C         -64.9191  -35.4301  -18.9676 C.ar    1  UNL1        0.1452
     37 C         -65.0022  -34.2221  -18.2840 C.ar    1  UNL1        0.0375
     38 C         -66.2793  -33.6874  -18.0413 C.ar    1  UNL1        0.0031
     39 C         -67.4484  -34.3640  -18.4830 C.ar    1  UNL1        0.0002
     40 C         -67.3195  -35.5916  -19.1761 C.ar    1  UNL1        0.0028
     41 C         -66.0363  -36.0931  -19.3998 C.ar    1  UNL1        0.0337
     42 C         -68.7923  -33.7894  -18.2208 C.ar    1  UNL1        0.0000
     43 C         -68.9386  -32.6579  -17.3957 C.ar    1  UNL1        0.0000
     44 C         -70.2054  -32.1191  -17.1506 C.ar    1  UNL1        0.0000
     45 C         -71.3377  -32.7005  -17.7251 C.ar    1  UNL1        0.0000
     46 C         -71.2059  -33.8227  -18.5459 C.ar    1  UNL1        0.0000
     47 C         -69.9417  -34.3665  -18.7937 C.ar    1  UNL1        0.0000
@<TRIPOS>BOND
     1    32    33    1
     2    33    34   ar
     3    34    28    1
     4    28    29    2
     5    28    30   am
     6    30     1    1
     7     1     2   ar
     8     2     3   ar
     9     3     4   ar
    10     4    10    1
    11    10    11    1
    12    11    12    1
    13    12    13    1
    14    13    16    1
    15    16    17    1
    16    17    18    1
    17    18    19   ar
    18    19    20   ar
    19    20    21   ar
    20    21    22   ar
    21    22    24    1
    22    24    25    2
    23    24    26    1
    24    22    23   ar
    25    13    14    1
    26    14    15    1
    27     4     5   ar
    28     5     6   ar
    29     6     7    1
    30    34    35   ar
    31    35    36   ar
    32    36    37   ar
    33    37    38   ar
    34    38    39   ar
    35    39    42    1
    36    42    43   ar
    37    43    44   ar
    38    44    45   ar
    39    45    46   ar
    40    46    47   ar
    41    39    40   ar
    42    40    41   ar
    43    41    33   ar
    44     6     1   ar
    45    41    36   ar
    46    15    10    1
    47    47    42   ar
    48    23    18   ar
    49    30    31    1
    50    26    27    1
    51     7     8    1
    52     7     9    1
