@<TRIPOS>MOLECULE
*****
 46 51 0 0 0
SMALL
GASTEIGER

@<TRIPOS>ATOM
      1 C         -61.9287  -44.7120  -22.8012 C.ar    1  UNL1        0.0702
      2 C         -60.8705  -45.4974  -22.3177 C.ar    1  UNL1        0.0191
      3 C         -60.8132  -46.8589  -22.6202 C.ar    1  UNL1        0.0356
      4 C         -61.8328  -47.4416  -23.3893 C.ar    1  UNL1        0.1318
      5 N         -62.8523  -46.6602  -23.8423 N.ar    1  UNL1       -0.2279
      6 C         -62.9283  -45.3327  -23.5607 C.ar    1  UNL1        0.1149
      7 N         -61.7965  -48.8379  -23.7403 N.pl3   1  UNL1       -0.2932
      8 C         -62.5855  -49.3694  -24.8606 C.3     1  UNL1        0.0923
      9 C         -63.3733  -50.6186  -24.4304 C.3     1  UNL1        0.0252
     10 C         -62.6497  -51.4621  -23.3464 C.3     1  UNL1        0.0472
     11 C         -61.1304  -51.2024  -23.3492 C.3     1  UNL1        0.0252
     12 C         -60.8481  -49.7227  -23.0473 C.3     1  UNL1        0.0923
     13 C         -62.9582  -52.9614  -23.5243 C.3     1  UNL1        0.2055
     14 O         -63.9727  -53.3931  -22.6155 O.3     1  UNL1       -0.4724
     15 C         -64.9735  -54.3420  -22.8889 C.ar    1  UNL1        0.1721
     16 C         -66.0065  -54.1023  -23.8187 C.ar    1  UNL1        0.0465
     17 C         -66.9930  -55.0747  -24.0646 C.ar    1  UNL1        0.0787
     18 C         -66.9341  -56.2960  -23.3757 C.ar    1  UNL1        0.0097
     19 C         -65.9106  -56.5416  -22.4596 C.ar    1  UNL1        0.0400
     20 C         -64.9327  -55.5747  -22.2130 C.ar    1  UNL1        0.1677
     21 O         -63.9275  -55.8559  -21.2876 O.3     1  UNL1       -0.5029
     22 H         -63.1957  -55.1917  -21.0659 H       1  UNL1        0.2923
     23 C         -68.0805  -54.8195  -25.0361 C.2     1  UNL1        0.3381
     24 O         -68.0188  -55.2918  -26.2036 O.2     1  UNL1       -0.2451
     25 O         -69.1840  -54.0534  -24.6690 O.3     1  UNL1       -0.4771
     26 H         -69.9335  -53.8725  -25.3261 H       1  UNL1        0.2954
     27 C         -61.7529  -42.7493  -21.2005 C.2     1  UNL1        0.2839
     28 O         -61.1435  -43.4295  -20.3318 O.2     1  UNL1       -0.2665
     29 N         -62.0362  -43.3118  -22.4919 N.am    1  UNL1       -0.2766
     30 H         -62.2518  -42.6552  -23.2761 H       1  UNL1        0.1553
     31 C         -64.1393  -41.7769  -19.2944 C.3     1  UNL1        0.0345
     32 C         -63.1826  -40.9279  -20.0763 C.ar    1  UNL1        0.0202
     33 C         -62.1412  -41.3566  -20.9069 C.ar    1  UNL1        0.1946
     34 O         -61.5181  -40.3134  -21.4257 O.2     1  UNL1       -0.4492
     35 C         -62.1013  -39.2302  -20.9738 C.ar    1  UNL1        0.1452
     36 C         -61.7711  -37.9108  -21.2631 C.ar    1  UNL1        0.0375
     37 C         -62.5354  -36.8931  -20.6666 C.ar    1  UNL1        0.0031
     38 C         -63.6127  -37.2069  -19.7946 C.ar    1  UNL1        0.0002
     39 C         -63.9154  -38.5636  -19.5261 C.ar    1  UNL1        0.0028
     40 C         -63.1357  -39.5480  -20.1351 C.ar    1  UNL1        0.0337
     41 C         -64.4134  -36.1233  -19.1704 C.ar    1  UNL1        0.0000
     42 C         -65.6769  -35.7784  -19.6871 C.ar    1  UNL1        0.0000
     43 C         -66.4291  -34.7581  -19.0966 C.ar    1  UNL1        0.0000
     44 C         -65.9304  -34.0714  -17.9875 C.ar    1  UNL1        0.0000
     45 C         -64.6783  -34.4038  -17.4659 C.ar    1  UNL1        0.0000
     46 C         -63.9221  -35.4238  -18.0515 C.ar    1  UNL1        0.0000
@<TRIPOS>BOND
     1    31    32    1
     2    32    33   ar
     3    33    27    1
     4    27    28    2
     5    27    29   am
     6    29     1    1
     7     1     2   ar
     8     2     3   ar
     9     3     4   ar
    10     4     7    1
    11     7     8    1
    12     8     9    1
    13     9    10    1
    14    10    13    1
    15    13    14    1
    16    14    15    1
    17    15    16   ar
    18    16    17   ar
    19    17    23    1
    20    23    24    2
    21    23    25    1
    22    17    18   ar
    23    18    19   ar
    24    19    20   ar
    25    20    21    1
    26    10    11    1
    27    11    12    1
    28     4     5   ar
    29     5     6   ar
    30    33    34   ar
    31    34    35   ar
    32    35    36   ar
    33    36    37   ar
    34    37    38   ar
    35    38    41    1
    36    41    42   ar
    37    42    43   ar
    38    43    44   ar
    39    44    45   ar
    40    45    46   ar
    41    38    39   ar
    42    39    40   ar
    43    40    32   ar
    44     6     1   ar
    45    40    35   ar
    46    12     7    1
    47    46    41   ar
    48    20    15   ar
    49    29    30    1
    50    25    26    1
    51    21    22    1
@<TRIPOS>MOLECULE
*****
 46 51 0 0 0
SMALL
GASTEIGER

@<TRIPOS>ATOM
      1 C         -65.8375  -54.0069  -26.1635 C.ar    1  UNL1        0.0702
      2 C         -66.0871  -54.2431  -27.5245 C.ar    1  UNL1        0.0191
      3 C         -67.2113  -54.9728  -27.9146 C.ar    1  UNL1        0.0356
      4 C         -68.0760  -55.4891  -26.9367 C.ar    1  UNL1        0.1318
      5 N         -67.8099  -55.2515  -25.6222 N.ar    1  UNL1       -0.2279
      6 C         -66.7218  -54.5436  -25.2194 C.ar    1  UNL1        0.1149
      7 N         -69.2575  -56.2276  -27.3012 N.pl3   1  UNL1       -0.2932
      8 C         -69.3618  -56.9224  -28.5921 C.3     1  UNL1        0.0923
      9 C         -70.6860  -56.5761  -29.2941 C.3     1  UNL1        0.0252
     10 C         -71.8552  -56.3067  -28.3089 C.3     1  UNL1        0.0472
     11 C         -71.6043  -56.9688  -26.9397 C.3     1  UNL1        0.0252
     12 C         -70.3259  -56.3997  -26.3055 C.3     1  UNL1        0.0923
     13 C         -73.1959  -56.7680  -28.9126 C.3     1  UNL1        0.2055
     14 O         -74.0028  -55.6527  -29.2954 O.3     1  UNL1       -0.4724
     15 C         -73.9608  -54.9936  -30.5366 C.ar    1  UNL1        0.1721
     16 C         -73.6450  -55.6640  -31.7365 C.ar    1  UNL1        0.0465
     17 C         -73.6099  -54.9709  -32.9601 C.ar    1  UNL1        0.0787
     18 C         -73.9007  -53.5980  -32.9754 C.ar    1  UNL1        0.0097
     19 C         -74.2206  -52.9305  -31.7924 C.ar    1  UNL1        0.0400
     20 C         -74.2524  -53.6183  -30.5767 C.ar    1  UNL1        0.1677
     21 O         -74.5730  -52.9157  -29.4151 O.3     1  UNL1       -0.5029
     22 H         -74.6071  -53.3611  -28.5060 H       1  UNL1        0.2923
     23 C         -73.2720  -55.6743  -34.2181 C.2     1  UNL1        0.3381
     24 O         -74.1338  -56.3827  -34.8059 O.2     1  UNL1       -0.2451
     25 O         -71.9963  -55.5605  -34.7651 O.3     1  UNL1       -0.4771
     26 H         -71.7546  -56.0379  -35.6252 H       1  UNL1        0.2954
     27 C         -64.4680  -52.8502  -24.3658 C.2     1  UNL1        0.2839
     28 O         -65.1791  -53.3148  -23.4346 O.2     1  UNL1       -0.2665
     29 N         -64.6782  -53.2807  -25.7204 N.am    1  UNL1       -0.2766
     30 H         -63.9051  -53.1314  -26.4078 H       1  UNL1        0.1553
     31 C         -64.5346  -49.6744  -24.7933 C.3     1  UNL1        0.0345
     32 C         -63.4130  -50.5054  -24.2467 C.ar    1  UNL1        0.0202
     33 C         -63.3883  -51.8922  -24.0608 C.ar    1  UNL1        0.1946
     34 O         -62.2234  -52.2601  -23.5577 O.2     1  UNL1       -0.4492
     35 C         -61.4915  -51.1834  -23.4071 C.ar    1  UNL1        0.1452
     36 C         -60.1950  -51.1070  -22.9102 C.ar    1  UNL1        0.0375
     37 C         -59.5903  -49.8404  -22.8355 C.ar    1  UNL1        0.0031
     38 C         -60.2861  -48.6748  -23.2561 C.ar    1  UNL1        0.0002
     39 C         -61.6052  -48.7966  -23.7554 C.ar    1  UNL1        0.0028
     40 C         -62.1747  -50.0694  -23.8153 C.ar    1  UNL1        0.0337
     41 C         -59.6369  -47.3420  -23.1727 C.ar    1  UNL1        0.0000
     42 C         -60.3658  -46.1716  -23.4576 C.ar    1  UNL1        0.0000
     43 C         -59.7521  -44.9177  -23.3772 C.ar    1  UNL1        0.0000
     44 C         -58.4074  -44.8173  -23.0135 C.ar    1  UNL1        0.0000
     45 C         -57.6735  -45.9708  -22.7287 C.ar    1  UNL1        0.0000
     46 C         -58.2822  -47.2272  -22.8065 C.ar    1  UNL1        0.0000
@<TRIPOS>BOND
     1    31    32    1
     2    32    33   ar
     3    33    27    1
     4    27    28    2
     5    27    29   am
     6    29     1    1
     7     1     2   ar
     8     2     3   ar
     9     3     4   ar
    10     4     7    1
    11     7     8    1
    12     8     9    1
    13     9    10    1
    14    10    13    1
    15    13    14    1
    16    14    15    1
    17    15    16   ar
    18    16    17   ar
    19    17    23    1
    20    23    24    2
    21    23    25    1
    22    17    18   ar
    23    18    19   ar
    24    19    20   ar
    25    20    21    1
    26    10    11    1
    27    11    12    1
    28     4     5   ar
    29     5     6   ar
    30    33    34   ar
    31    34    35   ar
    32    35    36   ar
    33    36    37   ar
    34    37    38   ar
    35    38    41    1
    36    41    42   ar
    37    42    43   ar
    38    43    44   ar
    39    44    45   ar
    40    45    46   ar
    41    38    39   ar
    42    39    40   ar
    43    40    32   ar
    44     6     1   ar
    45    40    35   ar
    46    12     7    1
    47    46    41   ar
    48    20    15   ar
    49    29    30    1
    50    25    26    1
    51    21    22    1
@<TRIPOS>MOLECULE
*****
 46 51 0 0 0
SMALL
GASTEIGER

@<TRIPOS>ATOM
      1 C         -65.5441  -53.8298  -26.0624 C.ar    1  UNL1        0.0702
      2 C         -65.7854  -54.1678  -27.4033 C.ar    1  UNL1        0.0191
      3 C         -66.8814  -54.9644  -27.7388 C.ar    1  UNL1        0.0356
      4 C         -67.7252  -55.4451  -26.7251 C.ar    1  UNL1        0.1318
      5 N         -67.4673  -55.1082  -25.4307 N.ar    1  UNL1       -0.2279
      6 C         -66.4066  -54.3338  -25.0809 C.ar    1  UNL1        0.1149
      7 N         -68.8781  -56.2509  -27.0343 N.pl3   1  UNL1       -0.2932
      8 C         -68.9572  -57.0350  -28.2749 C.3     1  UNL1        0.0923
      9 C         -70.2946  -56.7876  -28.9937 C.3     1  UNL1        0.0252
     10 C         -71.4720  -56.4969  -28.0245 C.3     1  UNL1        0.0472
     11 C         -71.1944  -57.0547  -26.6147 C.3     1  UNL1        0.0252
     12 C         -69.9379  -56.3958  -26.0253 C.3     1  UNL1        0.0923
     13 C         -72.7949  -57.0486  -28.5906 C.3     1  UNL1        0.2055
     14 O         -73.0634  -56.5188  -29.8900 O.3     1  UNL1       -0.4724
     15 C         -73.7311  -55.3126  -30.1656 C.ar    1  UNL1        0.1721
     16 C         -74.1042  -54.4079  -29.1501 C.ar    1  UNL1        0.0465
     17 C         -74.7741  -53.2111  -29.4633 C.ar    1  UNL1        0.0787
     18 C         -75.0631  -52.9220  -30.8059 C.ar    1  UNL1        0.0097
     19 C         -74.6904  -53.8100  -31.8157 C.ar    1  UNL1        0.0400
     20 C         -74.0280  -55.0001  -31.5044 C.ar    1  UNL1        0.1677
     21 O         -73.6748  -55.8639  -32.5411 O.3     1  UNL1       -0.5029
     22 H         -73.1975  -56.7416  -32.3745 H       1  UNL1        0.2923
     23 C         -75.1709  -52.2652  -28.3960 C.2     1  UNL1        0.3381
     24 O         -75.3492  -51.0445  -28.6572 O.2     1  UNL1       -0.2451
     25 O         -75.3509  -52.7153  -27.0904 O.3     1  UNL1       -0.4771
     26 H         -75.6221  -52.0764  -26.3525 H       1  UNL1        0.2954
     27 C         -64.0985  -52.6900  -24.3140 C.2     1  UNL1        0.2839
     28 O         -64.6628  -53.2928  -23.3616 O.2     1  UNL1       -0.2665
     29 N         -64.4129  -53.0316  -25.6738 N.am    1  UNL1       -0.2766
     30 H         -63.7334  -52.7548  -26.4184 H       1  UNL1        0.1553
     31 C         -64.4315  -49.5190  -24.6405 C.3     1  UNL1        0.0345
     32 C         -63.2224  -50.2737  -24.1761 C.ar    1  UNL1        0.0202
     33 C         -63.0814  -51.6587  -24.0341 C.ar    1  UNL1        0.1946
     34 O         -61.8670  -51.9474  -23.6012 O.2     1  UNL1       -0.4492
     35 C         -61.2132  -50.8211  -23.4544 C.ar    1  UNL1        0.1452
     36 C         -59.9024  -50.6565  -23.0207 C.ar    1  UNL1        0.0375
     37 C         -59.3939  -49.3488  -22.9376 C.ar    1  UNL1        0.0031
     38 C         -60.1982  -48.2306  -23.2872 C.ar    1  UNL1        0.0002
     39 C         -61.5282  -48.4421  -23.7236 C.ar    1  UNL1        0.0028
     40 C         -62.0005  -49.7536  -23.7938 C.ar    1  UNL1        0.0337
     41 C         -59.6500  -46.8537  -23.1956 C.ar    1  UNL1        0.0000
     42 C         -60.4277  -45.7463  -23.5842 C.ar    1  UNL1        0.0000
     43 C         -59.9092  -44.4506  -23.4959 C.ar    1  UNL1        0.0000
     44 C         -58.6120  -44.2455  -23.0209 C.ar    1  UNL1        0.0000
     45 C         -57.8304  -45.3357  -22.6326 C.ar    1  UNL1        0.0000
     46 C         -58.3440  -46.6334  -22.7178 C.ar    1  UNL1        0.0000
@<TRIPOS>BOND
     1    31    32    1
     2    32    33   ar
     3    33    27    1
     4    27    28    2
     5    27    29   am
     6    29     1    1
     7     1     2   ar
     8     2     3   ar
     9     3     4   ar
    10     4     7    1
    11     7     8    1
    12     8     9    1
    13     9    10    1
    14    10    13    1
    15    13    14    1
    16    14    15    1
    17    15    16   ar
    18    16    17   ar
    19    17    23    1
    20    23    24    2
    21    23    25    1
    22    17    18   ar
    23    18    19   ar
    24    19    20   ar
    25    20    21    1
    26    10    11    1
    27    11    12    1
    28     4     5   ar
    29     5     6   ar
    30    33    34   ar
    31    34    35   ar
    32    35    36   ar
    33    36    37   ar
    34    37    38   ar
    35    38    41    1
    36    41    42   ar
    37    42    43   ar
    38    43    44   ar
    39    44    45   ar
    40    45    46   ar
    41    38    39   ar
    42    39    40   ar
    43    40    32   ar
    44     6     1   ar
    45    40    35   ar
    46    12     7    1
    47    46    41   ar
    48    20    15   ar
    49    29    30    1
    50    25    26    1
    51    21    22    1
@<TRIPOS>MOLECULE
*****
 46 51 0 0 0
SMALL
GASTEIGER

@<TRIPOS>ATOM
      1 C         -62.0436  -41.1141  -22.0742 C.ar    1  UNL1        0.0702
      2 C         -62.5589  -41.8527  -23.1509 C.ar    1  UNL1        0.0191
      3 C         -61.9153  -43.0170  -23.5738 C.ar    1  UNL1        0.0356
      4 C         -60.7372  -43.4299  -22.9320 C.ar    1  UNL1        0.1318
      5 N         -60.2534  -42.6935  -21.8933 N.ar    1  UNL1       -0.2279
      6 C         -60.8634  -41.5572  -21.4643 C.ar    1  UNL1        0.1149
      7 N         -60.0576  -44.6372  -23.3255 N.pl3   1  UNL1       -0.2932
      8 C         -60.4619  -45.3921  -24.5200 C.3     1  UNL1        0.0923
      9 C         -60.6247  -46.8865  -24.1931 C.3     1  UNL1        0.0252
     10 C         -59.6578  -47.3853  -23.0856 C.3     1  UNL1        0.0472
     11 C         -58.4203  -46.4745  -22.9636 C.3     1  UNL1        0.0252
     12 C         -58.8509  -45.0474  -22.5920 C.3     1  UNL1        0.0923
     13 C         -59.2484  -48.8496  -23.3365 C.3     1  UNL1        0.2055
     14 O         -60.0813  -49.7528  -22.6072 O.3     1  UNL1       -0.4724
     15 C         -61.2457  -50.3735  -23.0927 C.ar    1  UNL1        0.1721
     16 C         -62.1658  -49.7044  -23.9262 C.ar    1  UNL1        0.0465
     17 C         -63.3222  -50.3570  -24.3909 C.ar    1  UNL1        0.0787
     18 C         -63.5487  -51.6913  -24.0194 C.ar    1  UNL1        0.0097
     19 C         -62.6385  -52.3608  -23.2005 C.ar    1  UNL1        0.0400
     20 C         -61.4917  -51.7117  -22.7364 C.ar    1  UNL1        0.1677
     21 O         -60.6073  -52.4132  -21.9169 O.3     1  UNL1       -0.5029
     22 H         -59.7630  -51.9925  -21.5480 H       1  UNL1        0.2923
     23 C         -64.2905  -49.6517  -25.2605 C.2     1  UNL1        0.3381
     24 O         -64.0874  -49.5611  -26.5018 O.2     1  UNL1       -0.2451
     25 O         -65.4370  -49.0798  -24.7148 O.3     1  UNL1       -0.4771
     26 H         -66.1059  -48.5946  -25.3009 H       1  UNL1        0.2954
     27 C         -62.8095  -39.5321  -20.2421 C.2     1  UNL1        0.2839
     28 O         -62.1658  -40.1493  -19.3514 O.2     1  UNL1       -0.2665
     29 N         -62.6636  -39.8972  -21.6242 N.am    1  UNL1       -0.2766
     30 H         -62.9489  -39.1994  -22.3483 H       1  UNL1        0.1553
     31 C         -66.0050  -39.4203  -20.4644 C.3     1  UNL1        0.0345
     32 C         -65.0797  -38.3508  -19.9672 C.ar    1  UNL1        0.0202
     33 C         -63.6847  -38.4040  -19.8709 C.ar    1  UNL1        0.1946
     34 O         -63.2212  -37.2652  -19.3871 O.2     1  UNL1       -0.4492
     35 C         -64.2438  -36.4765  -19.1639 C.ar    1  UNL1        0.1452
     36 C         -64.2161  -35.1819  -18.6570 C.ar    1  UNL1        0.0375
     37 C         -65.4398  -34.5091  -18.4980 C.ar    1  UNL1        0.0031
     38 C         -66.6668  -35.1362  -18.8458 C.ar    1  UNL1        0.0002
     39 C         -66.6506  -36.4557  -19.3583 C.ar    1  UNL1        0.0028
     40 C         -65.4178  -37.0939  -19.5027 C.ar    1  UNL1        0.0337
     41 C         -67.9535  -34.4153  -18.6736 C.ar    1  UNL1        0.0000
     42 C         -69.0898  -34.7920  -19.4146 C.ar    1  UNL1        0.0000
     43 C         -70.3005  -34.1119  -19.2496 C.ar    1  UNL1        0.0000
     44 C         -70.3909  -33.0505  -18.3465 C.ar    1  UNL1        0.0000
     45 C         -69.2708  -32.6670  -17.6058 C.ar    1  UNL1        0.0000
     46 C         -68.0579  -33.3439  -17.7659 C.ar    1  UNL1        0.0000
@<TRIPOS>BOND
     1    31    32    1
     2    32    33   ar
     3    33    27    1
     4    27    28    2
     5    27    29   am
     6    29     1    1
     7     1     2   ar
     8     2     3   ar
     9     3     4   ar
    10     4     7    1
    11     7     8    1
    12     8     9    1
    13     9    10    1
    14    10    13    1
    15    13    14    1
    16    14    15    1
    17    15    16   ar
    18    16    17   ar
    19    17    23    1
    20    23    24    2
    21    23    25    1
    22    17    18   ar
    23    18    19   ar
    24    19    20   ar
    25    20    21    1
    26    10    11    1
    27    11    12    1
    28     4     5   ar
    29     5     6   ar
    30    33    34   ar
    31    34    35   ar
    32    35    36   ar
    33    36    37   ar
    34    37    38   ar
    35    38    41    1
    36    41    42   ar
    37    42    43   ar
    38    43    44   ar
    39    44    45   ar
    40    45    46   ar
    41    38    39   ar
    42    39    40   ar
    43    40    32   ar
    44     6     1   ar
    45    40    35   ar
    46    12     7    1
    47    46    41   ar
    48    20    15   ar
    49    29    30    1
    50    25    26    1
    51    21    22    1
@<TRIPOS>MOLECULE
*****
 46 51 0 0 0
SMALL
GASTEIGER

@<TRIPOS>ATOM
      1 C         -61.8944  -45.3633  -22.2130 C.ar    1  UNL1        0.0702
      2 C         -61.0533  -46.3017  -21.5948 C.ar    1  UNL1        0.0191
      3 C         -61.0552  -47.6314  -22.0195 C.ar    1  UNL1        0.0356
      4 C         -61.9208  -48.0284  -23.0508 C.ar    1  UNL1        0.1318
      5 N         -62.7318  -47.1008  -23.6315 N.ar    1  UNL1       -0.2279
      6 C         -62.7464  -45.8009  -23.2347 C.ar    1  UNL1        0.1149
      7 N         -61.9352  -49.3861  -23.5309 N.pl3   1  UNL1       -0.2932
      8 C         -62.6509  -49.7594  -24.7592 C.3     1  UNL1        0.0923
      9 C         -63.5458  -50.9874  -24.5188 C.3     1  UNL1        0.0252
     10 C         -62.9724  -51.9725  -23.4649 C.3     1  UNL1        0.0472
     11 C         -61.4463  -51.8156  -23.3161 C.3     1  UNL1        0.0252
     12 C         -61.1059  -50.3917  -22.8502 C.3     1  UNL1        0.0923
     13 C         -63.3510  -53.4254  -23.8119 C.3     1  UNL1        0.2055
     14 O         -64.6705  -53.5015  -24.3547 O.3     1  UNL1       -0.4724
     15 C         -65.7359  -54.2520  -23.8270 C.ar    1  UNL1        0.1721
     16 C         -65.8344  -54.5603  -22.4543 C.ar    1  UNL1        0.0465
     17 C         -66.9139  -55.3163  -21.9624 C.ar    1  UNL1        0.0787
     18 C         -67.9015  -55.7579  -22.8566 C.ar    1  UNL1        0.0097
     19 C         -67.8131  -55.4502  -24.2148 C.ar    1  UNL1        0.0400
     20 C         -66.7393  -54.7020  -24.7039 C.ar    1  UNL1        0.1677
     21 O         -66.6841  -54.4178  -26.0684 O.3     1  UNL1       -0.5029
     22 H         -65.9278  -53.8837  -26.4791 H       1  UNL1        0.2923
     23 C         -67.0130  -55.6447  -20.5224 C.2     1  UNL1        0.3381
     24 O         -68.0736  -56.1369  -20.0502 O.2     1  UNL1       -0.2451
     25 O         -65.9337  -55.4121  -19.6736 O.3     1  UNL1       -0.4771
     26 H         -65.9911  -55.6329  -18.6865 H       1  UNL1        0.2954
     27 C         -62.7802  -43.5019  -20.7310 C.2     1  UNL1        0.2839
     28 O         -63.3413  -44.3094  -19.9424 O.2     1  UNL1       -0.2665
     29 N         -61.9390  -43.9900  -21.7887 N.am    1  UNL1       -0.2766
     30 H         -61.2574  -43.3249  -22.2195 H       1  UNL1        0.1553
     31 C         -64.9435  -42.0445  -18.8684 C.3     1  UNL1        0.0345
     32 C         -63.8966  -41.4086  -19.7326 C.ar    1  UNL1        0.0202
     33 C         -62.9531  -42.0488  -20.5439 C.ar    1  UNL1        0.1946
     34 O         -62.2002  -41.1519  -21.1557 O.2     1  UNL1       -0.4492
     35 C         -62.6063  -39.9630  -20.7826 C.ar    1  UNL1        0.1452
     36 C         -62.0962  -38.7329  -21.1829 C.ar    1  UNL1        0.0375
     37 C         -62.6868  -37.5708  -20.6572 C.ar    1  UNL1        0.0031
     38 C         -63.7726  -37.6543  -19.7442 C.ar    1  UNL1        0.0002
     39 C         -64.2615  -38.9268  -19.3621 C.ar    1  UNL1        0.0028
     40 C         -63.6512  -40.0594  -19.9032 C.ar    1  UNL1        0.0337
     41 C         -64.3887  -36.4197  -19.1956 C.ar    1  UNL1        0.0000
     42 C         -63.6978  -35.6318  -18.2553 C.ar    1  UNL1        0.0000
     43 C         -64.2801  -34.4690  -17.7412 C.ar    1  UNL1        0.0000
     44 C         -65.5552  -34.0804  -18.1575 C.ar    1  UNL1        0.0000
     45 C         -66.2510  -34.8535  -19.0895 C.ar    1  UNL1        0.0000
     46 C         -65.6733  -36.0166  -19.6077 C.ar    1  UNL1        0.0000
@<TRIPOS>BOND
     1    31    32    1
     2    32    33   ar
     3    33    27    1
     4    27    28    2
     5    27    29   am
     6    29     1    1
     7     1     2   ar
     8     2     3   ar
     9     3     4   ar
    10     4     7    1
    11     7     8    1
    12     8     9    1
    13     9    10    1
    14    10    13    1
    15    13    14    1
    16    14    15    1
    17    15    16   ar
    18    16    17   ar
    19    17    23    1
    20    23    24    2
    21    23    25    1
    22    17    18   ar
    23    18    19   ar
    24    19    20   ar
    25    20    21    1
    26    10    11    1
    27    11    12    1
    28     4     5   ar
    29     5     6   ar
    30    33    34   ar
    31    34    35   ar
    32    35    36   ar
    33    36    37   ar
    34    37    38   ar
    35    38    41    1
    36    41    42   ar
    37    42    43   ar
    38    43    44   ar
    39    44    45   ar
    40    45    46   ar
    41    38    39   ar
    42    39    40   ar
    43    40    32   ar
    44     6     1   ar
    45    40    35   ar
    46    12     7    1
    47    46    41   ar
    48    20    15   ar
    49    29    30    1
    50    25    26    1
    51    21    22    1
@<TRIPOS>MOLECULE
*****
 46 51 0 0 0
SMALL
GASTEIGER

@<TRIPOS>ATOM
      1 C         -63.3517  -40.7488  -23.1941 C.ar    1  UNL1        0.0702
      2 C         -62.3954  -41.6072  -22.6292 C.ar    1  UNL1        0.0191
      3 C         -61.9849  -42.7495  -23.3185 C.ar    1  UNL1        0.0356
      4 C         -62.5523  -43.0467  -24.5676 C.ar    1  UNL1        0.1318
      5 N         -63.4826  -42.2016  -25.0927 N.ar    1  UNL1       -0.2279
      6 C         -63.8969  -41.0839  -24.4398 C.ar    1  UNL1        0.1149
      7 N         -62.1381  -44.2039  -25.3183 N.pl3   1  UNL1       -0.2932
      8 C         -60.9601  -44.9916  -24.9285 C.3     1  UNL1        0.0923
      9 C         -60.0378  -45.2300  -26.1363 C.3     1  UNL1        0.0252
     10 C         -60.8008  -45.3405  -27.4838 C.3     1  UNL1        0.0472
     11 C         -62.2732  -45.7426  -27.2681 C.3     1  UNL1        0.0252
     12 C         -62.9897  -44.6827  -26.4174 C.3     1  UNL1        0.0923
     13 C         -60.0898  -46.3220  -28.4356 C.3     1  UNL1        0.2055
     14 O         -59.3052  -45.6260  -29.4059 O.3     1  UNL1       -0.4724
     15 C         -59.8009  -44.9521  -30.5359 C.ar    1  UNL1        0.1721
     16 C         -61.1286  -44.4826  -30.6120 C.ar    1  UNL1        0.0465
     17 C         -61.5907  -43.8144  -31.7605 C.ar    1  UNL1        0.0787
     18 C         -60.7092  -43.6129  -32.8339 C.ar    1  UNL1        0.0097
     19 C         -59.3924  -44.0691  -32.7617 C.ar    1  UNL1        0.0400
     20 C         -58.9344  -44.7355  -31.6223 C.ar    1  UNL1        0.1677
     21 O         -57.6125  -45.1797  -31.5891 O.3     1  UNL1       -0.5029
     22 H         -57.2275  -45.6718  -30.7920 H       1  UNL1        0.2923
     23 C         -62.9863  -43.3277  -31.8419 C.2     1  UNL1        0.3381
     24 O         -63.2553  -42.1165  -31.6162 O.2     1  UNL1       -0.2451
     25 O         -64.0177  -44.2046  -32.1685 O.3     1  UNL1       -0.4771
     26 H         -64.9762  -43.8820  -32.2266 H       1  UNL1        0.2954
     27 C         -63.9593  -39.4834  -21.0786 C.2     1  UNL1        0.2839
     28 O         -63.4337  -40.3519  -20.3314 O.2     1  UNL1       -0.2665
     29 N         -63.8179  -39.5757  -22.5056 N.am    1  UNL1       -0.2766
     30 H         -63.9832  -38.7125  -23.0714 H       1  UNL1        0.1553
     31 C         -67.1207  -38.9633  -21.1698 C.3     1  UNL1        0.0345
     32 C         -66.0671  -38.1139  -20.5250 C.ar    1  UNL1        0.0202
     33 C         -64.6875  -38.3451  -20.4867 C.ar    1  UNL1        0.1946
     34 O         -64.0842  -37.3720  -19.8274 O.2     1  UNL1       -0.4492
     35 C         -65.0014  -36.5219  -19.4354 C.ar    1  UNL1        0.1452
     36 C         -64.8117  -35.3500  -18.7114 C.ar    1  UNL1        0.0375
     37 C         -65.9434  -34.5785  -18.3960 C.ar    1  UNL1        0.0031
     38 C         -67.2412  -34.9869  -18.8064 C.ar    1  UNL1        0.0002
     39 C         -67.3906  -36.1874  -19.5417 C.ar    1  UNL1        0.0028
     40 C         -66.2455  -36.9288  -19.8370 C.ar    1  UNL1        0.0337
     41 C         -68.4295  -34.1635  -18.4675 C.ar    1  UNL1        0.0000
     42 C         -69.7107  -34.5367  -18.9164 C.ar    1  UNL1        0.0000
     43 C         -70.8280  -33.7598  -18.5948 C.ar    1  UNL1        0.0000
     44 C         -70.6803  -32.6043  -17.8246 C.ar    1  UNL1        0.0000
     45 C         -69.4148  -32.2232  -17.3735 C.ar    1  UNL1        0.0000
     46 C         -68.2941  -32.9966  -17.6911 C.ar    1  UNL1        0.0000
@<TRIPOS>BOND
     1    31    32    1
     2    32    33   ar
     3    33    27    1
     4    27    28    2
     5    27    29   am
     6    29     1    1
     7     1     2   ar
     8     2     3   ar
     9     3     4   ar
    10     4     7    1
    11     7     8    1
    12     8     9    1
    13     9    10    1
    14    10    13    1
    15    13    14    1
    16    14    15    1
    17    15    16   ar
    18    16    17   ar
    19    17    23    1
    20    23    24    2
    21    23    25    1
    22    17    18   ar
    23    18    19   ar
    24    19    20   ar
    25    20    21    1
    26    10    11    1
    27    11    12    1
    28     4     5   ar
    29     5     6   ar
    30    33    34   ar
    31    34    35   ar
    32    35    36   ar
    33    36    37   ar
    34    37    38   ar
    35    38    41    1
    36    41    42   ar
    37    42    43   ar
    38    43    44   ar
    39    44    45   ar
    40    45    46   ar
    41    38    39   ar
    42    39    40   ar
    43    40    32   ar
    44     6     1   ar
    45    40    35   ar
    46    12     7    1
    47    46    41   ar
    48    20    15   ar
    49    29    30    1
    50    25    26    1
    51    21    22    1
@<TRIPOS>MOLECULE
*****
 46 51 0 0 0
SMALL
GASTEIGER

@<TRIPOS>ATOM
      1 C         -63.0242  -40.5857  -22.5145 C.ar    1  UNL1        0.0702
      2 C         -61.8410  -41.1407  -22.0023 C.ar    1  UNL1        0.0191
      3 C         -61.3285  -42.3206  -22.5441 C.ar    1  UNL1        0.0356
      4 C         -62.0168  -42.9609  -23.5866 C.ar    1  UNL1        0.1318
      5 N         -63.1660  -42.4061  -24.0631 N.ar    1  UNL1       -0.2279
      6 C         -63.6831  -41.2581  -23.5514 C.ar    1  UNL1        0.1149
      7 N         -61.5076  -44.1674  -24.1859 N.pl3   1  UNL1       -0.2932
      8 C         -60.5461  -44.1272  -25.2967 C.3     1  UNL1        0.0923
      9 C         -60.9989  -45.0448  -26.4453 C.3     1  UNL1        0.0252
     10 C         -61.7812  -46.2964  -25.9640 C.3     1  UNL1        0.0472
     11 C         -61.4575  -46.6350  -24.4956 C.3     1  UNL1        0.0252
     12 C         -61.8553  -45.4636  -23.5846 C.3     1  UNL1        0.0923
     13 C         -61.5069  -47.5003  -26.8861 C.3     1  UNL1        0.2055
     14 O         -62.7212  -48.0324  -27.4187 O.3     1  UNL1       -0.4724
     15 C         -63.4234  -47.5300  -28.5284 C.ar    1  UNL1        0.1721
     16 C         -63.4189  -46.1610  -28.8673 C.ar    1  UNL1        0.0465
     17 C         -64.1358  -45.6940  -29.9840 C.ar    1  UNL1        0.0787
     18 C         -64.8547  -46.6113  -30.7659 C.ar    1  UNL1        0.0097
     19 C         -64.8574  -47.9680  -30.4396 C.ar    1  UNL1        0.0400
     20 C         -64.1480  -48.4315  -29.3287 C.ar    1  UNL1        0.1677
     21 O         -64.1777  -49.7943  -29.0327 O.3     1  UNL1       -0.5029
     22 H         -63.6863  -50.1857  -28.2383 H       1  UNL1        0.2923
     23 C         -64.1355  -44.2559  -30.3351 C.2     1  UNL1        0.3381
     24 O         -64.6973  -43.8552  -31.3905 O.2     1  UNL1       -0.2451
     25 O         -63.5130  -43.3300  -29.5016 O.3     1  UNL1       -0.4771
     26 H         -63.5068  -42.3436  -29.7327 H       1  UNL1        0.2954
     27 C         -63.4980  -39.0035  -20.5863 C.2     1  UNL1        0.2839
     28 O         -62.6768  -39.5825  -19.8252 O.2     1  UNL1       -0.2665
     29 N         -63.5968  -39.3852  -21.9680 N.am    1  UNL1       -0.2766
     30 H         -64.0383  -38.7100  -22.6327 H       1  UNL1        0.1553
     31 C         -66.6900  -38.7651  -20.7512 C.3     1  UNL1        0.0345
     32 C         -65.7256  -37.7938  -20.1397 C.ar    1  UNL1        0.0202
     33 C         -64.3322  -37.9022  -20.0690 C.ar    1  UNL1        0.1946
     34 O         -63.8272  -36.8462  -19.4564 O.2     1  UNL1       -0.4492
     35 C         -64.8213  -36.0588  -19.1254 C.ar    1  UNL1        0.1452
     36 C         -64.7465  -34.8373  -18.4651 C.ar    1  UNL1        0.0375
     37 C         -65.9460  -34.1509  -18.2093 C.ar    1  UNL1        0.0031
     38 C         -67.1960  -34.6919  -18.6147 C.ar    1  UNL1        0.0002
     39 C         -67.2279  -35.9389  -19.2841 C.ar    1  UNL1        0.0028
     40 C         -66.0180  -36.5931  -19.5213 C.ar    1  UNL1        0.0337
     41 C         -68.4567  -33.9574  -18.3391 C.ar    1  UNL1        0.0000
     42 C         -68.4502  -32.8000  -17.5374 C.ar    1  UNL1        0.0000
     43 C         -69.6389  -32.1097  -17.2805 C.ar    1  UNL1        0.0000
     44 C         -70.8445  -32.5654  -17.8180 C.ar    1  UNL1        0.0000
     45 C         -70.8643  -33.7124  -18.6145 C.ar    1  UNL1        0.0000
     46 C         -69.6787  -34.4062  -18.8756 C.ar    1  UNL1        0.0000
@<TRIPOS>BOND
     1    31    32    1
     2    32    33   ar
     3    33    27    1
     4    27    28    2
     5    27    29   am
     6    29     1    1
     7     1     2   ar
     8     2     3   ar
     9     3     4   ar
    10     4     7    1
    11     7     8    1
    12     8     9    1
    13     9    10    1
    14    10    13    1
    15    13    14    1
    16    14    15    1
    17    15    16   ar
    18    16    17   ar
    19    17    23    1
    20    23    24    2
    21    23    25    1
    22    17    18   ar
    23    18    19   ar
    24    19    20   ar
    25    20    21    1
    26    10    11    1
    27    11    12    1
    28     4     5   ar
    29     5     6   ar
    30    33    34   ar
    31    34    35   ar
    32    35    36   ar
    33    36    37   ar
    34    37    38   ar
    35    38    41    1
    36    41    42   ar
    37    42    43   ar
    38    43    44   ar
    39    44    45   ar
    40    45    46   ar
    41    38    39   ar
    42    39    40   ar
    43    40    32   ar
    44     6     1   ar
    45    40    35   ar
    46    12     7    1
    47    46    41   ar
    48    20    15   ar
    49    29    30    1
    50    25    26    1
    51    21    22    1
@<TRIPOS>MOLECULE
*****
 46 51 0 0 0
SMALL
GASTEIGER

@<TRIPOS>ATOM
      1 C         -62.6423  -40.1717  -21.9713 C.ar    1  UNL1        0.0702
      2 C         -63.1677  -40.9450  -23.0184 C.ar    1  UNL1        0.0191
      3 C         -62.4705  -42.0614  -23.4831 C.ar    1  UNL1        0.0356
      4 C         -61.2303  -42.3906  -22.9138 C.ar    1  UNL1        0.1318
      5 N         -60.7384  -41.6218  -21.9027 N.ar    1  UNL1       -0.2279
      6 C         -61.3999  -40.5309  -21.4340 C.ar    1  UNL1        0.1149
      7 N         -60.4925  -43.5474  -23.3516 N.pl3   1  UNL1       -0.2932
      8 C         -60.7215  -44.1504  -24.6722 C.3     1  UNL1        0.0923
      9 C         -60.9148  -45.6718  -24.5524 C.3     1  UNL1        0.0252
     10 C         -60.1058  -46.3075  -23.3898 C.3     1  UNL1        0.0472
     11 C         -58.9050  -45.4279  -22.9899 C.3     1  UNL1        0.0252
     12 C         -59.3951  -44.0522  -22.5129 C.3     1  UNL1        0.0923
     13 C         -59.6530  -47.7345  -23.7554 C.3     1  UNL1        0.2055
     14 O         -60.5396  -48.3327  -24.7027 O.3     1  UNL1       -0.4724
     15 C         -61.4877  -49.3332  -24.4254 C.ar    1  UNL1        0.1721
     16 C         -61.1544  -50.5184  -23.7375 C.ar    1  UNL1        0.0465
     17 C         -62.1294  -51.4993  -23.4801 C.ar    1  UNL1        0.0787
     18 C         -63.4470  -51.2817  -23.9119 C.ar    1  UNL1        0.0097
     19 C         -63.7843  -50.1080  -24.5870 C.ar    1  UNL1        0.0400
     20 C         -62.8153  -49.1353  -24.8455 C.ar    1  UNL1        0.1677
     21 O         -63.1903  -47.9769  -25.5261 O.3     1  UNL1       -0.5029
     22 H         -62.5300  -47.2405  -25.7445 H       1  UNL1        0.2923
     23 C         -61.7771  -52.7458  -22.7635 C.2     1  UNL1        0.3381
     24 O         -60.5714  -53.0264  -22.5235 O.2     1  UNL1       -0.2451
     25 O         -62.7760  -53.6224  -22.3473 O.3     1  UNL1       -0.4771
     26 H         -62.5458  -54.4782  -21.8565 H       1  UNL1        0.2954
     27 C         -63.4369  -38.6650  -20.0887 C.2     1  UNL1        0.2839
     28 O         -62.7260  -39.2543  -19.2307 O.2     1  UNL1       -0.2665
     29 N         -63.3182  -39.0012  -21.4806 N.am    1  UNL1       -0.2766
     30 H         -63.6704  -38.3120  -22.1832 H       1  UNL1        0.1553
     31 C         -66.6238  -38.6407  -20.4289 C.3     1  UNL1        0.0345
     32 C         -65.7562  -37.5824  -19.8169 C.ar    1  UNL1        0.0202
     33 C         -64.3647  -37.5973  -19.6694 C.ar    1  UNL1        0.1946
     34 O         -63.9602  -36.4842  -19.0839 O.2     1  UNL1       -0.4492
     35 C         -65.0177  -35.7483  -18.8434 C.ar    1  UNL1        0.1452
     36 C         -65.0548  -34.4958  -18.2405 C.ar    1  UNL1        0.0375
     37 C         -66.3067  -33.8772  -18.0806 C.ar    1  UNL1        0.0031
     38 C         -67.4968  -34.5156  -18.5228 C.ar    1  UNL1        0.0002
     39 C         -67.4149  -35.7912  -19.1312 C.ar    1  UNL1        0.0028
     40 C         -66.1557  -36.3761  -19.2737 C.ar    1  UNL1        0.0337
     41 C         -68.8138  -33.8521  -18.3486 C.ar    1  UNL1        0.0000
     42 C         -68.9454  -32.7329  -17.5045 C.ar    1  UNL1        0.0000
     43 C         -70.1866  -32.1095  -17.3432 C.ar    1  UNL1        0.0000
     44 C         -71.3080  -32.5947  -18.0195 C.ar    1  UNL1        0.0000
     45 C         -71.1907  -33.7043  -18.8593 C.ar    1  UNL1        0.0000
     46 C         -69.9518  -34.3311  -19.0253 C.ar    1  UNL1        0.0000
@<TRIPOS>BOND
     1    31    32    1
     2    32    33   ar
     3    33    27    1
     4    27    28    2
     5    27    29   am
     6    29     1    1
     7     1     2   ar
     8     2     3   ar
     9     3     4   ar
    10     4     7    1
    11     7     8    1
    12     8     9    1
    13     9    10    1
    14    10    13    1
    15    13    14    1
    16    14    15    1
    17    15    16   ar
    18    16    17   ar
    19    17    23    1
    20    23    24    2
    21    23    25    1
    22    17    18   ar
    23    18    19   ar
    24    19    20   ar
    25    20    21    1
    26    10    11    1
    27    11    12    1
    28     4     5   ar
    29     5     6   ar
    30    33    34   ar
    31    34    35   ar
    32    35    36   ar
    33    36    37   ar
    34    37    38   ar
    35    38    41    1
    36    41    42   ar
    37    42    43   ar
    38    43    44   ar
    39    44    45   ar
    40    45    46   ar
    41    38    39   ar
    42    39    40   ar
    43    40    32   ar
    44     6     1   ar
    45    40    35   ar
    46    12     7    1
    47    46    41   ar
    48    20    15   ar
    49    29    30    1
    50    25    26    1
    51    21    22    1
@<TRIPOS>MOLECULE
*****
 46 51 0 0 0
SMALL
GASTEIGER

@<TRIPOS>ATOM
      1 C         -62.9725  -40.5632  -22.4897 C.ar    1  UNL1        0.0702
      2 C         -61.7383  -41.0552  -22.0367 C.ar    1  UNL1        0.0191
      3 C         -61.2160  -42.2348  -22.5696 C.ar    1  UNL1        0.0356
      4 C         -61.9439  -42.9380  -23.5423 C.ar    1  UNL1        0.1318
      5 N         -63.1418  -42.4437  -23.9618 N.ar    1  UNL1       -0.2279
      6 C         -63.6695  -41.2971  -23.4575 C.ar    1  UNL1        0.1149
      7 N         -61.4274  -44.1465  -24.1312 N.pl3   1  UNL1       -0.2932
      8 C         -61.5358  -44.4056  -25.5739 C.3     1  UNL1        0.0923
      9 C         -62.0983  -45.8131  -25.8359 C.3     1  UNL1        0.0252
     10 C         -61.6963  -46.8503  -24.7530 C.3     1  UNL1        0.0472
     11 C         -60.4216  -46.4178  -24.0019 C.3     1  UNL1        0.0252
     12 C         -60.6582  -45.0765  -23.2911 C.3     1  UNL1        0.0923
     13 C         -61.5283  -48.2509  -25.3733 C.3     1  UNL1        0.2055
     14 O         -60.6459  -49.0604  -24.5939 O.3     1  UNL1       -0.4724
     15 C         -60.9646  -50.2993  -24.0104 C.ar    1  UNL1        0.1721
     16 C         -62.2645  -50.8443  -24.0597 C.ar    1  UNL1        0.0465
     17 C         -62.5471  -52.0859  -23.4619 C.ar    1  UNL1        0.0787
     18 C         -61.5141  -52.7841  -22.8176 C.ar    1  UNL1        0.0097
     19 C         -60.2244  -52.2533  -22.7714 C.ar    1  UNL1        0.0400
     20 C         -59.9444  -51.0186  -23.3624 C.ar    1  UNL1        0.1677
     21 O         -58.6438  -50.5193  -23.2923 O.3     1  UNL1       -0.5029
     22 H         -58.3841  -49.6286  -23.6986 H       1  UNL1        0.2923
     23 C         -63.9133  -52.6540  -23.5087 C.2     1  UNL1        0.3381
     24 O         -64.7874  -52.1556  -24.2688 O.2     1  UNL1       -0.2451
     25 O         -64.2470  -53.7462  -22.7118 O.3     1  UNL1       -0.4771
     26 H         -65.1790  -54.1425  -22.7359 H       1  UNL1        0.2954
     27 C         -63.4721  -38.9830  -20.5663 C.2     1  UNL1        0.2839
     28 O         -62.6565  -39.5589  -19.7969 O.2     1  UNL1       -0.2665
     29 N         -63.5553  -39.3649  -21.9490 N.am    1  UNL1       -0.2766
     30 H         -63.9926  -38.6914  -22.6182 H       1  UNL1        0.1553
     31 C         -66.6650  -38.7674  -20.7446 C.3     1  UNL1        0.0345
     32 C         -65.7097  -37.7866  -20.1341 C.ar    1  UNL1        0.0202
     33 C         -64.3158  -37.8850  -20.0575 C.ar    1  UNL1        0.1946
     34 O         -63.8205  -36.8226  -19.4480 O.2     1  UNL1       -0.4492
     35 C         -64.8211  -36.0406  -19.1246 C.ar    1  UNL1        0.1452
     36 C         -64.7573  -34.8155  -18.4699 C.ar    1  UNL1        0.0375
     37 C         -65.9625  -34.1361  -18.2219 C.ar    1  UNL1        0.0031
     38 C         -67.2072  -34.6876  -18.6295 C.ar    1  UNL1        0.0002
     39 C         -67.2279  -35.9380  -19.2931 C.ar    1  UNL1        0.0028
     40 C         -66.0126  -36.5850  -19.5226 C.ar    1  UNL1        0.0337
     41 C         -68.4739  -33.9605  -18.3623 C.ar    1  UNL1        0.0000
     42 C         -69.6925  -34.4275  -18.8906 C.ar    1  UNL1        0.0000
     43 C         -70.8841  -33.7412  -18.6364 C.ar    1  UNL1        0.0000
     44 C         -70.8735  -32.5838  -17.8550 C.ar    1  UNL1        0.0000
     45 C         -69.6712  -32.1101  -17.3254 C.ar    1  UNL1        0.0000
     46 C         -68.4768  -32.7928  -17.5755 C.ar    1  UNL1        0.0000
@<TRIPOS>BOND
     1    31    32    1
     2    32    33   ar
     3    33    27    1
     4    27    28    2
     5    27    29   am
     6    29     1    1
     7     1     2   ar
     8     2     3   ar
     9     3     4   ar
    10     4     7    1
    11     7     8    1
    12     8     9    1
    13     9    10    1
    14    10    13    1
    15    13    14    1
    16    14    15    1
    17    15    16   ar
    18    16    17   ar
    19    17    23    1
    20    23    24    2
    21    23    25    1
    22    17    18   ar
    23    18    19   ar
    24    19    20   ar
    25    20    21    1
    26    10    11    1
    27    11    12    1
    28     4     5   ar
    29     5     6   ar
    30    33    34   ar
    31    34    35   ar
    32    35    36   ar
    33    36    37   ar
    34    37    38   ar
    35    38    41    1
    36    41    42   ar
    37    42    43   ar
    38    43    44   ar
    39    44    45   ar
    40    45    46   ar
    41    38    39   ar
    42    39    40   ar
    43    40    32   ar
    44     6     1   ar
    45    40    35   ar
    46    12     7    1
    47    46    41   ar
    48    20    15   ar
    49    29    30    1
    50    25    26    1
    51    21    22    1
