@<TRIPOS>MOLECULE
*****
 47 52 0 0 0
SMALL
GASTEIGER

@<TRIPOS>ATOM
      1 C         -25.7887   50.2092   -9.4688 C.ar    1  UNL1        0.0702
      2 C         -25.9616   48.8766   -9.0769 C.ar    1  UNL1        0.0191
      3 C         -27.0857   48.1607   -9.4912 C.ar    1  UNL1        0.0356
      4 C         -28.0508   48.7892  -10.2960 C.ar    1  UNL1        0.1318
      5 N         -27.8781   50.0976  -10.6352 N.ar    1  UNL1       -0.2279
      6 C         -26.7899   50.8130  -10.2461 C.ar    1  UNL1        0.1149
      7 N         -29.2310   48.0873  -10.7401 N.pl3   1  UNL1       -0.2932
      8 C         -29.8325   48.4441  -12.0333 C.3     1  UNL1        0.0923
      9 C         -31.3146   48.0601  -12.0670 C.3     1  UNL1        0.0253
     10 C         -31.5406   46.5495  -11.7989 C.3     1  UNL1        0.0495
     11 C         -30.4723   45.9458  -10.8306 C.3     1  UNL1        0.0528
     12 C         -29.8305   47.0173   -9.9261 C.3     1  UNL1        0.0947
     13 C         -31.0358   44.7825   -9.9881 C.3     1  UNL1        0.1389
     14 O         -30.1493   44.4248   -8.9588 O.3     1  UNL1       -0.3819
     15 H         -30.4933   44.8303   -8.1208 H       1  UNL1        0.2104
     16 C         -31.5838   45.7586  -13.1209 C.3     1  UNL1        0.2055
     17 O         -30.3533   45.9168  -13.8250 O.3     1  UNL1       -0.4755
     18 C         -30.2528   46.2525  -15.1830 C.ar    1  UNL1        0.1388
     19 C         -30.4806   45.3183  -16.2097 C.ar    1  UNL1        0.0369
     20 C         -30.3712   45.7052  -17.5466 C.ar    1  UNL1        0.0033
     21 C         -30.0300   47.0193  -17.8746 C.ar    1  UNL1        0.0066
     22 C         -29.7878   47.9652  -16.8626 C.ar    1  UNL1        0.0785
     23 C         -29.9124   47.5688  -15.5180 C.ar    1  UNL1        0.0433
     24 C         -29.4293   49.3665  -17.1916 C.2     1  UNL1        0.3381
     25 O         -29.0871   50.1565  -16.2717 O.2     1  UNL1       -0.2451
     26 O         -29.4439   49.8404  -18.5030 O.3     1  UNL1       -0.4771
     27 H         -29.6076   49.2381  -19.2992 H       1  UNL1        0.2954
     28 C         -23.5795   51.3914   -9.8768 C.2     1  UNL1        0.2839
     29 O         -23.4837   50.9437  -11.0511 O.2     1  UNL1       -0.2665
     30 N         -24.6372   50.9411   -9.0148 N.am    1  UNL1       -0.2766
     31 H         -24.5230   51.0795   -7.9850 H       1  UNL1        0.1553
     32 C         -23.5358   54.5605  -10.3550 C.3     1  UNL1        0.0345
     33 C         -22.5573   53.7345   -9.5755 C.ar    1  UNL1        0.0202
     34 C         -22.5795   52.3505   -9.3698 C.ar    1  UNL1        0.1946
     35 O         -21.5487   51.9871   -8.6276 O.2     1  UNL1       -0.4492
     36 C         -20.8586   53.0641   -8.3417 C.ar    1  UNL1        0.1452
     37 C         -19.6969   53.1449   -7.5820 C.ar    1  UNL1        0.0375
     38 C         -19.1161   54.4115   -7.3968 C.ar    1  UNL1        0.0031
     39 C         -19.7016   55.5724   -7.9706 C.ar    1  UNL1        0.0002
     40 C         -20.8844   55.4460   -8.7378 C.ar    1  UNL1        0.0028
     41 C         -21.4337   54.1734   -8.9014 C.ar    1  UNL1        0.0337
     42 C         -19.0790   56.9053   -7.7679 C.ar    1  UNL1        0.0000
     43 C         -19.3382   57.9600   -8.6638 C.ar    1  UNL1        0.0000
     44 C         -18.7507   59.2141   -8.4705 C.ar    1  UNL1        0.0000
     45 C         -17.9009   59.4300   -7.3835 C.ar    1  UNL1        0.0000
     46 C         -17.6363   58.3921   -6.4874 C.ar    1  UNL1        0.0000
     47 C         -18.2203   57.1357   -6.6762 C.ar    1  UNL1        0.0000
@<TRIPOS>BOND
     1    32    33    1
     2    33    34   ar
     3    34    28    1
     4    28    29    2
     5    28    30   am
     6    30     1    1
     7     1     2   ar
     8     2     3   ar
     9     3     4   ar
    10     4     7    1
    11     7     8    1
    12     8     9    1
    13     9    10    1
    14    10    16    1
    15    16    17    1
    16    17    18    1
    17    18    19   ar
    18    19    20   ar
    19    20    21   ar
    20    21    22   ar
    21    22    24    1
    22    24    25    2
    23    24    26    1
    24    22    23   ar
    25    10    11    1
    26    11    13    1
    27    13    14    1
    28    11    12    1
    29     4     5   ar
    30     5     6   ar
    31    34    35   ar
    32    35    36   ar
    33    36    37   ar
    34    37    38   ar
    35    38    39   ar
    36    39    42    1
    37    42    43   ar
    38    43    44   ar
    39    44    45   ar
    40    45    46   ar
    41    46    47   ar
    42    39    40   ar
    43    40    41   ar
    44    41    33   ar
    45     6     1   ar
    46    41    36   ar
    47    12     7    1
    48    47    42   ar
    49    23    18   ar
    50    30    31    1
    51    26    27    1
    52    14    15    1
@<TRIPOS>MOLECULE
*****
 47 52 0 0 0
SMALL
GASTEIGER

@<TRIPOS>ATOM
      1 C         -26.4161   50.6299   -6.7292 C.ar    1  UNL1        0.0702
      2 C         -26.8424   51.4242   -7.8000 C.ar    1  UNL1        0.0191
      3 C         -25.9150   51.9455   -8.7032 C.ar    1  UNL1        0.0356
      4 C         -24.5472   51.6779   -8.5254 C.ar    1  UNL1        0.1318
      5 N         -24.1534   50.9315   -7.4554 N.ar    1  UNL1       -0.2279
      6 C         -25.0390   50.4110   -6.5654 C.ar    1  UNL1        0.1149
      7 N         -23.5549   52.2035   -9.4319 N.pl3   1  UNL1       -0.2932
      8 C         -22.1327   52.1055   -9.0725 C.3     1  UNL1        0.0923
      9 C         -21.3142   53.1768   -9.7987 C.3     1  UNL1        0.0253
     10 C         -21.4578   53.0873  -11.3402 C.3     1  UNL1        0.0495
     11 C         -22.8654   52.5709  -11.7825 C.3     1  UNL1        0.0528
     12 C         -23.9444   52.8221  -10.7097 C.3     1  UNL1        0.0947
     13 C         -23.3007   53.1500  -13.1447 C.3     1  UNL1        0.1389
     14 O         -22.6043   54.3337  -13.4393 O.3     1  UNL1       -0.3819
     15 H         -21.8859   54.0995  -14.0828 H       1  UNL1        0.2104
     16 C         -20.3434   52.2110  -11.9445 C.3     1  UNL1        0.2055
     17 O         -19.0876   52.8803  -11.8446 O.3     1  UNL1       -0.4755
     18 C         -17.9690   52.3732  -11.1675 C.ar    1  UNL1        0.1388
     19 C         -16.7956   51.9814  -11.8372 C.ar    1  UNL1        0.0369
     20 C         -15.7084   51.4860  -11.1150 C.ar    1  UNL1        0.0033
     21 C         -15.7790   51.3705   -9.7249 C.ar    1  UNL1        0.0066
     22 C         -16.9471   51.7468   -9.0382 C.ar    1  UNL1        0.0785
     23 C         -18.0334   52.2564   -9.7736 C.ar    1  UNL1        0.0433
     24 C         -17.0388   51.6360   -7.5618 C.2     1  UNL1        0.3381
     25 O         -18.1108   51.9467   -6.9772 O.2     1  UNL1       -0.2451
     26 O         -15.9701   51.1795   -6.7912 O.3     1  UNL1       -0.4771
     27 H         -15.1186   50.8166   -7.1995 H       1  UNL1        0.2954
     28 C         -27.5614   48.7230   -5.5057 C.2     1  UNL1        0.2839
     29 O         -27.0476   47.8491   -6.2547 O.2     1  UNL1       -0.2665
     30 N         -27.3811   50.1191   -5.7933 N.am    1  UNL1       -0.2766
     31 H         -28.0468   50.7989   -5.3604 H       1  UNL1        0.1553
     32 C         -26.7779   48.9415   -2.4054 C.3     1  UNL1        0.0345
     33 C         -28.0473   48.4075   -2.9977 C.ar    1  UNL1        0.0202
     34 C         -28.3852   48.3131   -4.3524 C.ar    1  UNL1        0.1946
     35 O         -29.5915   47.7901   -4.4820 O.2     1  UNL1       -0.4492
     36 C         -30.0533   47.5398   -3.2812 C.ar    1  UNL1        0.1452
     37 C         -31.2857   46.9884   -2.9491 C.ar    1  UNL1        0.0375
     38 C         -31.5818   46.8062   -1.5872 C.ar    1  UNL1        0.0031
     39 C         -30.6470   47.1757   -0.5825 C.ar    1  UNL1        0.0002
     40 C         -29.4031   47.7335   -0.9637 C.ar    1  UNL1        0.0028
     41 C         -29.1422   47.8999   -2.3247 C.ar    1  UNL1        0.0337
     42 C         -30.9711   46.9787    0.8532 C.ar    1  UNL1        0.0000
     43 C         -31.2783   45.6970    1.3483 C.ar    1  UNL1        0.0000
     44 C         -31.5830   45.5143    2.7007 C.ar    1  UNL1        0.0000
     45 C         -31.5838   46.6053    3.5727 C.ar    1  UNL1        0.0000
     46 C         -31.2802   47.8816    3.0940 C.ar    1  UNL1        0.0000
     47 C         -30.9756   48.0703    1.7424 C.ar    1  UNL1        0.0000
@<TRIPOS>BOND
     1    32    33    1
     2    33    34   ar
     3    34    28    1
     4    28    29    2
     5    28    30   am
     6    30     1    1
     7     1     2   ar
     8     2     3   ar
     9     3     4   ar
    10     4     7    1
    11     7     8    1
    12     8     9    1
    13     9    10    1
    14    10    16    1
    15    16    17    1
    16    17    18    1
    17    18    19   ar
    18    19    20   ar
    19    20    21   ar
    20    21    22   ar
    21    22    24    1
    22    24    25    2
    23    24    26    1
    24    22    23   ar
    25    10    11    1
    26    11    13    1
    27    13    14    1
    28    11    12    1
    29     4     5   ar
    30     5     6   ar
    31    34    35   ar
    32    35    36   ar
    33    36    37   ar
    34    37    38   ar
    35    38    39   ar
    36    39    42    1
    37    42    43   ar
    38    43    44   ar
    39    44    45   ar
    40    45    46   ar
    41    46    47   ar
    42    39    40   ar
    43    40    41   ar
    44    41    33   ar
    45     6     1   ar
    46    41    36   ar
    47    12     7    1
    48    47    42   ar
    49    23    18   ar
    50    30    31    1
    51    26    27    1
    52    14    15    1
@<TRIPOS>MOLECULE
*****
 47 52 0 0 0
SMALL
GASTEIGER

@<TRIPOS>ATOM
      1 C         -24.7645   50.1238   -8.9420 C.ar    1  UNL1        0.0702
      2 C         -25.1804   49.1521   -8.0243 C.ar    1  UNL1        0.0191
      3 C         -26.2148   48.2733   -8.3491 C.ar    1  UNL1        0.0356
      4 C         -26.8456   48.3765   -9.6004 C.ar    1  UNL1        0.1318
      5 N         -26.4471   49.3532  -10.4630 N.ar    1  UNL1       -0.2279
      6 C         -25.4400   50.2174  -10.1691 C.ar    1  UNL1        0.1149
      7 N         -27.9239   47.4926   -9.9731 N.pl3   1  UNL1       -0.2932
      8 C         -27.8681   46.0820   -9.5629 C.3     1  UNL1        0.0923
      9 C         -28.7203   45.2124  -10.4917 C.3     1  UNL1        0.0253
     10 C         -30.2008   45.6717  -10.5387 C.3     1  UNL1        0.0495
     11 C         -30.3560   47.2158  -10.3516 C.3     1  UNL1        0.0528
     12 C         -29.0777   47.9841  -10.7439 C.3     1  UNL1        0.0947
     13 C         -31.5840   47.7762  -11.0990 C.3     1  UNL1        0.1389
     14 O         -31.4641   49.1602  -11.3070 O.3     1  UNL1       -0.3819
     15 H         -31.1795   49.2922  -12.2485 H       1  UNL1        0.2104
     16 C         -31.0440   44.9110   -9.4968 C.3     1  UNL1        0.2055
     17 O         -31.1770   45.6930   -8.3112 O.3     1  UNL1       -0.4755
     18 C         -30.6366   45.3441   -7.0649 C.ar    1  UNL1        0.1388
     19 C         -31.2679   44.4345   -6.1972 C.ar    1  UNL1        0.0369
     20 C         -30.6854   44.1183   -4.9685 C.ar    1  UNL1        0.0033
     21 C         -29.4763   44.7057   -4.5893 C.ar    1  UNL1        0.0066
     22 C         -28.8353   45.6255   -5.4381 C.ar    1  UNL1        0.0785
     23 C         -29.4239   45.9288   -6.6800 C.ar    1  UNL1        0.0433
     24 C         -27.5482   46.2557   -5.0548 C.2     1  UNL1        0.3381
     25 O         -26.5265   46.0749   -5.7696 O.2     1  UNL1       -0.2451
     26 O         -27.4336   47.0639   -3.9243 O.3     1  UNL1       -0.4771
     27 H         -28.2311   47.3354   -3.3643 H       1  UNL1        0.2954
     28 C         -22.8004   51.6220   -9.5271 C.2     1  UNL1        0.2839
     29 O         -22.7162   51.1623  -10.6977 O.2     1  UNL1       -0.2665
     30 N         -23.7132   51.0373   -8.5840 N.am    1  UNL1       -0.2766
     31 H         -23.5519   51.2201   -7.5676 H       1  UNL1        0.1553
     32 C         -23.1715   54.7245  -10.2415 C.3     1  UNL1        0.0345
     33 C         -22.0893   54.0935   -9.4182 C.ar    1  UNL1        0.0202
     34 C         -21.9303   52.7378   -9.1092 C.ar    1  UNL1        0.1946
     35 O         -20.8566   52.5682   -8.3584 O.2     1  UNL1       -0.4492
     36 C         -20.3104   53.7438   -8.1649 C.ar    1  UNL1        0.1452
     37 C         -19.1645   54.0315   -7.4319 C.ar    1  UNL1        0.0375
     38 C         -18.7520   55.3728   -7.3512 C.ar    1  UNL1        0.0031
     39 C         -19.4867   56.4014   -8.0007 C.ar    1  UNL1        0.0002
     40 C         -20.6478   56.0653   -8.7375 C.ar    1  UNL1        0.0028
     41 C         -21.0281   54.7237   -8.7967 C.ar    1  UNL1        0.0337
     42 C         -19.0413   57.8150   -7.9082 C.ar    1  UNL1        0.0000
     43 C         -18.3322   58.2696   -6.7801 C.ar    1  UNL1        0.0000
     44 C         -17.9139   59.6012   -6.6957 C.ar    1  UNL1        0.0000
     45 C         -18.1967   60.4920   -7.7335 C.ar    1  UNL1        0.0000
     46 C         -18.8989   60.0531   -8.8581 C.ar    1  UNL1        0.0000
     47 C         -19.3204   58.7229   -8.9475 C.ar    1  UNL1        0.0000
@<TRIPOS>BOND
     1    32    33    1
     2    33    34   ar
     3    34    28    1
     4    28    29    2
     5    28    30   am
     6    30     1    1
     7     1     2   ar
     8     2     3   ar
     9     3     4   ar
    10     4     7    1
    11     7     8    1
    12     8     9    1
    13     9    10    1
    14    10    16    1
    15    16    17    1
    16    17    18    1
    17    18    19   ar
    18    19    20   ar
    19    20    21   ar
    20    21    22   ar
    21    22    24    1
    22    24    25    2
    23    24    26    1
    24    22    23   ar
    25    10    11    1
    26    11    13    1
    27    13    14    1
    28    11    12    1
    29     4     5   ar
    30     5     6   ar
    31    34    35   ar
    32    35    36   ar
    33    36    37   ar
    34    37    38   ar
    35    38    39   ar
    36    39    42    1
    37    42    43   ar
    38    43    44   ar
    39    44    45   ar
    40    45    46   ar
    41    46    47   ar
    42    39    40   ar
    43    40    41   ar
    44    41    33   ar
    45     6     1   ar
    46    41    36   ar
    47    12     7    1
    48    47    42   ar
    49    23    18   ar
    50    30    31    1
    51    26    27    1
    52    14    15    1
@<TRIPOS>MOLECULE
*****
 47 52 0 0 0
SMALL
GASTEIGER

@<TRIPOS>ATOM
      1 C         -26.0492   51.1086  -10.4462 C.ar    1  UNL1        0.0702
      2 C         -26.9985   50.3714   -9.7288 C.ar    1  UNL1        0.0191
      3 C         -28.0997   49.8162  -10.3822 C.ar    1  UNL1        0.0356
      4 C         -28.2571   50.0111  -11.7647 C.ar    1  UNL1        0.1318
      5 N         -27.3387   50.7622  -12.4351 N.ar    1  UNL1       -0.2279
      6 C         -26.2572   51.3093  -11.8201 C.ar    1  UNL1        0.1149
      7 N         -29.3848   49.4605  -12.4773 N.pl3   1  UNL1       -0.2932
      8 C         -30.0292   50.2623  -13.5277 C.3     1  UNL1        0.0923
      9 C         -31.4772   49.8126  -13.7425 C.3     1  UNL1        0.0253
     10 C         -31.5814   48.3100  -14.1118 C.3     1  UNL1        0.0495
     11 C         -30.4567   47.4501  -13.4492 C.3     1  UNL1        0.0528
     12 C         -29.8885   48.1104  -12.1766 C.3     1  UNL1        0.0947
     13 C         -30.9168   46.0062  -13.1594 C.3     1  UNL1        0.1389
     14 O         -30.9429   45.7487  -11.7788 O.3     1  UNL1       -0.3819
     15 H         -31.8890   45.8125  -11.4859 H       1  UNL1        0.2104
     16 C         -31.5803   48.1201  -15.6412 C.3     1  UNL1        0.2055
     17 O         -30.6555   49.0232  -16.2447 O.3     1  UNL1       -0.4755
     18 C         -29.6220   48.6398  -17.1118 C.ar    1  UNL1        0.1388
     19 C         -29.7722   47.6057  -18.0536 C.ar    1  UNL1        0.0369
     20 C         -28.7125   47.2656  -18.8963 C.ar    1  UNL1        0.0033
     21 C         -27.4951   47.9444  -18.8074 C.ar    1  UNL1        0.0066
     22 C         -27.3217   48.9737  -17.8651 C.ar    1  UNL1        0.0785
     23 C         -28.3995   49.3176  -17.0282 C.ar    1  UNL1        0.0433
     24 C         -26.0378   49.7092  -17.7594 C.2     1  UNL1        0.3381
     25 O         -25.0392   49.3220  -18.4231 O.2     1  UNL1       -0.2451
     26 O         -25.9016   50.8378  -16.9518 O.3     1  UNL1       -0.4771
     27 H         -26.6844   51.2642  -16.4734 H       1  UNL1        0.2954
     28 C         -23.5898   51.7117  -10.2669 C.2     1  UNL1        0.2839
     29 O         -23.2741   50.9833  -11.2460 O.2     1  UNL1       -0.2665
     30 N         -24.9323   51.6943   -9.7553 N.am    1  UNL1       -0.2766
     31 H         -25.0926   52.0533   -8.7868 H       1  UNL1        0.1553
     32 C         -23.2878   54.8941  -10.5012 C.3     1  UNL1        0.0345
     33 C         -22.4341   53.9447   -9.7156 C.ar    1  UNL1        0.0202
     34 C         -22.5689   52.5553   -9.6167 C.ar    1  UNL1        0.1946
     35 O         -21.6281   52.0648   -8.8294 O.2     1  UNL1       -0.4492
     36 C         -20.8895   53.0643   -8.4131 C.ar    1  UNL1        0.1452
     37 C         -19.7890   53.0046   -7.5655 C.ar    1  UNL1        0.0375
     38 C         -19.1380   54.2079   -7.2431 C.ar    1  UNL1        0.0031
     39 C         -19.5938   55.4467   -7.7699 C.ar    1  UNL1        0.0002
     40 C         -20.7180   55.4632   -8.6300 C.ar    1  UNL1        0.0028
     41 C         -21.3398   54.2499   -8.9290 C.ar    1  UNL1        0.0337
     42 C         -18.8981   56.7116   -7.4221 C.ar    1  UNL1        0.0000
     43 C         -19.2305   57.9141   -8.0745 C.ar    1  UNL1        0.0000
     44 C         -18.5739   59.1038   -7.7450 C.ar    1  UNL1        0.0000
     45 C         -17.5812   59.1077   -6.7626 C.ar    1  UNL1        0.0000
     46 C         -17.2427   57.9216   -6.1077 C.ar    1  UNL1        0.0000
     47 C         -17.8955   56.7288   -6.4338 C.ar    1  UNL1        0.0000
@<TRIPOS>BOND
     1    32    33    1
     2    33    34   ar
     3    34    28    1
     4    28    29    2
     5    28    30   am
     6    30     1    1
     7     1     2   ar
     8     2     3   ar
     9     3     4   ar
    10     4     7    1
    11     7     8    1
    12     8     9    1
    13     9    10    1
    14    10    16    1
    15    16    17    1
    16    17    18    1
    17    18    19   ar
    18    19    20   ar
    19    20    21   ar
    20    21    22   ar
    21    22    24    1
    22    24    25    2
    23    24    26    1
    24    22    23   ar
    25    10    11    1
    26    11    13    1
    27    13    14    1
    28    11    12    1
    29     4     5   ar
    30     5     6   ar
    31    34    35   ar
    32    35    36   ar
    33    36    37   ar
    34    37    38   ar
    35    38    39   ar
    36    39    42    1
    37    42    43   ar
    38    43    44   ar
    39    44    45   ar
    40    45    46   ar
    41    46    47   ar
    42    39    40   ar
    43    40    41   ar
    44    41    33   ar
    45     6     1   ar
    46    41    36   ar
    47    12     7    1
    48    47    42   ar
    49    23    18   ar
    50    30    31    1
    51    26    27    1
    52    14    15    1
