@<TRIPOS>MOLECULE
*****
 41 45 0 0 0
SMALL
GASTEIGER

@<TRIPOS>ATOM
      1 C           6.1399   76.1554   22.1020 C.ar    1  UNL1        0.0450
      2 C           7.3004   76.3757   21.3466 C.ar    1  UNL1        0.0085
      3 C           8.4582   76.8604   21.9632 C.ar    1  UNL1        0.0052
      4 C           8.4547   77.1215   23.3392 C.ar    1  UNL1        0.0529
      5 C           7.2952   76.8978   24.1033 C.ar    1  UNL1        0.1407
      6 C           6.1386   76.4191   23.4790 C.ar    1  UNL1        0.0452
      7 O           7.2829   77.1671   25.4883 O.3     1  UNL1       -0.4770
      8 C           8.4439   77.5044   26.2791 C.3     1  UNL1        0.1673
      9 C           8.0915   78.7042   27.1660 C.3     1  UNL1        0.0498
     10 C           8.8077   76.2933   27.1461 C.3     1  UNL1        0.0498
     11 C           9.6144   77.8515   25.3888 C.ar    1  UNL1        0.0891
     12 N          10.8264   78.2881   25.7620 N.ar    1  UNL1       -0.3380
     13 C          11.5343   78.3489   24.6093 C.ar    1  UNL1        0.1417
     14 N          10.8239   77.9507   23.5243 N.ar    1  UNL1       -0.2271
     15 C           9.6214   77.6417   24.0448 C.ar    1  UNL1        0.1005
     16 H          11.1587   78.4891   26.7313 H       1  UNL1        0.1672
     17 C          12.9541   78.7769   24.5373 C.ar    1  UNL1        0.0531
     18 C          13.3307   80.0950   24.8975 C.ar    1  UNL1        0.0720
     19 C          14.6747   80.4840   24.8280 C.ar    1  UNL1        0.0104
     20 C          15.6493   79.5835   24.4013 C.ar    1  UNL1        0.0014
     21 C          15.2924   78.2863   24.0365 C.ar    1  UNL1        0.0104
     22 C          13.9550   77.8745   24.0987 C.ar    1  UNL1        0.0720
     23 C          12.3545   81.0845   25.2900 C.1     1  UNL1        0.1005
     24 N          11.5718   81.8769   25.6045 N.1     1  UNL1       -0.1908
     25 C          13.6444   76.5088   23.7453 C.1     1  UNL1        0.1005
     26 N          13.3952   75.4146   23.4625 N.1     1  UNL1       -0.1908
     27 C           3.9476   75.2466   20.9366 C.1     1  UNL1       -0.0598
     28 C           4.9491   75.6598   21.4651 C.1     1  UNL1       -0.0597
     29 C           0.3893   73.7186   19.1507 C.ar    1  UNL1        0.0347
     30 C           0.9687   73.1030   20.2727 C.ar    1  UNL1        0.0035
     31 C           2.1325   73.6160   20.8440 C.ar    1  UNL1        0.0083
     32 C           2.7445   74.7542   20.3094 C.ar    1  UNL1        0.0459
     33 C           2.1836   75.3949   19.1802 C.ar    1  UNL1        0.0791
     34 C           1.0065   74.8652   18.6127 C.ar    1  UNL1        0.0073
     35 C           2.8342   76.6304   18.5872 C.3     1  UNL1        0.4191
     36 F           2.8490   77.6439   19.5286 F       1  UNL1       -0.1658
     37 F           2.1141   77.0488   17.4826 F       1  UNL1       -0.1658
     38 F           4.1381   76.3895   18.1889 F       1  UNL1       -0.1658
     39 C          -2.0780   73.9915   18.3307 C.3     1  UNL1        0.0773
     40 C          -0.8538   73.1549   18.5555 C.2     1  UNL1        0.1735
     41 O          -0.8934   71.9381   18.2256 O.2     1  UNL1       -0.2913
@<TRIPOS>BOND
     1    39    40    1
     2    40    41    2
     3    40    29    1
     4    29    30   ar
     5    30    31   ar
     6    31    32   ar
     7    32    27    1
     8    27    28    3
     9    28     1    1
    10     1     2   ar
    11     2     3   ar
    12     3     4   ar
    13     4     5   ar
    14     5     6   ar
    15     5     7    1
    16     7     8    1
    17     8     9    1
    18     8    10    1
    19     8    11    1
    20    11    12   ar
    21    12    13   ar
    22    13    17    1
    23    17    18   ar
    24    18    23    1
    25    23    24    3
    26    18    19   ar
    27    19    20   ar
    28    20    21   ar
    29    21    22   ar
    30    22    25    1
    31    25    26    3
    32    13    14   ar
    33    14    15   ar
    34    32    33   ar
    35    33    35    1
    36    35    36    1
    37    35    37    1
    38    35    38    1
    39    33    34   ar
    40    34    29   ar
    41     6     1   ar
    42    15    11   ar
    43    15     4    1
    44    22    17   ar
    45    12    16    1
@<TRIPOS>MOLECULE
*****
 41 45 0 0 0
SMALL
GASTEIGER

@<TRIPOS>ATOM
      1 C           6.1378   76.1675   22.0993 C.ar    1  UNL1        0.0450
      2 C           7.2976   76.3888   21.3431 C.ar    1  UNL1        0.0085
      3 C           8.4552   76.8752   21.9586 C.ar    1  UNL1        0.0052
      4 C           8.4522   77.1372   23.3346 C.ar    1  UNL1        0.0529
      5 C           7.2934   76.9124   24.0995 C.ar    1  UNL1        0.1407
      6 C           6.1370   76.4320   23.4761 C.ar    1  UNL1        0.0452
      7 O           7.2816   77.1825   25.4843 O.3     1  UNL1       -0.4770
      8 C           8.4426   77.5217   26.2742 C.3     1  UNL1        0.1673
      9 C           8.0893   78.7216   27.1606 C.3     1  UNL1        0.0498
     10 C           8.8084   76.3116   27.1417 C.3     1  UNL1        0.0498
     11 C           9.6123   77.8697   25.3830 C.ar    1  UNL1        0.0891
     12 N          10.8239   78.3081   25.7552 N.ar    1  UNL1       -0.3380
     13 C          11.5310   78.3690   24.6021 C.ar    1  UNL1        0.1417
     14 N          10.8204   77.9694   23.5177 N.ar    1  UNL1       -0.2271
     15 C           9.6187   77.6592   24.0392 C.ar    1  UNL1        0.1005
     16 H          11.1566   78.5100   26.7243 H       1  UNL1        0.1672
     17 C          12.9503   78.7987   24.5289 C.ar    1  UNL1        0.0531
     18 C          13.9546   77.9026   24.0847 C.ar    1  UNL1        0.0720
     19 C          15.2893   78.3228   24.0175 C.ar    1  UNL1        0.0104
     20 C          15.6411   79.6192   24.3895 C.ar    1  UNL1        0.0014
     21 C          14.6651   80.5088   24.8357 C.ar    1  UNL1        0.0104
     22 C          13.3240   80.1114   24.9106 C.ar    1  UNL1        0.0720
     23 C          13.6539   76.5318   23.7433 C.1     1  UNL1        0.1005
     24 N          13.4123   75.4335   23.4695 N.1     1  UNL1       -0.1908
     25 C          12.3473   81.0835   25.3439 C.1     1  UNL1        0.1005
     26 N          11.5646   81.8620   25.6912 N.1     1  UNL1       -0.1908
     27 C           3.9458   75.2567   20.9348 C.1     1  UNL1       -0.0598
     28 C           4.9472   75.6700   21.4634 C.1     1  UNL1       -0.0597
     29 C           0.3876   73.7329   19.1452 C.ar    1  UNL1        0.0347
     30 C           0.9667   73.1150   20.2662 C.ar    1  UNL1        0.0035
     31 C           2.1305   73.6266   20.8387 C.ar    1  UNL1        0.0083
     32 C           2.7428   74.7658   20.3064 C.ar    1  UNL1        0.0459
     33 C           2.1822   75.4088   19.1784 C.ar    1  UNL1        0.0791
     34 C           1.0051   74.8805   18.6096 C.ar    1  UNL1        0.0073
     35 C           2.8331   76.6454   18.5880 C.3     1  UNL1        0.4191
     36 F           2.8377   77.6606   19.5277 F       1  UNL1       -0.1658
     37 F           2.1197   77.0595   17.4774 F       1  UNL1       -0.1658
     38 F           4.1406   76.4081   18.1996 F       1  UNL1       -0.1658
     39 C          -2.0820   74.0061   18.3321 C.3     1  UNL1        0.0773
     40 C          -0.8555   73.1706   18.5488 C.2     1  UNL1        0.1735
     41 O          -0.8932   71.9560   18.2106 O.2     1  UNL1       -0.2913
@<TRIPOS>BOND
     1    39    40    1
     2    40    41    2
     3    40    29    1
     4    29    30   ar
     5    30    31   ar
     6    31    32   ar
     7    32    27    1
     8    27    28    3
     9    28     1    1
    10     1     2   ar
    11     2     3   ar
    12     3     4   ar
    13     4     5   ar
    14     5     6   ar
    15     5     7    1
    16     7     8    1
    17     8     9    1
    18     8    10    1
    19     8    11    1
    20    11    12   ar
    21    12    13   ar
    22    13    17    1
    23    17    18   ar
    24    18    23    1
    25    23    24    3
    26    18    19   ar
    27    19    20   ar
    28    20    21   ar
    29    21    22   ar
    30    22    25    1
    31    25    26    3
    32    13    14   ar
    33    14    15   ar
    34    32    33   ar
    35    33    35    1
    36    35    36    1
    37    35    37    1
    38    35    38    1
    39    33    34   ar
    40    34    29   ar
    41     6     1   ar
    42    15    11   ar
    43    15     4    1
    44    22    17   ar
    45    12    16    1
@<TRIPOS>MOLECULE
*****
 41 45 0 0 0
SMALL
GASTEIGER

@<TRIPOS>ATOM
      1 C           6.4407   75.7920   21.4822 C.ar    1  UNL1        0.0450
      2 C           6.6753   77.1217   21.8601 C.ar    1  UNL1        0.0085
      3 C           7.9275   77.5011   22.3538 C.ar    1  UNL1        0.0052
      4 C           8.9474   76.5477   22.4658 C.ar    1  UNL1        0.0529
      5 C           8.7198   75.2134   22.0836 C.ar    1  UNL1        0.1407
      6 C           7.4629   74.8394   21.5969 C.ar    1  UNL1        0.0452
      7 O           9.7407   74.2466   22.2023 O.3     1  UNL1       -0.4770
      8 C          11.1185   74.5299   22.5314 C.3     1  UNL1        0.1673
      9 C          11.5734   73.5325   23.6030 C.3     1  UNL1        0.0498
     10 C          11.9630   74.3659   21.2622 C.3     1  UNL1        0.0498
     11 C          11.2647   75.9416   23.0501 C.ar    1  UNL1        0.0891
     12 N          12.3727   76.5291   23.5257 N.ar    1  UNL1       -0.3380
     13 C          12.0036   77.8111   23.7569 C.ar    1  UNL1        0.1417
     14 N          10.7113   78.0626   23.4294 N.ar    1  UNL1       -0.2271
     15 C          10.2724   76.8698   22.9857 C.ar    1  UNL1        0.1005
     16 H          13.3178   76.1013   23.6442 H       1  UNL1        0.1672
     17 C          12.9236   78.8496   24.2856 C.ar    1  UNL1        0.0531
     18 C          12.4292   80.1150   24.6899 C.ar    1  UNL1        0.0720
     19 C          13.3084   81.0841   25.1901 C.ar    1  UNL1        0.0104
     20 C          14.6725   80.8157   25.2902 C.ar    1  UNL1        0.0014
     21 C          15.1739   79.5784   24.8890 C.ar    1  UNL1        0.0104
     22 C          14.3138   78.5936   24.3865 C.ar    1  UNL1        0.0720
     23 C          11.0348   80.4659   24.5529 C.1     1  UNL1        0.1005
     24 N           9.9176   80.7469   24.4425 N.1     1  UNL1       -0.1908
     25 C          14.8794   77.3159   24.0202 C.1     1  UNL1        0.1005
     26 N          15.3325   76.2924   23.7262 N.1     1  UNL1       -0.1908
     27 C           4.0681   75.0841   20.5548 C.1     1  UNL1       -0.0598
     28 C           5.1508   75.4034   20.9776 C.1     1  UNL1       -0.0597
     29 C           0.2297   73.8996   19.1234 C.ar    1  UNL1        0.0347
     30 C           0.8797   73.1925   20.1486 C.ar    1  UNL1        0.0035
     31 C           2.1347   73.5937   20.6046 C.ar    1  UNL1        0.0083
     32 C           2.7696   74.7089   20.0486 C.ar    1  UNL1        0.0459
     33 C           2.1390   75.4400   19.0151 C.ar    1  UNL1        0.0791
     34 C           0.8700   75.0230   18.5638 C.ar    1  UNL1        0.0073
     35 C           2.8132   76.6522   18.4006 C.3     1  UNL1        0.4191
     36 F           2.9739   77.6317   19.3641 F       1  UNL1       -0.1658
     37 F           2.0283   77.1495   17.3757 F       1  UNL1       -0.1658
     38 F           4.0598   76.3453   17.8822 F       1  UNL1       -0.1658
     39 C          -2.3013   74.3662   18.6638 C.3     1  UNL1        0.0773
     40 C          -1.1104   73.4546   18.6507 C.2     1  UNL1        0.1735
     41 O          -1.2641   72.2778   18.2235 O.2     1  UNL1       -0.2913
@<TRIPOS>BOND
     1    39    40    1
     2    40    41    2
     3    40    29    1
     4    29    30   ar
     5    30    31   ar
     6    31    32   ar
     7    32    27    1
     8    27    28    3
     9    28     1    1
    10     1     2   ar
    11     2     3   ar
    12     3     4   ar
    13     4     5   ar
    14     5     6   ar
    15     5     7    1
    16     7     8    1
    17     8     9    1
    18     8    10    1
    19     8    11    1
    20    11    12   ar
    21    12    13   ar
    22    13    17    1
    23    17    18   ar
    24    18    23    1
    25    23    24    3
    26    18    19   ar
    27    19    20   ar
    28    20    21   ar
    29    21    22   ar
    30    22    25    1
    31    25    26    3
    32    13    14   ar
    33    14    15   ar
    34    32    33   ar
    35    33    35    1
    36    35    36    1
    37    35    37    1
    38    35    38    1
    39    33    34   ar
    40    34    29   ar
    41     6     1   ar
    42    15    11   ar
    43    15     4    1
    44    22    17   ar
    45    12    16    1
@<TRIPOS>MOLECULE
*****
 41 45 0 0 0
SMALL
GASTEIGER

@<TRIPOS>ATOM
      1 C           6.4437   75.7923   21.4927 C.ar    1  UNL1        0.0450
      2 C           6.6801   77.1210   21.8729 C.ar    1  UNL1        0.0085
      3 C           7.9342   77.4988   22.3630 C.ar    1  UNL1        0.0052
      4 C           8.9542   76.5448   22.4692 C.ar    1  UNL1        0.0529
      5 C           8.7247   75.2114   22.0847 C.ar    1  UNL1        0.1407
      6 C           7.4660   74.8391   21.6015 C.ar    1  UNL1        0.0452
      7 O           9.7457   74.2440   22.1975 O.3     1  UNL1       -0.4770
      8 C          11.1248   74.5260   22.5224 C.3     1  UNL1        0.1673
      9 C          11.5831   73.5260   23.5902 C.3     1  UNL1        0.0498
     10 C          11.9647   74.3647   21.2500 C.3     1  UNL1        0.0498
     11 C          11.2733   75.9365   23.0439 C.ar    1  UNL1        0.0891
     12 N          12.3831   76.5225   23.5170 N.ar    1  UNL1       -0.3380
     13 C          12.0153   77.8041   23.7525 C.ar    1  UNL1        0.1417
     14 N          10.7220   78.0568   23.4302 N.ar    1  UNL1       -0.2271
     15 C          10.2811   76.8652   22.9853 C.ar    1  UNL1        0.1005
     16 H          13.3285   76.0940   23.6312 H       1  UNL1        0.1672
     17 C          12.9376   78.8410   24.2804 C.ar    1  UNL1        0.0531
     18 C          14.3296   78.5904   24.3730 C.ar    1  UNL1        0.0720
     19 C          15.1885   79.5794   24.8698 C.ar    1  UNL1        0.0104
     20 C          14.6836   80.8121   25.2800 C.ar    1  UNL1        0.0014
     21 C          13.3159   81.0697   25.2019 C.ar    1  UNL1        0.0104
     22 C          12.4379   80.0964   24.7078 C.ar    1  UNL1        0.0720
     23 C          14.8974   77.3110   24.0170 C.1     1  UNL1        0.1005
     24 N          15.3529   76.2861   23.7314 N.1     1  UNL1       -0.1908
     25 C          11.0351   80.4279   24.6129 C.1     1  UNL1        0.1005
     26 N           9.9114   80.6936   24.5364 N.1     1  UNL1       -0.1908
     27 C           4.0693   75.0866   20.5683 C.1     1  UNL1       -0.0598
     28 C           5.1519   75.4053   20.9917 C.1     1  UNL1       -0.0597
     29 C           0.2364   73.9013   19.1226 C.ar    1  UNL1        0.0347
     30 C           0.8805   73.1974   20.1538 C.ar    1  UNL1        0.0035
     31 C           2.1338   73.5988   20.6143 C.ar    1  UNL1        0.0083
     32 C           2.7728   74.7110   20.0571 C.ar    1  UNL1        0.0459
     33 C           2.1483   75.4389   19.0177 C.ar    1  UNL1        0.0791
     34 C           0.8809   75.0217   18.5618 C.ar    1  UNL1        0.0073
     35 C           2.8270   76.6478   18.4018 C.3     1  UNL1        0.4191
     36 F           2.9854   77.6303   19.3625 F       1  UNL1       -0.1658
     37 F           2.0472   77.1428   17.3720 F       1  UNL1       -0.1658
     38 F           4.0752   76.3370   17.8896 F       1  UNL1       -0.1658
     39 C          -2.2985   74.3598   18.6770 C.3     1  UNL1        0.0773
     40 C          -1.1019   73.4563   18.6451 C.2     1  UNL1        0.1735
     41 O          -1.2491   72.2862   18.1976 O.2     1  UNL1       -0.2913
@<TRIPOS>BOND
     1    39    40    1
     2    40    41    2
     3    40    29    1
     4    29    30   ar
     5    30    31   ar
     6    31    32   ar
     7    32    27    1
     8    27    28    3
     9    28     1    1
    10     1     2   ar
    11     2     3   ar
    12     3     4   ar
    13     4     5   ar
    14     5     6   ar
    15     5     7    1
    16     7     8    1
    17     8     9    1
    18     8    10    1
    19     8    11    1
    20    11    12   ar
    21    12    13   ar
    22    13    17    1
    23    17    18   ar
    24    18    23    1
    25    23    24    3
    26    18    19   ar
    27    19    20   ar
    28    20    21   ar
    29    21    22   ar
    30    22    25    1
    31    25    26    3
    32    13    14   ar
    33    14    15   ar
    34    32    33   ar
    35    33    35    1
    36    35    36    1
    37    35    37    1
    38    35    38    1
    39    33    34   ar
    40    34    29   ar
    41     6     1   ar
    42    15    11   ar
    43    15     4    1
    44    22    17   ar
    45    12    16    1
@<TRIPOS>MOLECULE
*****
 41 45 0 0 0
SMALL
GASTEIGER

@<TRIPOS>ATOM
      1 C          11.8363   82.0248   24.8677 C.ar    1  UNL1        0.0450
      2 C          11.3945   81.6463   26.1434 C.ar    1  UNL1        0.0085
      3 C          10.5557   80.5379   26.2960 C.ar    1  UNL1        0.0052
      4 C          10.1616   79.8051   25.1693 C.ar    1  UNL1        0.0529
      5 C          10.6055   80.1767   23.8874 C.ar    1  UNL1        0.1407
      6 C          11.4390   81.2905   23.7413 C.ar    1  UNL1        0.0452
      7 O          10.2050   79.4477   22.7477 O.3     1  UNL1       -0.4770
      8 C           9.4881   78.1937   22.7736 C.3     1  UNL1        0.1673
      9 C           8.3397   78.2735   21.7611 C.3     1  UNL1        0.0498
     10 C          10.4594   77.0726   22.3858 C.3     1  UNL1        0.0498
     11 C           8.9364   77.9219   24.1538 C.ar    1  UNL1        0.0891
     12 N           8.1547   76.9018   24.5375 N.ar    1  UNL1       -0.3380
     13 C           8.0287   77.0567   25.8767 C.ar    1  UNL1        0.1417
     14 N           8.7143   78.1238   26.3581 N.ar    1  UNL1       -0.2271
     15 C           9.2770   78.6474   25.2529 C.ar    1  UNL1        0.1005
     16 H           7.7713   76.1357   23.9404 H       1  UNL1        0.1672
     17 C           7.2466   76.1374   26.7413 C.ar    1  UNL1        0.0531
     18 C           5.8545   75.9642   26.5388 C.ar    1  UNL1        0.0720
     19 C           5.1298   75.0907   27.3601 C.ar    1  UNL1        0.0104
     20 C           5.7676   74.3904   28.3825 C.ar    1  UNL1        0.0014
     21 C           7.1347   74.5568   28.5983 C.ar    1  UNL1        0.0104
     22 C           7.8800   75.4241   27.7893 C.ar    1  UNL1        0.0720
     23 C           5.1338   76.7087   25.5326 C.1     1  UNL1        0.1005
     24 N           4.5559   77.3049   24.7264 N.1     1  UNL1       -0.1908
     25 C           9.3001   75.5316   28.0313 C.1     1  UNL1        0.1005
     26 N          10.4379   75.6173   28.2249 N.1     1  UNL1       -0.1908
     27 C          13.4162   84.1263   24.5893 C.1     1  UNL1       -0.0598
     28 C          12.6966   83.1672   24.7128 C.1     1  UNL1       -0.0597
     29 C          15.9344   87.5526   24.2653 C.ar    1  UNL1        0.0347
     30 C          15.2043   87.2878   25.4360 C.ar    1  UNL1        0.0035
     31 C          14.3856   86.1628   25.5247 C.ar    1  UNL1        0.0083
     32 C          14.2766   85.2766   24.4483 C.ar    1  UNL1        0.0459
     33 C          15.0000   85.5177   23.2572 C.ar    1  UNL1        0.0791
     34 C          15.8241   86.6593   23.1813 C.ar    1  UNL1        0.0073
     35 C          14.8937   84.5669   22.0798 C.3     1  UNL1        0.4191
     36 F          15.6360   83.4279   22.3350 F       1  UNL1       -0.1658
     37 F          15.3842   85.1816   20.9417 F       1  UNL1       -0.1658
     38 F          13.5849   84.1862   21.8371 F       1  UNL1       -0.1658
     39 C          17.7532   89.1249   25.2923 C.3     1  UNL1        0.0773
     40 C          16.8031   88.7597   24.1908 C.2     1  UNL1        0.1735
     41 O          16.7492   89.5076   23.1765 O.2     1  UNL1       -0.2913
@<TRIPOS>BOND
     1    39    40    1
     2    40    41    2
     3    40    29    1
     4    29    30   ar
     5    30    31   ar
     6    31    32   ar
     7    32    27    1
     8    27    28    3
     9    28     1    1
    10     1     2   ar
    11     2     3   ar
    12     3     4   ar
    13     4     5   ar
    14     5     6   ar
    15     5     7    1
    16     7     8    1
    17     8     9    1
    18     8    10    1
    19     8    11    1
    20    11    12   ar
    21    12    13   ar
    22    13    17    1
    23    17    18   ar
    24    18    23    1
    25    23    24    3
    26    18    19   ar
    27    19    20   ar
    28    20    21   ar
    29    21    22   ar
    30    22    25    1
    31    25    26    3
    32    13    14   ar
    33    14    15   ar
    34    32    33   ar
    35    33    35    1
    36    35    36    1
    37    35    37    1
    38    35    38    1
    39    33    34   ar
    40    34    29   ar
    41     6     1   ar
    42    15    11   ar
    43    15     4    1
    44    22    17   ar
    45    12    16    1
@<TRIPOS>MOLECULE
*****
 41 45 0 0 0
SMALL
GASTEIGER

@<TRIPOS>ATOM
      1 C          11.8370   82.0317   24.8608 C.ar    1  UNL1        0.0450
      2 C          11.3871   81.6596   26.1355 C.ar    1  UNL1        0.0085
      3 C          10.5452   80.5535   26.2879 C.ar    1  UNL1        0.0052
      4 C          10.1561   79.8168   25.1620 C.ar    1  UNL1        0.0529
      5 C          10.6082   80.1820   23.8812 C.ar    1  UNL1        0.1407
      6 C          11.4448   81.2935   23.7353 C.ar    1  UNL1        0.0452
      7 O          10.2128   79.4490   22.7422 O.3     1  UNL1       -0.4770
      8 C           9.4933   78.1965   22.7693 C.3     1  UNL1        0.1673
      9 C           8.3510   78.2743   21.7498 C.3     1  UNL1        0.0498
     10 C          10.4646   77.0719   22.3919 C.3     1  UNL1        0.0498
     11 C           8.9331   77.9317   24.1474 C.ar    1  UNL1        0.0891
     12 N           8.1471   76.9148   24.5309 N.ar    1  UNL1       -0.3380
     13 C           8.0137   77.0756   25.8686 C.ar    1  UNL1        0.1417
     14 N           8.6986   78.1434   26.3495 N.ar    1  UNL1       -0.2271
     15 C           9.2688   78.6611   25.2454 C.ar    1  UNL1        0.1005
     16 H           7.7656   76.1469   23.9349 H       1  UNL1        0.1672
     17 C           7.2247   76.1615   26.7326 C.ar    1  UNL1        0.0531
     18 C           7.8456   75.4530   27.7917 C.ar    1  UNL1        0.0720
     19 C           7.0881   74.5965   28.6011 C.ar    1  UNL1        0.0104
     20 C           5.7235   74.4304   28.3705 C.ar    1  UNL1        0.0014
     21 C           5.1012   75.1149   27.3277 C.ar    1  UNL1        0.0104
     22 C           5.8380   75.9772   26.5058 C.ar    1  UNL1        0.0720
     23 C           9.2660   75.5433   28.0374 C.1     1  UNL1        0.1005
     24 N          10.4041   75.6158   28.2349 N.1     1  UNL1       -0.1908
     25 C           5.1374   76.6907   25.4633 C.1     1  UNL1        0.1005
     26 N           4.5758   77.2620   24.6282 N.1     1  UNL1       -0.1908
     27 C          13.4211   84.1301   24.5816 C.1     1  UNL1       -0.0598
     28 C          12.7005   83.1718   24.7060 C.1     1  UNL1       -0.0597
     29 C          15.9376   87.5570   24.2510 C.ar    1  UNL1        0.0347
     30 C          15.2153   87.2888   25.4257 C.ar    1  UNL1        0.0035
     31 C          14.3971   86.1636   25.5166 C.ar    1  UNL1        0.0083
     32 C          14.2807   85.2807   24.4383 C.ar    1  UNL1        0.0459
     33 C          14.9961   85.5252   23.2430 C.ar    1  UNL1        0.0791
     34 C          15.8198   86.6670   23.1651 C.ar    1  UNL1        0.0073
     35 C          14.8816   84.5781   22.0635 C.3     1  UNL1        0.4191
     36 F          15.6254   83.4382   22.3103 F       1  UNL1       -0.1658
     37 F          15.3645   85.1961   20.9240 F       1  UNL1       -0.1658
     38 F          13.5711   84.1983   21.8285 F       1  UNL1       -0.1658
     39 C          17.7519   89.1347   25.2775 C.3     1  UNL1        0.0773
     40 C          16.8059   88.7642   24.1743 C.2     1  UNL1        0.1735
     41 O          16.7553   89.5076   23.1565 O.2     1  UNL1       -0.2913
@<TRIPOS>BOND
     1    39    40    1
     2    40    41    2
     3    40    29    1
     4    29    30   ar
     5    30    31   ar
     6    31    32   ar
     7    32    27    1
     8    27    28    3
     9    28     1    1
    10     1     2   ar
    11     2     3   ar
    12     3     4   ar
    13     4     5   ar
    14     5     6   ar
    15     5     7    1
    16     7     8    1
    17     8     9    1
    18     8    10    1
    19     8    11    1
    20    11    12   ar
    21    12    13   ar
    22    13    17    1
    23    17    18   ar
    24    18    23    1
    25    23    24    3
    26    18    19   ar
    27    19    20   ar
    28    20    21   ar
    29    21    22   ar
    30    22    25    1
    31    25    26    3
    32    13    14   ar
    33    14    15   ar
    34    32    33   ar
    35    33    35    1
    36    35    36    1
    37    35    37    1
    38    35    38    1
    39    33    34   ar
    40    34    29   ar
    41     6     1   ar
    42    15    11   ar
    43    15     4    1
    44    22    17   ar
    45    12    16    1
@<TRIPOS>MOLECULE
*****
 41 45 0 0 0
SMALL
GASTEIGER

@<TRIPOS>ATOM
      1 C          11.9431   81.9523   24.8384 C.ar    1  UNL1        0.0450
      2 C          11.6208   81.2519   23.6674 C.ar    1  UNL1        0.0085
      3 C          10.8386   80.0946   23.7340 C.ar    1  UNL1        0.0052
      4 C          10.3754   79.6402   24.9753 C.ar    1  UNL1        0.0529
      5 C          10.6911   80.3413   26.1530 C.ar    1  UNL1        0.1407
      6 C          11.4795   81.4944   26.0798 C.ar    1  UNL1        0.0452
      7 O          10.2347   79.8837   27.4073 O.3     1  UNL1       -0.4770
      8 C           9.2866   78.8118   27.6054 C.3     1  UNL1        0.1673
      9 C           9.8248   77.8889   28.7049 C.3     1  UNL1        0.0498
     10 C           7.9477   79.4229   28.0349 C.3     1  UNL1        0.0498
     11 C           9.0916   78.0279   26.3284 C.ar    1  UNL1        0.0891
     12 N           8.3538   76.9221   26.1504 N.ar    1  UNL1       -0.3380
     13 C           8.4247   76.6781   24.8204 C.ar    1  UNL1        0.1417
     14 N           9.1631   77.5958   24.1473 N.ar    1  UNL1       -0.2271
     15 C           9.5677   78.4334   25.1204 C.ar    1  UNL1        0.1005
     16 H           7.8098   76.3983   26.8716 H       1  UNL1        0.1672
     17 C           7.7403   75.5410   24.1549 C.ar    1  UNL1        0.0531
     18 C           6.3258   75.4957   24.0750 C.ar    1  UNL1        0.0720
     19 C           5.6936   74.4183   23.4409 C.ar    1  UNL1        0.0104
     20 C           6.4463   73.3831   22.8892 C.ar    1  UNL1        0.0014
     21 C           7.8378   73.4105   22.9672 C.ar    1  UNL1        0.0104
     22 C           8.4920   74.4778   23.5956 C.ar    1  UNL1        0.0720
     23 C           5.4969   76.5116   24.6806 C.1     1  UNL1        0.1005
     24 N           4.8327   77.3255   25.1664 N.1     1  UNL1       -0.1908
     25 C           9.9364   74.4760   23.6161 C.1     1  UNL1        0.1005
     26 N          11.0936   74.4747   23.6321 N.1     1  UNL1       -0.1908
     27 C          13.4283   84.1362   24.7152 C.1     1  UNL1       -0.0598
     28 C          12.7505   83.1408   24.7678 C.1     1  UNL1       -0.0597
     29 C          15.8067   87.6751   24.6449 C.ar    1  UNL1        0.0347
     30 C          15.1075   87.2849   25.7992 C.ar    1  UNL1        0.0035
     31 C          14.3343   86.1247   25.8046 C.ar    1  UNL1        0.0083
     32 C          14.2412   85.3275   24.6593 C.ar    1  UNL1        0.0459
     33 C          14.9343   85.6956   23.4827 C.ar    1  UNL1        0.0791
     34 C          15.7124   86.8714   23.4915 C.ar    1  UNL1        0.0073
     35 C          14.8445   84.8426   22.2313 C.3     1  UNL1        0.4191
     36 F          15.5580   85.4424   21.2092 F       1  UNL1       -0.1658
     37 F          13.5211   84.7195   21.8481 F       1  UNL1       -0.1658
     38 F          15.3580   83.5726   22.4313 F       1  UNL1       -0.1658
     39 C          17.1604   89.5032   25.9334 C.3     1  UNL1        0.0773
     40 C          16.6269   88.9178   24.6599 C.2     1  UNL1        0.1735
     41 O          16.8890   89.5075   23.5761 O.2     1  UNL1       -0.2913
@<TRIPOS>BOND
     1    39    40    1
     2    40    41    2
     3    40    29    1
     4    29    30   ar
     5    30    31   ar
     6    31    32   ar
     7    32    27    1
     8    27    28    3
     9    28     1    1
    10     1     2   ar
    11     2     3   ar
    12     3     4   ar
    13     4     5   ar
    14     5     6   ar
    15     5     7    1
    16     7     8    1
    17     8     9    1
    18     8    10    1
    19     8    11    1
    20    11    12   ar
    21    12    13   ar
    22    13    17    1
    23    17    18   ar
    24    18    23    1
    25    23    24    3
    26    18    19   ar
    27    19    20   ar
    28    20    21   ar
    29    21    22   ar
    30    22    25    1
    31    25    26    3
    32    13    14   ar
    33    14    15   ar
    34    32    33   ar
    35    33    35    1
    36    35    36    1
    37    35    37    1
    38    35    38    1
    39    33    34   ar
    40    34    29   ar
    41     6     1   ar
    42    15    11   ar
    43    15     4    1
    44    22    17   ar
    45    12    16    1
@<TRIPOS>MOLECULE
*****
 41 45 0 0 0
SMALL
GASTEIGER

@<TRIPOS>ATOM
      1 C          11.9205   81.9310   24.9257 C.ar    1  UNL1        0.0450
      2 C          11.6187   81.2369   23.7454 C.ar    1  UNL1        0.0085
      3 C          10.8358   80.0791   23.7921 C.ar    1  UNL1        0.0052
      4 C          10.3514   79.6178   25.0227 C.ar    1  UNL1        0.0529
      5 C          10.6465   80.3124   26.2096 C.ar    1  UNL1        0.1407
      6 C          11.4357   81.4661   26.1563 C.ar    1  UNL1        0.0452
      7 O          10.1686   79.8478   27.4532 O.3     1  UNL1       -0.4770
      8 C           9.2176   78.7746   27.6291 C.3     1  UNL1        0.1673
      9 C           9.7370   77.8458   28.7326 C.3     1  UNL1        0.0498
     10 C           7.8713   79.3831   28.0387 C.3     1  UNL1        0.0498
     11 C           9.0449   77.9978   26.3445 C.ar    1  UNL1        0.0891
     12 N           8.3106   76.8928   26.1477 N.ar    1  UNL1       -0.3380
     13 C           8.4046   76.6562   24.8179 C.ar    1  UNL1        0.1417
     14 N           9.1542   77.5777   24.1627 N.ar    1  UNL1       -0.2271
     15 C           9.5417   78.4100   25.1472 C.ar    1  UNL1        0.1005
     16 H           7.7544   76.3649   26.8565 H       1  UNL1        0.1672
     17 C           7.7320   75.5227   24.1343 C.ar    1  UNL1        0.0531
     18 C           8.4914   74.4818   23.5435 C.ar    1  UNL1        0.0720
     19 C           7.8433   73.4166   22.9049 C.ar    1  UNL1        0.0104
     20 C           6.4516   73.3731   22.8409 C.ar    1  UNL1        0.0014
     21 C           5.6922   74.3937   23.4107 C.ar    1  UNL1        0.0104
     22 C           6.3181   75.4684   24.0552 C.ar    1  UNL1        0.0720
     23 C           9.9355   74.5073   23.5300 C.1     1  UNL1        0.1005
     24 N          11.0926   74.5279   23.5197 N.1     1  UNL1       -0.1908
     25 C           5.4840   76.4801   24.6614 C.1     1  UNL1        0.1005
     26 N           4.8160   77.2905   25.1474 N.1     1  UNL1       -0.1908
     27 C          13.4031   84.1184   24.8393 C.1     1  UNL1       -0.0598
     28 C          12.7287   83.1199   24.8756 C.1     1  UNL1       -0.0597
     29 C          15.7606   87.6719   24.8257 C.ar    1  UNL1        0.0347
     30 C          15.1149   87.2253   25.9907 C.ar    1  UNL1        0.0035
     31 C          14.3478   86.0611   25.9773 C.ar    1  UNL1        0.0083
     32 C          14.2075   85.3162   24.8020 C.ar    1  UNL1        0.0459
     33 C          14.8462   85.7416   23.6140 C.ar    1  UNL1        0.0791
     34 C          15.6187   86.9208   23.6421 C.ar    1  UNL1        0.0073
     35 C          14.7048   84.9458   22.3302 C.3     1  UNL1        0.4191
     36 F          15.4703   85.5288   21.3365 F       1  UNL1       -0.1658
     37 F          13.3794   84.9364   21.9341 F       1  UNL1       -0.1658
     38 F          15.1204   83.6342   22.4846 F       1  UNL1       -0.1658
     39 C          17.1806   89.5076   23.6222 C.3     1  UNL1        0.0773
     40 C          16.5752   88.9179   24.8611 C.2     1  UNL1        0.1735
     41 O          16.7707   89.5064   25.9595 O.2     1  UNL1       -0.2913
@<TRIPOS>BOND
     1    39    40    1
     2    40    41    2
     3    40    29    1
     4    29    30   ar
     5    30    31   ar
     6    31    32   ar
     7    32    27    1
     8    27    28    3
     9    28     1    1
    10     1     2   ar
    11     2     3   ar
    12     3     4   ar
    13     4     5   ar
    14     5     6   ar
    15     5     7    1
    16     7     8    1
    17     8     9    1
    18     8    10    1
    19     8    11    1
    20    11    12   ar
    21    12    13   ar
    22    13    17    1
    23    17    18   ar
    24    18    23    1
    25    23    24    3
    26    18    19   ar
    27    19    20   ar
    28    20    21   ar
    29    21    22   ar
    30    22    25    1
    31    25    26    3
    32    13    14   ar
    33    14    15   ar
    34    32    33   ar
    35    33    35    1
    36    35    36    1
    37    35    37    1
    38    35    38    1
    39    33    34   ar
    40    34    29   ar
    41     6     1   ar
    42    15    11   ar
    43    15     4    1
    44    22    17   ar
    45    12    16    1
@<TRIPOS>MOLECULE
*****
 41 45 0 0 0
SMALL
GASTEIGER

@<TRIPOS>ATOM
      1 C          12.1451   82.3802   24.8260 C.ar    1  UNL1        0.0450
      2 C          11.6861   82.4598   26.1484 C.ar    1  UNL1        0.0085
      3 C          10.8591   81.4581   26.6664 C.ar    1  UNL1        0.0052
      4 C          10.4940   80.3731   25.8594 C.ar    1  UNL1        0.0529
      5 C          10.9553   80.2849   24.5336 C.ar    1  UNL1        0.1407
      6 C          11.7769   81.2937   24.0199 C.ar    1  UNL1        0.0452
      7 O          10.5840   79.1987   23.7131 O.3     1  UNL1       -0.4770
      8 C           9.8830   78.0188   24.1642 C.3     1  UNL1        0.1673
      9 C           8.7515   77.7217   23.1735 C.3     1  UNL1        0.0498
     10 C          10.8753   76.8506   24.2012 C.3     1  UNL1        0.0498
     11 C           9.3109   78.2328   25.5464 C.ar    1  UNL1        0.0891
     12 N           8.5359   77.3951   26.2510 N.ar    1  UNL1       -0.3380
     13 C           8.3847   78.0026   27.4515 C.ar    1  UNL1        0.1417
     14 N           9.0481   79.1826   27.5407 N.ar    1  UNL1       -0.2271
     15 C           9.6231   79.3004   26.3292 C.ar    1  UNL1        0.1005
     16 H           8.1728   76.4626   25.9525 H       1  UNL1        0.1672
     17 C           7.5996   77.4263   28.5722 C.ar    1  UNL1        0.0531
     18 C           7.9598   77.6899   29.9175 C.ar    1  UNL1        0.0720
     19 C           7.2078   77.1423   30.9649 C.ar    1  UNL1        0.0104
     20 C           6.1057   76.3328   30.6949 C.ar    1  UNL1        0.0014
     21 C           5.7444   76.0588   29.3768 C.ar    1  UNL1        0.0104
     22 C           6.4809   76.5958   28.3131 C.ar    1  UNL1        0.0720
     23 C           9.1260   78.4732   30.2531 C.1     1  UNL1        0.1005
     24 N          10.0606   79.1005   30.5225 N.1     1  UNL1       -0.1908
     25 C           6.0417   76.3113   26.9667 C.1     1  UNL1        0.1005
     26 N           5.6895   76.0834   25.8881 N.1     1  UNL1       -0.1908
     27 C          13.7074   84.2745   23.8456 C.1     1  UNL1       -0.0598
     28 C          12.9932   83.4133   24.2943 C.1     1  UNL1       -0.0597
     29 C          16.2487   87.2563   22.1616 C.ar    1  UNL1        0.0347
     30 C          15.8420   86.1354   21.4188 C.ar    1  UNL1        0.0035
     31 C          15.0108   85.1698   21.9852 C.ar    1  UNL1        0.0083
     32 C          14.5665   85.3005   23.3048 C.ar    1  UNL1        0.0459
     33 C          14.9597   86.4185   24.0765 C.ar    1  UNL1        0.0791
     34 C          15.8006   87.3871   23.4910 C.ar    1  UNL1        0.0073
     35 C          14.4871   86.5762   25.5095 C.3     1  UNL1        0.4191
     36 F          13.2394   87.1733   25.5232 F       1  UNL1       -0.1658
     37 F          15.3780   87.3725   26.2065 F       1  UNL1       -0.1658
     38 F          14.3923   85.3584   26.1613 F       1  UNL1       -0.1658
     39 C          16.5955   89.3973   20.7020 C.3     1  UNL1        0.0773
     40 C          17.1367   88.2760   21.5381 C.2     1  UNL1        0.1735
     41 O          18.3845   88.2076   21.7094 O.2     1  UNL1       -0.2913
@<TRIPOS>BOND
     1    39    40    1
     2    40    41    2
     3    40    29    1
     4    29    30   ar
     5    30    31   ar
     6    31    32   ar
     7    32    27    1
     8    27    28    3
     9    28     1    1
    10     1     2   ar
    11     2     3   ar
    12     3     4   ar
    13     4     5   ar
    14     5     6   ar
    15     5     7    1
    16     7     8    1
    17     8     9    1
    18     8    10    1
    19     8    11    1
    20    11    12   ar
    21    12    13   ar
    22    13    17    1
    23    17    18   ar
    24    18    23    1
    25    23    24    3
    26    18    19   ar
    27    19    20   ar
    28    20    21   ar
    29    21    22   ar
    30    22    25    1
    31    25    26    3
    32    13    14   ar
    33    14    15   ar
    34    32    33   ar
    35    33    35    1
    36    35    36    1
    37    35    37    1
    38    35    38    1
    39    33    34   ar
    40    34    29   ar
    41     6     1   ar
    42    15    11   ar
    43    15     4    1
    44    22    17   ar
    45    12    16    1
