@<TRIPOS>MOLECULE
*****
 44 50 0 0 0
SMALL
GASTEIGER

@<TRIPOS>ATOM
      1 C         -10.7285   -7.5711   29.6197 C.3     1  UNL1        0.0817
      2 C         -10.1492   -8.2627   28.3649 C.3     1  UNL1        0.0252
      3 C         -10.5000   -9.7607   28.4753 C.3     1  UNL1        0.0278
      4 C         -11.0783   -9.8988   29.8348 C.ar    1  UNL1       -0.0248
      5 C         -11.4935  -11.0820   30.4480 C.ar    1  UNL1       -0.0045
      6 C         -12.0554  -11.0218   31.7392 C.ar    1  UNL1       -0.0002
      7 C         -12.1821   -9.7713   32.3852 C.ar    1  UNL1       -0.0003
      8 C         -11.7619   -8.5967   31.7459 C.ar    1  UNL1       -0.0033
      9 C         -11.1884   -8.6911   30.4765 C.ar    1  UNL1       -0.0117
     10 C          -9.8349   -5.3709   30.6093 C.3     1  UNL1        0.1158
     11 N          -8.7455   -4.8893   31.2572 N.3     1  UNL1       -0.2851
     12 C          -7.9500   -5.9618   31.3651 C.3     1  UNL1        0.0910
     13 C          -6.7035   -6.0110   31.9660 C.3     1  UNL1        0.1018
     14 C          -6.0503   -7.2494   31.9940 C.3     1  UNL1        0.3136
     15 N          -6.6376   -8.3775   31.4631 N.am    1  UNL1       -0.1294
     16 C          -7.8728   -8.3021   30.8482 C.2     1  UNL1        0.4047
     17 O          -8.3978   -9.3300   30.3450 O.2     1  UNL1       -0.2174
     18 C          -8.5313   -7.0583   30.8054 C.3     1  UNL1        0.2038
     19 N          -9.7378   -6.7033   30.2950 N.3     1  UNL1       -0.2473
     20 H          -8.9978   -4.5279   32.1771 H       1  UNL1        0.1244
     21 C         -10.6944   -3.5344   29.1500 C.3     1  UNL1        0.0029
     22 C         -11.0045   -4.4695   30.3139 C.3     1  UNL1        0.0326
     23 C          -5.8934   -9.6499   31.5352 C.3     1  UNL1        0.3394
     24 C          -5.3649  -10.0574   30.1732 C.ar    1  UNL1        0.0505
     25 C          -4.2440   -9.3818   29.6553 C.ar    1  UNL1        0.0021
     26 C          -3.7053   -9.7376   28.4182 C.ar    1  UNL1       -0.0001
     27 C          -4.2722  -10.7755   27.6817 C.ar    1  UNL1       -0.0003
     28 C          -5.3817  -11.4607   28.1781 C.ar    1  UNL1       -0.0044
     29 C          -5.9459  -11.1102   29.4180 C.ar    1  UNL1       -0.0193
     30 C          -7.1273  -11.8951   29.9239 C.3     1  UNL1        0.0309
     31 C         -12.4944  -12.2646   32.4162 C.ar    1  UNL1        0.0034
     32 C         -13.7893  -12.7406   32.1538 C.ar    1  UNL1        0.0001
     33 C         -14.2305  -13.9402   32.7078 C.ar    1  UNL1        0.0005
     34 C         -13.3886  -14.6802   33.5340 C.ar    1  UNL1        0.0060
     35 C         -12.0989  -14.2235   33.8254 C.ar    1  UNL1        0.0245
     36 S         -11.1007  -15.2012   34.9572 S.3     1  UNL1       -0.1413
     37 C         -11.6361  -13.0041   33.2740 C.ar    1  UNL1        0.0425
     38 H         -11.5877  -14.5004   36.0764 H       1  UNL1        0.1071
     39 C         -10.2914  -12.4896   33.6261 C.ar    1  UNL1        0.1810
     40 N          -9.3545  -12.1158   32.7343 N.ar    1  UNL1       -0.1083
     41 N          -8.3269  -11.7099   33.4673 N.ar    1  UNL1       -0.0229
     42 N          -8.6151  -11.8268   34.7550 N.ar    1  UNL1       -0.0464
     43 N          -9.8374  -12.3107   34.8775 N.ar    1  UNL1       -0.2388
     44 H         -10.3198  -12.5152   35.7804 H       1  UNL1        0.1923
@<TRIPOS>BOND
     1    21    22    1
     2    22    10    1
     3    10    11    1
     4    11    12    1
     5    12    13    1
     6    13    14    1
     7    14    15    1
     8    15    23    1
     9    23    24    1
    10    24    25   ar
    11    25    26   ar
    12    26    27   ar
    13    27    28   ar
    14    28    29   ar
    15    29    30    1
    16    15    16    1
    17    16    17    2
    18    16    18    1
    19    18    19    1
    20    19     1    1
    21     1     2    1
    22     2     3    1
    23     3     4    1
    24     4     5   ar
    25     5     6   ar
    26     6    31    1
    27    31    32   ar
    28    32    33   ar
    29    33    34   ar
    30    34    35   ar
    31    35    36    1
    32    35    37   ar
    33    37    39    1
    34    39    40   ar
    35    40    41   ar
    36    41    42   ar
    37    42    43   ar
    38     6     7   ar
    39     7     8   ar
    40     8     9   ar
    41    19    10    1
    42     9     1    1
    43    18    12    1
    44     9     4   ar
    45    29    24   ar
    46    37    31   ar
    47    43    39   ar
    48    36    38    1
    49    43    44    1
    50    11    20    1
@<TRIPOS>MOLECULE
*****
 44 50 0 0 0
SMALL
GASTEIGER

@<TRIPOS>ATOM
      1 C         -10.4431   -7.6442   29.8009 C.3     1  UNL1        0.0817
      2 C         -10.2045   -8.4748   28.5198 C.3     1  UNL1        0.0252
      3 C         -10.2006   -9.9587   28.9407 C.3     1  UNL1        0.0278
      4 C         -10.2426   -9.9156   30.4233 C.ar    1  UNL1       -0.0248
      5 C         -10.1873  -11.0074   31.2911 C.ar    1  UNL1       -0.0045
      6 C         -10.2756  -10.7820   32.6795 C.ar    1  UNL1       -0.0002
      7 C         -10.4132   -9.4610   33.1625 C.ar    1  UNL1       -0.0003
      8 C         -10.4711   -8.3817   32.2698 C.ar    1  UNL1       -0.0033
      9 C         -10.3581   -8.6348   30.9016 C.ar    1  UNL1       -0.0117
     10 C          -9.6864   -5.1865   29.8804 C.3     1  UNL1        0.1158
     11 N          -8.5678   -4.4496   30.0902 N.3     1  UNL1       -0.2851
     12 C          -7.6247   -5.3746   30.3129 C.3     1  UNL1        0.0910
     13 C          -6.2888   -5.1438   30.5948 C.3     1  UNL1        0.1018
     14 C          -5.4765   -6.2612   30.8240 C.3     1  UNL1        0.3136
     15 N          -5.9943   -7.5380   30.7915 N.am    1  UNL1       -0.1294
     16 C          -7.3257   -7.7474   30.4866 C.2     1  UNL1        0.4047
     17 O          -7.7917   -8.9162   30.4365 O.2     1  UNL1       -0.2174
     18 C          -8.1469   -6.6299   30.2431 C.3     1  UNL1        0.2038
     19 N          -9.4687   -6.5399   29.9483 N.3     1  UNL1       -0.2473
     20 H          -8.6791   -3.8393   30.8999 H       1  UNL1        0.1244
     21 C         -10.8007   -3.1321   28.9977 C.3     1  UNL1        0.0029
     22 C         -11.0059   -4.5092   29.6198 C.3     1  UNL1        0.0326
     23 C          -5.0802   -8.6673   31.0504 C.3     1  UNL1        0.3394
     24 C          -5.2305   -9.7503   29.9992 C.ar    1  UNL1        0.0505
     25 C          -4.6999   -9.5222   28.7157 C.ar    1  UNL1        0.0021
     26 C          -4.7905  -10.4982   27.7225 C.ar    1  UNL1       -0.0001
     27 C          -5.4060  -11.7179   27.9955 C.ar    1  UNL1       -0.0003
     28 C          -5.9357  -11.9661   29.2623 C.ar    1  UNL1       -0.0044
     29 C          -5.8640  -10.9911   30.2737 C.ar    1  UNL1       -0.0193
     30 C          -6.4271  -11.3143   31.6325 C.3     1  UNL1        0.0309
     31 C         -10.2090  -11.9230   33.6225 C.ar    1  UNL1        0.0034
     32 C          -9.0827  -12.0309   34.4543 C.ar    1  UNL1        0.0001
     33 C          -8.9985  -13.0431   35.4077 C.ar    1  UNL1        0.0005
     34 C         -10.0342  -13.9641   35.5428 C.ar    1  UNL1        0.0060
     35 C         -11.1617  -13.8907   34.7181 C.ar    1  UNL1        0.0245
     36 S         -12.4214  -15.1598   34.9079 S.3     1  UNL1       -0.1413
     37 C         -11.2613  -12.8707   33.7410 C.ar    1  UNL1        0.0425
     38 H         -11.7990  -15.9943   33.9608 H       1  UNL1        0.1071
     39 C         -12.4281  -12.8243   32.8281 C.ar    1  UNL1        0.1810
     40 N         -13.4869  -12.0059   32.9761 N.ar    1  UNL1       -0.1083
     41 N         -14.2761  -12.2774   31.9458 N.ar    1  UNL1       -0.0229
     42 N         -13.7299  -13.2212   31.1936 N.ar    1  UNL1       -0.0464
     43 N         -12.5749  -13.5768   31.7252 N.ar    1  UNL1       -0.2388
     44 H         -11.9344  -14.3094   31.3472 H       1  UNL1        0.1923
@<TRIPOS>BOND
     1    21    22    1
     2    22    10    1
     3    10    11    1
     4    11    12    1
     5    12    13    1
     6    13    14    1
     7    14    15    1
     8    15    23    1
     9    23    24    1
    10    24    25   ar
    11    25    26   ar
    12    26    27   ar
    13    27    28   ar
    14    28    29   ar
    15    29    30    1
    16    15    16    1
    17    16    17    2
    18    16    18    1
    19    18    19    1
    20    19     1    1
    21     1     2    1
    22     2     3    1
    23     3     4    1
    24     4     5   ar
    25     5     6   ar
    26     6    31    1
    27    31    32   ar
    28    32    33   ar
    29    33    34   ar
    30    34    35   ar
    31    35    36    1
    32    35    37   ar
    33    37    39    1
    34    39    40   ar
    35    40    41   ar
    36    41    42   ar
    37    42    43   ar
    38     6     7   ar
    39     7     8   ar
    40     8     9   ar
    41    19    10    1
    42     9     1    1
    43    18    12    1
    44     9     4   ar
    45    29    24   ar
    46    37    31   ar
    47    43    39   ar
    48    36    38    1
    49    43    44    1
    50    11    20    1
@<TRIPOS>MOLECULE
*****
 44 50 0 0 0
SMALL
GASTEIGER

@<TRIPOS>ATOM
      1 C          -5.8478  -10.5691   30.6267 C.3     1  UNL1        0.0817
      2 C          -5.2235  -10.6459   32.0383 C.3     1  UNL1        0.0252
      3 C          -6.2848  -11.2730   32.9654 C.3     1  UNL1        0.0278
      4 C          -7.5030  -11.3513   32.1218 C.ar    1  UNL1       -0.0248
      5 C          -8.7674  -11.7869   32.5215 C.ar    1  UNL1       -0.0045
      6 C          -9.8078  -11.8282   31.5716 C.ar    1  UNL1       -0.0002
      7 C          -9.5519  -11.4254   30.2415 C.ar    1  UNL1       -0.0003
      8 C          -8.2718  -10.9964   29.8640 C.ar    1  UNL1       -0.0033
      9 C          -7.2678  -10.9449   30.8326 C.ar    1  UNL1       -0.0117
     10 C          -4.8517   -8.8429   28.9997 C.3     1  UNL1        0.1158
     11 N          -4.9873   -7.5378   28.6577 N.3     1  UNL1       -0.2851
     12 C          -5.9574   -7.1031   29.4729 C.3     1  UNL1        0.0910
     13 C          -6.4882   -5.8251   29.5203 C.3     1  UNL1        0.1018
     14 C          -7.5232   -5.5910   30.4341 C.3     1  UNL1        0.3136
     15 N          -8.0071   -6.6007   31.2375 N.am    1  UNL1       -0.1294
     16 C          -7.4484   -7.8637   31.1900 C.2     1  UNL1        0.4047
     17 O          -7.8781   -8.7792   31.9402 O.2     1  UNL1       -0.2174
     18 C          -6.3995   -8.1046   30.2823 C.3     1  UNL1        0.2038
     19 N          -5.6930   -9.2316   30.0121 N.3     1  UNL1       -0.2473
     20 H          -5.2624   -7.4433   27.6800 H       1  UNL1        0.1244
     21 C          -4.5391  -10.5090   27.1646 C.3     1  UNL1        0.0029
     22 C          -3.8615   -9.7192   28.2793 C.3     1  UNL1        0.0326
     23 C          -9.1046   -6.2825   32.1716 C.3     1  UNL1        0.3394
     24 C         -10.4140   -6.8949   31.7127 C.ar    1  UNL1        0.0505
     25 C         -10.7432   -8.1906   32.1531 C.ar    1  UNL1        0.0021
     26 C         -11.9482   -8.7865   31.7790 C.ar    1  UNL1       -0.0001
     27 C         -12.8453   -8.0979   30.9653 C.ar    1  UNL1       -0.0003
     28 C         -12.5403   -6.8111   30.5203 C.ar    1  UNL1       -0.0044
     29 C         -11.3262   -6.1972   30.8775 C.ar    1  UNL1       -0.0193
     30 C         -11.0525   -4.7976   30.3939 C.3     1  UNL1        0.0309
     31 C         -11.1618  -12.2768   31.9729 C.ar    1  UNL1        0.0034
     32 C         -12.1990  -12.1788   31.0312 C.ar    1  UNL1        0.0001
     33 C         -13.4757  -12.6493   31.3296 C.ar    1  UNL1        0.0005
     34 C         -13.7375  -13.2206   32.5723 C.ar    1  UNL1        0.0060
     35 C         -12.7281  -13.3180   33.5357 C.ar    1  UNL1        0.0245
     36 S         -13.1654  -14.0032   35.1397 S.3     1  UNL1       -0.1413
     37 C         -11.4258  -12.8408   33.2503 C.ar    1  UNL1        0.0425
     38 H         -13.5093  -12.7360   35.6467 H       1  UNL1        0.1071
     39 C         -10.3693  -12.8908   34.2887 C.ar    1  UNL1        0.1810
     40 N          -9.9982  -14.0011   34.9537 N.ar    1  UNL1       -0.1083
     41 N          -9.0255  -13.6060   35.7635 N.ar    1  UNL1       -0.0229
     42 N          -8.8041  -12.3094   35.6062 N.ar    1  UNL1       -0.0464
     43 N          -9.6312  -11.8424   34.6892 N.ar    1  UNL1       -0.2388
     44 H          -9.6853  -10.8494   34.3720 H       1  UNL1        0.1923
@<TRIPOS>BOND
     1    21    22    1
     2    22    10    1
     3    10    11    1
     4    11    12    1
     5    12    13    1
     6    13    14    1
     7    14    15    1
     8    15    23    1
     9    23    24    1
    10    24    25   ar
    11    25    26   ar
    12    26    27   ar
    13    27    28   ar
    14    28    29   ar
    15    29    30    1
    16    15    16    1
    17    16    17    2
    18    16    18    1
    19    18    19    1
    20    19     1    1
    21     1     2    1
    22     2     3    1
    23     3     4    1
    24     4     5   ar
    25     5     6   ar
    26     6    31    1
    27    31    32   ar
    28    32    33   ar
    29    33    34   ar
    30    34    35   ar
    31    35    36    1
    32    35    37   ar
    33    37    39    1
    34    39    40   ar
    35    40    41   ar
    36    41    42   ar
    37    42    43   ar
    38     6     7   ar
    39     7     8   ar
    40     8     9   ar
    41    19    10    1
    42     9     1    1
    43    18    12    1
    44     9     4   ar
    45    29    24   ar
    46    37    31   ar
    47    43    39   ar
    48    36    38    1
    49    43    44    1
    50    11    20    1
