@<TRIPOS>MOLECULE
*****
 35 40 0 0 0
SMALL
GASTEIGER

@<TRIPOS>ATOM
      1 C          46.9242   11.5081  -27.3261 C.ar    1  UNL1        0.1095
      2 N          47.1355   10.2315  -27.7338 N.ar    1  UNL1       -0.1677
      3 N          46.9705   10.1857  -29.0508 N.ar    1  UNL1       -0.2319
      4 C          47.0348    8.9658  -29.8443 C.3     1  UNL1        0.1554
      5 C          46.6280   11.4107  -29.4782 C.ar    1  UNL1        0.1658
      6 N          46.3021   11.7758  -30.7414 N.ar    1  UNL1       -0.2019
      7 C          45.9605   13.0791  -30.9662 C.ar    1  UNL1        0.2006
      8 BR         45.4910   13.6439  -32.7236 Br      1  UNL1       -0.0062
      9 N          45.9729   13.9882  -29.9405 N.ar    1  UNL1       -0.2057
     10 C          46.3015   13.6255  -28.6643 C.ar    1  UNL1        0.1383
     11 C          46.6076   12.2826  -28.4347 C.ar    1  UNL1        0.0865
     12 C          47.9379   12.1012  -25.0461 C.ar    1  UNL1        0.0809
     13 C          46.8778   11.9059  -25.9118 C.ar    1  UNL1        0.0577
     14 C          45.7539   12.2484  -25.1842 C.ar    1  UNL1        0.1231
     15 N          46.1239   12.6384  -23.9484 N.ar    1  UNL1       -0.1676
     16 N          47.4425   12.5455  -23.8709 N.ar    1  UNL1       -0.2488
     17 C          48.2040   12.9469  -22.6934 C.3     1  UNL1        0.1537
     18 C          53.5482   11.6661  -26.3886 C.3     1  UNL1        0.0310
     19 C          52.1023   11.7732  -26.0048 C.ar    1  UNL1       -0.0218
     20 C          51.2882   10.6303  -25.9903 C.ar    1  UNL1       -0.0042
     21 C          49.9318   10.7354  -25.6694 C.ar    1  UNL1        0.0012
     22 C          49.3706   11.9857  -25.3747 C.ar    1  UNL1        0.0174
     23 C          50.1798   13.1304  -25.4022 C.ar    1  UNL1        0.0012
     24 C          51.5364   13.0260  -25.7227 C.ar    1  UNL1       -0.0042
     25 N          46.4174   14.6219  -27.6432 N.pl3   1  UNL1       -0.2916
     26 C          45.2702   15.0928  -26.8840 C.3     1  UNL1        0.0937
     27 C          45.8302   16.0886  -25.8805 C.3     1  UNL1        0.0391
     28 C          47.3135   15.7074  -25.7310 C.3     1  UNL1        0.0790
     29 C          47.6861   14.9590  -27.0203 C.3     1  UNL1        0.1081
     30 N          48.2211   16.8379  -25.3889 N.3     1  UNL1       -0.2723
     31 C          47.7772   18.1289  -25.9770 C.3     1  UNL1        0.0721
     32 C          48.6057   18.5382  -27.2041 C.3     1  UNL1        0.0174
     33 C          50.1069   18.6394  -26.8836 C.3     1  UNL1        0.0029
     34 C          50.5062   17.8449  -25.6333 C.3     1  UNL1        0.0174
     35 C          49.6785   16.5618  -25.5040 C.3     1  UNL1        0.0721
@<TRIPOS>BOND
     1    18    19    1
     2    19    20   ar
     3    20    21   ar
     4    21    22   ar
     5    22    12    1
     6    12    13   ar
     7    13     1    1
     8     1     2   ar
     9     2     3   ar
    10     3     4    1
    11     3     5   ar
    12     5     6   ar
    13     6     7   ar
    14     7     8    1
    15     7     9   ar
    16     9    10   ar
    17    10    25    1
    18    25    26    1
    19    26    27    1
    20    27    28    1
    21    28    30    1
    22    30    31    1
    23    31    32    1
    24    32    33    1
    25    33    34    1
    26    34    35    1
    27    28    29    1
    28    10    11   ar
    29    13    14   ar
    30    14    15   ar
    31    15    16   ar
    32    16    17    1
    33    22    23   ar
    34    23    24   ar
    35    24    19   ar
    36    16    12   ar
    37    11     1   ar
    38    11     5   ar
    39    29    25    1
    40    35    30    1
@<TRIPOS>MOLECULE
*****
 35 40 0 0 0
SMALL
GASTEIGER

@<TRIPOS>ATOM
      1 C          47.9231   12.9803  -25.3238 C.ar    1  UNL1        0.1095
      2 N          47.2435   12.8256  -26.4878 N.ar    1  UNL1       -0.1677
      3 N          47.0563   14.0281  -27.0198 N.ar    1  UNL1       -0.2319
      4 C          46.2924   14.2782  -28.2347 C.3     1  UNL1        0.1554
      5 C          47.5822   14.9444  -26.1927 C.ar    1  UNL1        0.1658
      6 N          47.5413   16.2915  -26.3307 N.ar    1  UNL1       -0.2019
      7 C          48.1238   17.0553  -25.3595 C.ar    1  UNL1        0.2006
      8 BR         48.0915   18.9543  -25.5041 Br      1  UNL1       -0.0062
      9 N          48.7494   16.4652  -24.2923 N.ar    1  UNL1       -0.2057
     10 C          48.7943   15.1068  -24.1484 C.ar    1  UNL1        0.1383
     11 C          48.1591   14.3343  -25.1229 C.ar    1  UNL1        0.0865
     12 C          49.1233   10.8708  -24.4949 C.ar    1  UNL1        0.0809
     13 C          48.1811   11.8768  -24.3877 C.ar    1  UNL1        0.0577
     14 C          47.5802   11.6748  -23.1597 C.ar    1  UNL1        0.1231
     15 N          48.1416   10.6074  -22.5582 N.ar    1  UNL1       -0.1676
     16 N          49.0704   10.1257  -23.3697 N.ar    1  UNL1       -0.2488
     17 C          49.9316    9.0015  -23.0206 C.3     1  UNL1        0.1537
     18 C          52.9929   10.2866  -28.7555 C.3     1  UNL1        0.0310
     19 C          52.0063   10.4101  -27.6327 C.ar    1  UNL1       -0.0218
     20 C          50.8087    9.6793  -27.6603 C.ar    1  UNL1       -0.0042
     21 C          49.8717    9.8227  -26.6329 C.ar    1  UNL1        0.0012
     22 C          50.1144   10.7096  -25.5747 C.ar    1  UNL1        0.0174
     23 C          51.3043   11.4506  -25.5528 C.ar    1  UNL1        0.0012
     24 C          52.2419   11.3074  -26.5798 C.ar    1  UNL1       -0.0042
     25 N          49.5552   14.5232  -23.0856 N.pl3   1  UNL1       -0.2916
     26 C          50.9274   14.0779  -23.2668 C.3     1  UNL1        0.0937
     27 C          51.3761   13.5836  -21.9006 C.3     1  UNL1        0.0391
     28 C          50.4519   14.2978  -20.8987 C.3     1  UNL1        0.0790
     29 C          49.1877   14.6722  -21.6878 C.3     1  UNL1        0.1081
     30 N          50.1935   13.5480  -19.6379 N.3     1  UNL1       -0.2723
     31 C          50.9562   12.2744  -19.5605 C.3     1  UNL1        0.0721
     32 C          50.0837   11.0419  -19.8420 C.3     1  UNL1        0.0174
     33 C          48.8831   10.9497  -18.8846 C.3     1  UNL1        0.0029
     34 C          48.5255   12.2964  -18.2426 C.3     1  UNL1        0.0174
     35 C          48.7704   13.4561  -19.2138 C.3     1  UNL1        0.0721
@<TRIPOS>BOND
     1    18    19    1
     2    19    20   ar
     3    20    21   ar
     4    21    22   ar
     5    22    12    1
     6    12    13   ar
     7    13     1    1
     8     1     2   ar
     9     2     3   ar
    10     3     4    1
    11     3     5   ar
    12     5     6   ar
    13     6     7   ar
    14     7     8    1
    15     7     9   ar
    16     9    10   ar
    17    10    25    1
    18    25    26    1
    19    26    27    1
    20    27    28    1
    21    28    30    1
    22    30    31    1
    23    31    32    1
    24    32    33    1
    25    33    34    1
    26    34    35    1
    27    28    29    1
    28    10    11   ar
    29    13    14   ar
    30    14    15   ar
    31    15    16   ar
    32    16    17    1
    33    22    23   ar
    34    23    24   ar
    35    24    19   ar
    36    16    12   ar
    37    11     1   ar
    38    11     5   ar
    39    29    25    1
    40    35    30    1
@<TRIPOS>MOLECULE
*****
 35 40 0 0 0
SMALL
GASTEIGER

@<TRIPOS>ATOM
      1 C          48.1379   11.6635  -22.5302 C.ar    1  UNL1        0.1095
      2 N          48.2239   10.4434  -21.9431 N.ar    1  UNL1       -0.1677
      3 N          49.1731   10.4971  -21.0158 N.ar    1  UNL1       -0.2319
      4 C          49.6145    9.3556  -20.2258 C.3     1  UNL1        0.1554
      5 C          49.7097   11.7269  -21.0288 C.ar    1  UNL1        0.1658
      6 N          50.7521   12.1734  -20.2876 N.ar    1  UNL1       -0.2019
      7 C          51.1620   13.4641  -20.4662 C.ar    1  UNL1        0.2006
      8 BR         52.6249   14.1406  -19.4512 Br      1  UNL1       -0.0062
      9 N          50.5154   14.2824  -21.3556 N.ar    1  UNL1       -0.2057
     10 C          49.4628   13.8375  -22.1054 C.ar    1  UNL1        0.1383
     11 C          49.0777   12.5045  -21.9482 C.ar    1  UNL1        0.0865
     12 C          47.6799   12.0311  -25.0268 C.ar    1  UNL1        0.0809
     13 C          47.2943   11.9368  -23.7025 C.ar    1  UNL1        0.0577
     14 C          45.9190   12.0718  -23.7198 C.ar    1  UNL1        0.1231
     15 N          45.5019   12.2290  -24.9916 N.ar    1  UNL1       -0.1676
     16 N          46.5692   12.2055  -25.7750 N.ar    1  UNL1       -0.2488
     17 C          46.4948   12.2852  -27.2295 C.3     1  UNL1        0.1537
     18 C          53.0051   11.2946  -27.1639 C.3     1  UNL1        0.0310
     19 C          51.6367   11.4736  -26.5767 C.ar    1  UNL1       -0.0218
     20 C          50.7078   10.4225  -26.6154 C.ar    1  UNL1       -0.0042
     21 C          49.4198   10.6009  -26.1024 C.ar    1  UNL1        0.0012
     22 C          49.0411   11.8365  -25.5593 C.ar    1  UNL1        0.0174
     23 C          49.9637   12.8919  -25.5323 C.ar    1  UNL1        0.0012
     24 C          51.2520   12.7139  -26.0449 C.ar    1  UNL1       -0.0042
     25 N          48.7382   14.7502  -22.9366 N.pl3   1  UNL1       -0.2916
     26 C          47.3348   15.0576  -22.7128 C.3     1  UNL1        0.0937
     27 C          46.9754   16.0959  -23.7640 C.3     1  UNL1        0.0391
     28 C          48.3153   16.7453  -24.1524 C.3     1  UNL1        0.0790
     29 C          49.3987   15.7143  -23.8000 C.3     1  UNL1        0.1081
     30 N          48.3826   17.2591  -25.5489 N.3     1  UNL1       -0.2723
     31 C          49.4437   16.5984  -26.3535 C.3     1  UNL1        0.0721
     32 C          50.6864   17.4823  -26.5373 C.3     1  UNL1        0.0174
     33 C          50.3470   18.8319  -27.1932 C.3     1  UNL1        0.0029
     34 C          48.8679   19.2124  -27.0472 C.3     1  UNL1        0.0174
     35 C          48.3029   18.7366  -25.7046 C.3     1  UNL1        0.0721
@<TRIPOS>BOND
     1    18    19    1
     2    19    20   ar
     3    20    21   ar
     4    21    22   ar
     5    22    12    1
     6    12    13   ar
     7    13     1    1
     8     1     2   ar
     9     2     3   ar
    10     3     4    1
    11     3     5   ar
    12     5     6   ar
    13     6     7   ar
    14     7     8    1
    15     7     9   ar
    16     9    10   ar
    17    10    25    1
    18    25    26    1
    19    26    27    1
    20    27    28    1
    21    28    30    1
    22    30    31    1
    23    31    32    1
    24    32    33    1
    25    33    34    1
    26    34    35    1
    27    28    29    1
    28    10    11   ar
    29    13    14   ar
    30    14    15   ar
    31    15    16   ar
    32    16    17    1
    33    22    23   ar
    34    23    24   ar
    35    24    19   ar
    36    16    12   ar
    37    11     1   ar
    38    11     5   ar
    39    29    25    1
    40    35    30    1
@<TRIPOS>MOLECULE
*****
 35 40 0 0 0
SMALL
GASTEIGER

@<TRIPOS>ATOM
      1 C          48.2376   12.7237  -25.6558 C.ar    1  UNL1        0.1095
      2 N          47.3222   12.6420  -26.6539 N.ar    1  UNL1       -0.1677
      3 N          47.1892   13.8488  -27.1923 N.ar    1  UNL1       -0.2319
      4 C          46.2344   14.1787  -28.2418 C.3     1  UNL1        0.1554
      5 C          47.9863   14.6998  -26.5283 C.ar    1  UNL1        0.1658
      6 N          48.0939   16.0370  -26.7164 N.ar    1  UNL1       -0.2019
      7 C          48.9552   16.7318  -25.9157 C.ar    1  UNL1        0.2006
      8 BR         49.1417   18.6145  -26.1371 Br      1  UNL1       -0.0062
      9 N          49.7017   16.0814  -24.9679 N.ar    1  UNL1       -0.2057
     10 C          49.5978   14.7325  -24.7742 C.ar    1  UNL1        0.1383
     11 C          48.6835   14.0363  -25.5674 C.ar    1  UNL1        0.0865
     12 C          49.4565   10.5961  -24.9041 C.ar    1  UNL1        0.0809
     13 C          48.5340   11.6127  -24.7403 C.ar    1  UNL1        0.0577
     14 C          47.9999   11.4118  -23.4815 C.ar    1  UNL1        0.1231
     15 N          48.5810   10.3349  -22.9168 N.ar    1  UNL1       -0.1676
     16 N          49.4573    9.8462  -23.7809 N.ar    1  UNL1       -0.2488
     17 C          50.3230    8.7102  -23.4850 C.3     1  UNL1        0.1537
     18 C          53.1160    9.8915  -29.3289 C.3     1  UNL1        0.0310
     19 C          52.1499   10.1009  -28.2010 C.ar    1  UNL1       -0.0218
     20 C          52.4394   11.0237  -27.1843 C.ar    1  UNL1       -0.0042
     21 C          51.5572   11.1919  -26.1131 C.ar    1  UNL1        0.0012
     22 C          50.3839   10.4285  -26.0381 C.ar    1  UNL1        0.0174
     23 C          50.1000    9.4963  -27.0462 C.ar    1  UNL1        0.0012
     24 C          50.9816    9.3279  -28.1178 C.ar    1  UNL1       -0.0042
     25 N          50.4755   14.0700  -23.8578 N.pl3   1  UNL1       -0.2916
     26 C          51.8520   13.7471  -24.1969 C.3     1  UNL1        0.0937
     27 C          52.4387   13.1123  -22.9459 C.3     1  UNL1        0.0391
     28 C          51.5592   13.6260  -21.7924 C.3     1  UNL1        0.0790
     29 C          50.2152   14.0116  -22.4296 C.3     1  UNL1        0.1081
     30 N          51.4487   12.7036  -20.6281 N.3     1  UNL1       -0.2723
     31 C          50.0808   12.1448  -20.4659 C.3     1  UNL1        0.0721
     32 C          49.2971   12.8147  -19.3271 C.3     1  UNL1        0.0174
     33 C          50.0294   12.7095  -17.9782 C.3     1  UNL1        0.0029
     34 C          51.5336   12.4508  -18.1332 C.3     1  UNL1        0.0174
     35 C          52.0944   13.1628  -19.3688 C.3     1  UNL1        0.0721
@<TRIPOS>BOND
     1    18    19    1
     2    19    20   ar
     3    20    21   ar
     4    21    22   ar
     5    22    12    1
     6    12    13   ar
     7    13     1    1
     8     1     2   ar
     9     2     3   ar
    10     3     4    1
    11     3     5   ar
    12     5     6   ar
    13     6     7   ar
    14     7     8    1
    15     7     9   ar
    16     9    10   ar
    17    10    25    1
    18    25    26    1
    19    26    27    1
    20    27    28    1
    21    28    30    1
    22    30    31    1
    23    31    32    1
    24    32    33    1
    25    33    34    1
    26    34    35    1
    27    28    29    1
    28    10    11   ar
    29    13    14   ar
    30    14    15   ar
    31    15    16   ar
    32    16    17    1
    33    22    23   ar
    34    23    24   ar
    35    24    19   ar
    36    16    12   ar
    37    11     1   ar
    38    11     5   ar
    39    29    25    1
    40    35    30    1
@<TRIPOS>MOLECULE
*****
 35 40 0 0 0
SMALL
GASTEIGER

@<TRIPOS>ATOM
      1 C          47.8578   11.7074  -26.6447 C.ar    1  UNL1        0.1095
      2 N          47.5513   11.0579  -27.7958 N.ar    1  UNL1       -0.1677
      3 N          46.8345   11.8787  -28.5549 N.ar    1  UNL1       -0.2319
      4 C          46.2496   11.5102  -29.8372 C.3     1  UNL1        0.1554
      5 C          46.6576   13.0287  -27.8867 C.ar    1  UNL1        0.1658
      6 N          45.9256   14.0992  -28.2784 N.ar    1  UNL1       -0.2019
      7 C          45.8553   15.1729  -27.4369 C.ar    1  UNL1        0.2006
      8 BR         44.8370   16.7023  -27.9387 Br      1  UNL1       -0.0062
      9 N          46.5290   15.1663  -26.2433 N.ar    1  UNL1       -0.2057
     10 C          47.2695   14.0894  -25.8433 C.ar    1  UNL1        0.1383
     11 C          47.3011   12.9791  -26.6896 C.ar    1  UNL1        0.0865
     12 C          49.7226   10.3774  -25.4910 C.ar    1  UNL1        0.0809
     13 C          48.5194   11.0582  -25.5039 C.ar    1  UNL1        0.0577
     14 C          48.1030   11.0739  -24.1862 C.ar    1  UNL1        0.1231
     15 N          49.0162   10.4427  -23.4220 N.ar    1  UNL1       -0.1676
     16 N          49.9898   10.0233  -24.2154 N.ar    1  UNL1       -0.2488
     17 C          51.1865    9.3494  -23.7241 C.3     1  UNL1        0.1537
     18 C          53.3240    9.5856  -29.9486 C.3     1  UNL1        0.0310
     19 C          52.3701    9.8140  -28.8140 C.ar    1  UNL1       -0.0218
     20 C          52.5988   10.8502  -27.8959 C.ar    1  UNL1       -0.0042
     21 C          51.7310   11.0398  -26.8166 C.ar    1  UNL1        0.0012
     22 C          50.6340   10.1864  -26.6343 C.ar    1  UNL1        0.0174
     23 C          50.4119    9.1421  -27.5431 C.ar    1  UNL1        0.0012
     24 C          51.2792    8.9522  -28.6228 C.ar    1  UNL1       -0.0042
     25 N          48.0529   14.1623  -24.6475 N.pl3   1  UNL1       -0.2916
     26 C          49.4229   14.6494  -24.6452 C.3     1  UNL1        0.0937
     27 C          49.8614   14.6172  -23.1896 C.3     1  UNL1        0.0391
     28 C          48.5527   14.6648  -22.3815 C.3     1  UNL1        0.0790
     29 C          47.4598   14.1329  -23.3214 C.3     1  UNL1        0.1081
     30 N          48.6088   13.9896  -21.0549 N.3     1  UNL1       -0.2723
     31 C          49.9973   13.8371  -20.5464 C.3     1  UNL1        0.0721
     32 C          50.5314   12.4049  -20.6990 C.3     1  UNL1        0.0174
     33 C          49.6369   11.3731  -19.9903 C.3     1  UNL1        0.0029
     34 C          48.2096   11.8828  -19.7519 C.3     1  UNL1        0.0174
     35 C          47.7454   12.7881  -20.8979 C.3     1  UNL1        0.0721
@<TRIPOS>BOND
     1    18    19    1
     2    19    20   ar
     3    20    21   ar
     4    21    22   ar
     5    22    12    1
     6    12    13   ar
     7    13     1    1
     8     1     2   ar
     9     2     3   ar
    10     3     4    1
    11     3     5   ar
    12     5     6   ar
    13     6     7   ar
    14     7     8    1
    15     7     9   ar
    16     9    10   ar
    17    10    25    1
    18    25    26    1
    19    26    27    1
    20    27    28    1
    21    28    30    1
    22    30    31    1
    23    31    32    1
    24    32    33    1
    25    33    34    1
    26    34    35    1
    27    28    29    1
    28    10    11   ar
    29    13    14   ar
    30    14    15   ar
    31    15    16   ar
    32    16    17    1
    33    22    23   ar
    34    23    24   ar
    35    24    19   ar
    36    16    12   ar
    37    11     1   ar
    38    11     5   ar
    39    29    25    1
    40    35    30    1
@<TRIPOS>MOLECULE
*****
 35 40 0 0 0
SMALL
GASTEIGER

@<TRIPOS>ATOM
      1 C          48.9226   13.2236  -18.8265 C.ar    1  UNL1        0.1095
      2 N          48.7655   14.0688  -17.7768 N.ar    1  UNL1       -0.1677
      3 N          47.4886   14.0421  -17.4125 N.ar    1  UNL1       -0.2319
      4 C          46.9149   14.8816  -16.3694 C.3     1  UNL1        0.1554
      5 C          46.8294   13.2138  -18.2371 C.ar    1  UNL1        0.1658
      6 N          45.4987   12.9604  -18.2513 N.ar    1  UNL1       -0.2019
      7 C          45.0191   12.0937  -19.1919 C.ar    1  UNL1        0.2006
      8 BR         43.1555   11.7053  -19.2569 Br      1  UNL1       -0.0062
      9 N          45.8716   11.4856  -20.0762 N.ar    1  UNL1       -0.2057
     10 C          47.2150   11.7369  -20.0659 C.ar    1  UNL1        0.1383
     11 C          47.6912   12.6568  -19.1295 C.ar    1  UNL1        0.0865
     12 C          50.4564   13.5974  -20.8477 C.ar    1  UNL1        0.0809
     13 C          50.1752   13.1057  -19.5865 C.ar    1  UNL1        0.0577
     14 C          51.3600   12.5449  -19.1487 C.ar    1  UNL1        0.1231
     15 N          52.3052   12.7021  -20.0964 N.ar    1  UNL1       -0.1676
     16 N          51.7532   13.3360  -21.1195 N.ar    1  UNL1       -0.2488
     17 C          52.4982   13.7351  -22.3083 C.3     1  UNL1        0.1537
     18 C          46.8698   16.7043  -24.1568 C.3     1  UNL1        0.0310
     19 C          47.8285   15.9130  -23.3177 C.ar    1  UNL1       -0.0218
     20 C          48.2085   14.6198  -23.7080 C.ar    1  UNL1       -0.0042
     21 C          49.0723   13.8673  -22.9070 C.ar    1  UNL1        0.0012
     22 C          49.5534   14.3928  -21.6998 C.ar    1  UNL1        0.0174
     23 C          49.1637   15.6794  -21.3018 C.ar    1  UNL1        0.0012
     24 C          48.3002   16.4326  -22.1025 C.ar    1  UNL1       -0.0042
     25 N          48.0893   10.9974  -20.9248 N.pl3   1  UNL1       -0.2916
     26 C          49.0198   10.0030  -20.4154 C.3     1  UNL1        0.0937
     27 C          49.7043    9.4230  -21.6431 C.3     1  UNL1        0.0391
     28 C          48.7317    9.6959  -22.8039 C.3     1  UNL1        0.0790
     29 C          47.8682   10.8855  -22.3565 C.3     1  UNL1        0.1081
     30 N          49.3759    9.8668  -24.1360 N.3     1  UNL1       -0.2723
     31 C          50.3682    8.8011  -24.4351 C.3     1  UNL1        0.0721
     32 C          51.8191    9.2775  -24.2689 C.3     1  UNL1        0.0174
     33 C          52.1341   10.4979  -25.1511 C.3     1  UNL1        0.0029
     34 C          50.8772   11.2665  -25.5792 C.3     1  UNL1        0.0174
     35 C          49.8132   11.2475  -24.4766 C.3     1  UNL1        0.0721
@<TRIPOS>BOND
     1    18    19    1
     2    19    20   ar
     3    20    21   ar
     4    21    22   ar
     5    22    12    1
     6    12    13   ar
     7    13     1    1
     8     1     2   ar
     9     2     3   ar
    10     3     4    1
    11     3     5   ar
    12     5     6   ar
    13     6     7   ar
    14     7     8    1
    15     7     9   ar
    16     9    10   ar
    17    10    25    1
    18    25    26    1
    19    26    27    1
    20    27    28    1
    21    28    30    1
    22    30    31    1
    23    31    32    1
    24    32    33    1
    25    33    34    1
    26    34    35    1
    27    28    29    1
    28    10    11   ar
    29    13    14   ar
    30    14    15   ar
    31    15    16   ar
    32    16    17    1
    33    22    23   ar
    34    23    24   ar
    35    24    19   ar
    36    16    12   ar
    37    11     1   ar
    38    11     5   ar
    39    29    25    1
    40    35    30    1
@<TRIPOS>MOLECULE
*****
 35 40 0 0 0
SMALL
GASTEIGER

@<TRIPOS>ATOM
      1 C          49.1030    9.8411  -27.7096 C.ar    1  UNL1        0.1095
      2 N          48.4772    9.0596  -28.6253 N.ar    1  UNL1       -0.1677
      3 N          49.4057    8.4845  -29.3810 N.ar    1  UNL1       -0.2319
      4 C          49.1192    7.6347  -30.5289 C.3     1  UNL1        0.1554
      5 C          50.6098    8.9152  -28.9748 C.ar    1  UNL1        0.1658
      6 N          51.8124    8.6245  -29.5267 N.ar    1  UNL1       -0.2019
      7 C          52.9273    9.1854  -28.9714 C.ar    1  UNL1        0.2006
      8 BR         54.6423    8.8114  -29.7109 Br      1  UNL1       -0.0062
      9 N          52.8230    9.9991  -27.8733 N.ar    1  UNL1       -0.2057
     10 C          51.6125   10.2952  -27.3120 C.ar    1  UNL1        0.1383
     11 C          50.4743    9.7525  -27.9118 C.ar    1  UNL1        0.0865
     12 C          47.4091   11.6706  -27.1082 C.ar    1  UNL1        0.0809
     13 C          48.3879   10.7449  -26.7973 C.ar    1  UNL1        0.0577
     14 C          48.4961   10.7876  -25.4202 C.ar    1  UNL1        0.1231
     15 N          47.6193   11.6865  -24.9311 N.ar    1  UNL1       -0.1676
     16 N          46.9679   12.2170  -25.9546 N.ar    1  UNL1       -0.2488
     17 C          45.8912   13.1887  -25.7996 C.3     1  UNL1        0.1537
     18 C          45.2168   12.6775  -32.3662 C.3     1  UNL1        0.0310
     19 C          45.7509   12.4082  -30.9909 C.ar    1  UNL1       -0.0218
     20 C          45.8363   13.4458  -30.0500 C.ar    1  UNL1       -0.0042
     21 C          46.3692   13.2039  -28.7805 C.ar    1  UNL1        0.0012
     22 C          46.8369   11.9263  -28.4428 C.ar    1  UNL1        0.0174
     23 C          46.7649   10.8919  -29.3865 C.ar    1  UNL1        0.0012
     24 C          46.2318   11.1331  -30.6560 C.ar    1  UNL1       -0.0042
     25 N          51.5508   11.0519  -26.0986 N.pl3   1  UNL1       -0.2916
     26 C          51.9216   10.4866  -24.8113 C.3     1  UNL1        0.0937
     27 C          51.7688   11.6221  -23.8116 C.3     1  UNL1        0.0391
     28 C          51.8782   12.9063  -24.6523 C.3     1  UNL1        0.0790
     29 C          51.4941   12.5037  -26.0846 C.3     1  UNL1        0.1081
     30 N          51.1249   14.0741  -24.1160 N.3     1  UNL1       -0.2723
     31 C          50.8321   13.9509  -22.6639 C.3     1  UNL1        0.0721
     32 C          49.3728   13.5614  -22.3835 C.3     1  UNL1        0.0174
     33 C          48.3771   14.5601  -22.9983 C.3     1  UNL1        0.0029
     34 C          48.9853   15.3844  -24.1404 C.3     1  UNL1        0.0174
     35 C          49.9898   14.5559  -24.9484 C.3     1  UNL1        0.0721
@<TRIPOS>BOND
     1    18    19    1
     2    19    20   ar
     3    20    21   ar
     4    21    22   ar
     5    22    12    1
     6    12    13   ar
     7    13     1    1
     8     1     2   ar
     9     2     3   ar
    10     3     4    1
    11     3     5   ar
    12     5     6   ar
    13     6     7   ar
    14     7     8    1
    15     7     9   ar
    16     9    10   ar
    17    10    25    1
    18    25    26    1
    19    26    27    1
    20    27    28    1
    21    28    30    1
    22    30    31    1
    23    31    32    1
    24    32    33    1
    25    33    34    1
    26    34    35    1
    27    28    29    1
    28    10    11   ar
    29    13    14   ar
    30    14    15   ar
    31    15    16   ar
    32    16    17    1
    33    22    23   ar
    34    23    24   ar
    35    24    19   ar
    36    16    12   ar
    37    11     1   ar
    38    11     5   ar
    39    29    25    1
    40    35    30    1
@<TRIPOS>MOLECULE
*****
 35 40 0 0 0
SMALL
GASTEIGER

@<TRIPOS>ATOM
      1 C          49.6416   14.0949  -22.3886 C.ar    1  UNL1        0.1095
      2 N          50.6449   13.8588  -21.5064 N.ar    1  UNL1       -0.1677
      3 N          50.1439   13.1745  -20.4844 N.ar    1  UNL1       -0.2319
      4 C          50.8995   12.8041  -19.2953 C.3     1  UNL1        0.1554
      5 C          48.8301   13.0004  -20.6938 C.ar    1  UNL1        0.1658
      6 N          47.9382   12.4155  -19.8585 N.ar    1  UNL1       -0.2019
      7 C          46.6317   12.3556  -20.2526 C.ar    1  UNL1        0.2006
      8 BR         45.3368   11.5463  -19.1140 Br      1  UNL1       -0.0062
      9 N          46.2489   12.8549  -21.4704 N.ar    1  UNL1       -0.2057
     10 C          47.1445   13.4453  -22.3173 C.ar    1  UNL1        0.1383
     11 C          48.4700   13.5413  -21.8885 C.ar    1  UNL1        0.0865
     12 C          50.2416   14.5975  -24.8310 C.ar    1  UNL1        0.0809
     13 C          49.7936   14.9530  -23.5723 C.ar    1  UNL1        0.0577
     14 C          49.4342   16.2829  -23.6829 C.ar    1  UNL1        0.1231
     15 N          49.6472   16.6992  -24.9468 N.ar    1  UNL1       -0.1676
     16 N          50.1361   15.6783  -25.6338 N.ar    1  UNL1       -0.2488
     17 C          50.4301   15.7431  -27.0610 C.3     1  UNL1        0.1537
     18 C          51.7967    9.3181  -26.6133 C.3     1  UNL1        0.0310
     19 C          51.3910   10.6738  -26.1165 C.ar    1  UNL1       -0.0218
     20 C          50.0360   11.0372  -26.0806 C.ar    1  UNL1       -0.0042
     21 C          49.6599   12.3139  -25.6534 C.ar    1  UNL1        0.0012
     22 C          50.6346   13.2466  -25.2722 C.ar    1  UNL1        0.0174
     23 C          51.9895   12.8895  -25.3204 C.ar    1  UNL1        0.0012
     24 C          52.3663   11.6128  -25.7473 C.ar    1  UNL1       -0.0042
     25 N          46.7332   13.8497  -23.6273 N.pl3   1  UNL1       -0.2916
     26 C          46.5556   15.2468  -23.9887 C.3     1  UNL1        0.0937
     27 C          46.1768   15.2389  -25.4613 C.3     1  UNL1        0.0391
     28 C          46.7164   13.9027  -26.0010 C.3     1  UNL1        0.0790
     29 C          46.8304   12.9737  -24.7825 C.3     1  UNL1        0.1081
     30 N          45.9501   13.3315  -27.1436 N.3     1  UNL1       -0.2723
     31 C          45.8781   11.8473  -27.1020 C.3     1  UNL1        0.0721
     32 C          46.8322   11.1785  -28.1031 C.3     1  UNL1        0.0174
     33 C          46.5733   11.6385  -29.5481 C.3     1  UNL1        0.0029
     34 C          45.8299   12.9784  -29.6248 C.3     1  UNL1        0.0174
     35 C          46.2467   13.9101  -28.4818 C.3     1  UNL1        0.0721
@<TRIPOS>BOND
     1    18    19    1
     2    19    20   ar
     3    20    21   ar
     4    21    22   ar
     5    22    12    1
     6    12    13   ar
     7    13     1    1
     8     1     2   ar
     9     2     3   ar
    10     3     4    1
    11     3     5   ar
    12     5     6   ar
    13     6     7   ar
    14     7     8    1
    15     7     9   ar
    16     9    10   ar
    17    10    25    1
    18    25    26    1
    19    26    27    1
    20    27    28    1
    21    28    30    1
    22    30    31    1
    23    31    32    1
    24    32    33    1
    25    33    34    1
    26    34    35    1
    27    28    29    1
    28    10    11   ar
    29    13    14   ar
    30    14    15   ar
    31    15    16   ar
    32    16    17    1
    33    22    23   ar
    34    23    24   ar
    35    24    19   ar
    36    16    12   ar
    37    11     1   ar
    38    11     5   ar
    39    29    25    1
    40    35    30    1
@<TRIPOS>MOLECULE
*****
 35 40 0 0 0
SMALL
GASTEIGER

@<TRIPOS>ATOM
      1 C          47.2958   12.7483  -21.8956 C.ar    1  UNL1        0.1095
      2 N          46.8633   12.0570  -20.8112 N.ar    1  UNL1       -0.1677
      3 N          47.7584   12.2073  -19.8416 N.ar    1  UNL1       -0.2319
      4 C          47.6839   11.5458  -18.5459 C.3     1  UNL1        0.1554
      5 C          48.7666   12.9600  -20.3080 C.ar    1  UNL1        0.1658
      6 N          49.9103   13.2888  -19.6606 N.ar    1  UNL1       -0.2019
      7 C          50.8274   14.0537  -20.3238 C.ar    1  UNL1        0.2006
      8 BR         52.4534   14.5416  -19.4600 Br      1  UNL1       -0.0062
      9 N          50.5774   14.4900  -21.5989 N.ar    1  UNL1       -0.2057
     10 C          49.4250   14.1619  -22.2564 C.ar    1  UNL1        0.1383
     11 C          48.5121   13.3441  -21.5875 C.ar    1  UNL1        0.0865
     12 C          47.0678   12.0596  -24.3556 C.ar    1  UNL1        0.0809
     13 C          46.6318   12.6914  -23.2058 C.ar    1  UNL1        0.0577
     14 C          45.3848   13.1946  -23.5249 C.ar    1  UNL1        0.1231
     15 N          45.0857   12.8716  -24.7986 N.ar    1  UNL1       -0.1676
     16 N          46.1058   12.1886  -25.2947 N.ar    1  UNL1       -0.2488
     17 C          46.1083   11.6184  -26.6373 C.3     1  UNL1        0.1537
     18 C          51.9245    8.9653  -24.9068 C.3     1  UNL1        0.0310
     19 C          50.6463    9.7392  -24.7789 C.ar    1  UNL1       -0.0218
     20 C          50.2215   10.5795  -25.8194 C.ar    1  UNL1       -0.0042
     21 C          49.0499   11.3301  -25.6854 C.ar    1  UNL1        0.0012
     22 C          48.2984   11.2612  -24.5040 C.ar    1  UNL1        0.0174
     23 C          48.7289   10.4326  -23.4582 C.ar    1  UNL1        0.0012
     24 C          49.9002    9.6814  -23.5917 C.ar    1  UNL1       -0.0042
     25 N          49.1454   14.7302  -23.5401 N.pl3   1  UNL1       -0.2916
     26 C          49.7303   14.2079  -24.7645 C.3     1  UNL1        0.0937
     27 C          49.1375   15.0466  -25.8859 C.3     1  UNL1        0.0391
     28 C          47.8269   15.6092  -25.3083 C.3     1  UNL1        0.0790
     29 C          47.9992   15.5899  -23.7815 C.3     1  UNL1        0.1081
     30 N          47.4088   16.9256  -25.8660 N.3     1  UNL1       -0.2723
     31 C          48.0844   17.2457  -27.1509 C.3     1  UNL1        0.0721
     32 C          49.2117   18.2764  -26.9881 C.3     1  UNL1        0.0174
     33 C          48.7120   19.5890  -26.3603 C.3     1  UNL1        0.0029
     34 C          47.3995   19.4188  -25.5843 C.3     1  UNL1        0.0174
     35 C          47.3356   18.0512  -24.8959 C.3     1  UNL1        0.0721
@<TRIPOS>BOND
     1    18    19    1
     2    19    20   ar
     3    20    21   ar
     4    21    22   ar
     5    22    12    1
     6    12    13   ar
     7    13     1    1
     8     1     2   ar
     9     2     3   ar
    10     3     4    1
    11     3     5   ar
    12     5     6   ar
    13     6     7   ar
    14     7     8    1
    15     7     9   ar
    16     9    10   ar
    17    10    25    1
    18    25    26    1
    19    26    27    1
    20    27    28    1
    21    28    30    1
    22    30    31    1
    23    31    32    1
    24    32    33    1
    25    33    34    1
    26    34    35    1
    27    28    29    1
    28    10    11   ar
    29    13    14   ar
    30    14    15   ar
    31    15    16   ar
    32    16    17    1
    33    22    23   ar
    34    23    24   ar
    35    24    19   ar
    36    16    12   ar
    37    11     1   ar
    38    11     5   ar
    39    29    25    1
    40    35    30    1
