@<TRIPOS>MOLECULE
*****
 45 50 0 0 0
SMALL
GASTEIGER

@<TRIPOS>ATOM
      1 C          11.8042   81.5226   25.3399 C.ar    1  UNL1        0.0702
      2 C          12.7043   82.0921   26.2479 C.ar    1  UNL1        0.0191
      3 C          13.5173   83.1578   25.8596 C.ar    1  UNL1        0.0356
      4 C          13.4378   83.6491   24.5452 C.ar    1  UNL1        0.1318
      5 N          12.5765   83.0571   23.6705 N.ar    1  UNL1       -0.2279
      6 C          11.7729   82.0207   24.0277 C.ar    1  UNL1        0.1149
      7 N          14.2632   84.7485   24.1030 N.pl3   1  UNL1       -0.2932
      8 C          15.1648   84.5962   22.9478 C.3     1  UNL1        0.0923
      9 C          16.3357   85.5835   23.0261 C.3     1  UNL1        0.0252
     10 C          15.8688   87.0542   23.1678 C.3     1  UNL1        0.0472
     11 C          14.5186   87.1881   23.9178 C.3     1  UNL1        0.0252
     12 C          14.2595   86.0100   24.8597 C.3     1  UNL1        0.0923
     13 C          15.8009   87.7450   21.7899 C.3     1  UNL1        0.2054
     14 O          14.5172   87.5705   21.1871 O.3     1  UNL1       -0.4746
     15 C          14.1764   86.5791   20.2505 C.ar    1  UNL1        0.1492
     16 C          15.1245   85.6806   19.7197 C.ar    1  UNL1        0.0442
     17 C          14.7428   84.7044   18.7822 C.ar    1  UNL1        0.0785
     18 C          13.3979   84.6299   18.3824 C.ar    1  UNL1        0.0075
     19 C          12.4545   85.5127   18.9100 C.ar    1  UNL1        0.0147
     20 C          12.8385   86.4819   19.8401 C.ar    1  UNL1        0.0915
     21 CL         11.6283   87.5839   20.4797 Cl      1  UNL1       -0.0791
     22 C          15.7460   83.7685   18.2263 C.2     1  UNL1        0.3381
     23 O          16.2030   83.9388   17.0636 O.2     1  UNL1       -0.2451
     24 O          16.1961   82.6898   18.9834 O.3     1  UNL1       -0.4771
     25 H          16.8828   82.0441   18.6124 H       1  UNL1        0.2954
     26 C          11.4785   79.0669   25.8953 C.2     1  UNL1        0.2839
     27 O          12.6033   78.7457   25.4259 O.2     1  UNL1       -0.2665
     28 N          10.9897   80.4099   25.7477 N.am    1  UNL1       -0.2766
     29 H           9.9636   80.5734   25.8618 H       1  UNL1        0.1553
     30 C           8.3588   78.5186   25.4052 C.3     1  UNL1        0.0345
     31 C           9.2796   77.8088   26.3515 C.ar    1  UNL1        0.0202
     32 C          10.6415   78.0519   26.5631 C.ar    1  UNL1        0.1946
     33 O          11.1127   77.2204   27.4753 O.2     1  UNL1       -0.4492
     34 C          10.1266   76.4509   27.8668 C.ar    1  UNL1        0.1452
     35 C          10.1748   75.4334   28.8131 C.ar    1  UNL1        0.0375
     36 C           8.9907   74.7256   29.0822 C.ar    1  UNL1        0.0031
     37 C           7.7821   75.0435   28.4057 C.ar    1  UNL1        0.0002
     38 C           7.7761   76.0874   27.4495 C.ar    1  UNL1        0.0028
     39 C           8.9698   76.7691   27.2075 C.ar    1  UNL1        0.0337
     40 C           6.5372   74.2887   28.6983 C.ar    1  UNL1        0.0000
     41 C           5.7661   74.5931   29.8364 C.ar    1  UNL1        0.0000
     42 C           4.5949   73.8799   30.1098 C.ar    1  UNL1        0.0000
     43 C           4.1800   72.8581   29.2529 C.ar    1  UNL1        0.0000
     44 C           4.9359   72.5468   28.1207 C.ar    1  UNL1        0.0000
     45 C           6.1085   73.2559   27.8427 C.ar    1  UNL1        0.0000
@<TRIPOS>BOND
     1    30    31    1
     2    31    32   ar
     3    32    26    1
     4    26    27    2
     5    26    28   am
     6    28     1    1
     7     1     2   ar
     8     2     3   ar
     9     3     4   ar
    10     4     7    1
    11     7     8    1
    12     8     9    1
    13     9    10    1
    14    10    13    1
    15    13    14    1
    16    14    15    1
    17    15    16   ar
    18    16    17   ar
    19    17    22    1
    20    22    23    2
    21    22    24    1
    22    17    18   ar
    23    18    19   ar
    24    19    20   ar
    25    20    21    1
    26    10    11    1
    27    11    12    1
    28     4     5   ar
    29     5     6   ar
    30    32    33   ar
    31    33    34   ar
    32    34    35   ar
    33    35    36   ar
    34    36    37   ar
    35    37    40    1
    36    40    41   ar
    37    41    42   ar
    38    42    43   ar
    39    43    44   ar
    40    44    45   ar
    41    37    38   ar
    42    38    39   ar
    43    39    31   ar
    44     6     1   ar
    45    39    34   ar
    46    12     7    1
    47    45    40   ar
    48    20    15   ar
    49    28    29    1
    50    24    25    1
@<TRIPOS>MOLECULE
*****
 45 50 0 0 0
SMALL
GASTEIGER

@<TRIPOS>ATOM
      1 C          11.5421   81.2155   25.3807 C.ar    1  UNL1        0.0702
      2 C          12.3754   81.8523   26.3075 C.ar    1  UNL1        0.0191
      3 C          13.1930   82.9108   25.9091 C.ar    1  UNL1        0.0356
      4 C          13.1859   83.3267   24.5666 C.ar    1  UNL1        0.1318
      5 N          12.3896   82.6701   23.6767 N.ar    1  UNL1       -0.2279
      6 C          11.5828   81.6394   24.0430 C.ar    1  UNL1        0.1149
      7 N          14.0185   84.4162   24.1134 N.pl3   1  UNL1       -0.2932
      8 C          14.5466   84.4387   22.7382 C.3     1  UNL1        0.0923
      9 C          15.8301   85.2737   22.6522 C.3     1  UNL1        0.0252
     10 C          15.6432   86.7141   23.1920 C.3     1  UNL1        0.0472
     11 C          14.5773   86.8033   24.3142 C.3     1  UNL1        0.0252
     12 C          14.4051   85.4764   25.0570 C.3     1  UNL1        0.0923
     13 C          15.3149   87.6930   22.0456 C.3     1  UNL1        0.2054
     14 O          14.7521   87.0070   20.9256 O.3     1  UNL1       -0.4746
     15 C          13.8075   87.5344   20.0279 C.ar    1  UNL1        0.1492
     16 C          14.1493   87.9434   18.7226 C.ar    1  UNL1        0.0442
     17 C          13.1742   88.4687   17.8559 C.ar    1  UNL1        0.0785
     18 C          11.8474   88.5766   18.3054 C.ar    1  UNL1        0.0075
     19 C          11.5029   88.1667   19.5942 C.ar    1  UNL1        0.0147
     20 C          12.4752   87.6469   20.4523 C.ar    1  UNL1        0.0915
     21 CL         12.0111   87.1472   22.0719 Cl      1  UNL1       -0.0791
     22 C          13.5431   88.9004   16.4889 C.2     1  UNL1        0.3381
     23 O          12.6899   88.8803   15.5607 O.2     1  UNL1       -0.2451
     24 O          14.8376   89.3343   16.2144 O.3     1  UNL1       -0.4771
     25 H          15.0999   89.6324   15.2824 H       1  UNL1        0.2954
     26 C          11.2159   78.7782   26.0118 C.2     1  UNL1        0.2839
     27 O          12.3577   78.4500   25.5907 O.2     1  UNL1       -0.2665
     28 N          10.7226   80.1111   25.8011 N.am    1  UNL1       -0.2766
     29 H           9.6922   80.2701   25.8761 H       1  UNL1        0.1553
     30 C           8.1134   78.1990   25.4526 C.3     1  UNL1        0.0345
     31 C           9.0104   77.5239   26.4461 C.ar    1  UNL1        0.0202
     32 C          10.3648   77.7805   26.6877 C.ar    1  UNL1        0.1946
     33 O          10.8138   76.9804   27.6385 O.2     1  UNL1       -0.4492
     34 C           9.8204   76.2186   28.0264 C.ar    1  UNL1        0.1452
     35 C           9.8463   75.2315   29.0053 C.ar    1  UNL1        0.0375
     36 C           8.6581   74.5265   29.2636 C.ar    1  UNL1        0.0031
     37 C           7.4676   74.8169   28.5439 C.ar    1  UNL1        0.0002
     38 C           7.4840   75.8303   27.5555 C.ar    1  UNL1        0.0028
     39 C           8.6811   76.5101   27.3254 C.ar    1  UNL1        0.0337
     40 C           6.2182   74.0653   28.8254 C.ar    1  UNL1        0.0000
     41 C           5.8359   72.9816   28.0118 C.ar    1  UNL1        0.0000
     42 C           4.6584   72.2764   28.2788 C.ar    1  UNL1        0.0000
     43 C           3.8512   72.6427   29.3581 C.ar    1  UNL1        0.0000
     44 C           4.2195   73.7154   30.1727 C.ar    1  UNL1        0.0000
     45 C           5.3955   74.4249   29.9100 C.ar    1  UNL1        0.0000
@<TRIPOS>BOND
     1    30    31    1
     2    31    32   ar
     3    32    26    1
     4    26    27    2
     5    26    28   am
     6    28     1    1
     7     1     2   ar
     8     2     3   ar
     9     3     4   ar
    10     4     7    1
    11     7     8    1
    12     8     9    1
    13     9    10    1
    14    10    13    1
    15    13    14    1
    16    14    15    1
    17    15    16   ar
    18    16    17   ar
    19    17    22    1
    20    22    23    2
    21    22    24    1
    22    17    18   ar
    23    18    19   ar
    24    19    20   ar
    25    20    21    1
    26    10    11    1
    27    11    12    1
    28     4     5   ar
    29     5     6   ar
    30    32    33   ar
    31    33    34   ar
    32    34    35   ar
    33    35    36   ar
    34    36    37   ar
    35    37    40    1
    36    40    41   ar
    37    41    42   ar
    38    42    43   ar
    39    43    44   ar
    40    44    45   ar
    41    37    38   ar
    42    38    39   ar
    43    39    31   ar
    44     6     1   ar
    45    39    34   ar
    46    12     7    1
    47    45    40   ar
    48    20    15   ar
    49    28    29    1
    50    24    25    1
@<TRIPOS>MOLECULE
*****
 45 50 0 0 0
SMALL
GASTEIGER

@<TRIPOS>ATOM
      1 C          10.5201   81.0725   24.9154 C.ar    1  UNL1        0.0702
      2 C          10.1182   80.3698   23.7737 C.ar    1  UNL1        0.0191
      3 C           9.3912   79.1847   23.8953 C.ar    1  UNL1        0.0356
      4 C           9.0754   78.6916   25.1730 C.ar    1  UNL1        0.1318
      5 N           9.5055   79.3770   26.2696 N.ar    1  UNL1       -0.2279
      6 C          10.2114   80.5347   26.1749 C.ar    1  UNL1        0.1149
      7 N           8.3271   77.4681   25.3420 N.pl3   1  UNL1       -0.2932
      8 C           8.8195   76.4009   26.2305 C.3     1  UNL1        0.0923
      9 C           8.2649   75.0335   25.8125 C.3     1  UNL1        0.0252
     10 C           6.7173   75.0142   25.7367 C.3     1  UNL1        0.0472
     11 C           6.1155   76.3913   25.3559 C.3     1  UNL1        0.0252
     12 C           7.0988   77.2539   24.5615 C.3     1  UNL1        0.0923
     13 C           6.1083   74.4961   27.0562 C.3     1  UNL1        0.2054
     14 O           5.4115   75.5351   27.7467 O.3     1  UNL1       -0.4746
     15 C           5.8420   76.1730   28.9231 C.ar    1  UNL1        0.1492
     16 C           6.6855   77.3027   28.9068 C.ar    1  UNL1        0.0442
     17 C           7.0958   77.9102   30.1070 C.ar    1  UNL1        0.0785
     18 C           6.6488   77.3799   31.3289 C.ar    1  UNL1        0.0075
     19 C           5.8084   76.2659   31.3499 C.ar    1  UNL1        0.0147
     20 C           5.4045   75.6647   30.1552 C.ar    1  UNL1        0.0915
     21 CL          4.3524   74.2585   30.2155 Cl      1  UNL1       -0.0791
     22 C           7.9857   79.0929   30.0806 C.2     1  UNL1        0.3381
     23 O           8.5914   79.4598   31.1238 O.2     1  UNL1       -0.2451
     24 O           8.1634   79.8123   28.9015 O.3     1  UNL1       -0.4771
     25 H           8.7707   80.6227   28.8729 H       1  UNL1        0.2954
     26 C          12.7248   82.3210   24.7540 C.2     1  UNL1        0.2839
     27 O          13.3938   81.3157   25.1151 O.2     1  UNL1       -0.2665
     28 N          11.2887   82.2797   24.7746 N.am    1  UNL1       -0.2766
     29 H          10.7721   83.1884   24.7716 H       1  UNL1        0.1553
     30 C          15.5339   82.5444   23.2268 C.3     1  UNL1        0.0345
     31 C          14.6421   83.6610   23.6797 C.ar    1  UNL1        0.0202
     32 C          13.4163   83.5591   24.3471 C.ar    1  UNL1        0.1946
     33 O          12.9258   84.7640   24.5781 O.2     1  UNL1       -0.4492
     34 C          13.7706   85.6421   24.0955 C.ar    1  UNL1        0.1452
     35 C          13.6527   87.0274   24.1180 C.ar    1  UNL1        0.0375
     36 C          14.6824   87.7870   23.5365 C.ar    1  UNL1        0.0031
     37 C          15.8090   87.1548   22.9443 C.ar    1  UNL1        0.0002
     38 C          15.8903   85.7414   22.9430 C.ar    1  UNL1        0.0028
     39 C          14.8501   85.0188   23.5294 C.ar    1  UNL1        0.0337
     40 C          16.8907   87.9679   22.3328 C.ar    1  UNL1        0.0000
     41 C          16.7800   88.4243   21.0054 C.ar    1  UNL1        0.0000
     42 C          17.8006   89.1890   20.4320 C.ar    1  UNL1        0.0000
     43 C          18.9400   89.5069   21.1744 C.ar    1  UNL1        0.0000
     44 C          19.0616   89.0605   22.4920 C.ar    1  UNL1        0.0000
     45 C          18.0446   88.2947   23.0703 C.ar    1  UNL1        0.0000
@<TRIPOS>BOND
     1    30    31    1
     2    31    32   ar
     3    32    26    1
     4    26    27    2
     5    26    28   am
     6    28     1    1
     7     1     2   ar
     8     2     3   ar
     9     3     4   ar
    10     4     7    1
    11     7     8    1
    12     8     9    1
    13     9    10    1
    14    10    13    1
    15    13    14    1
    16    14    15    1
    17    15    16   ar
    18    16    17   ar
    19    17    22    1
    20    22    23    2
    21    22    24    1
    22    17    18   ar
    23    18    19   ar
    24    19    20   ar
    25    20    21    1
    26    10    11    1
    27    11    12    1
    28     4     5   ar
    29     5     6   ar
    30    32    33   ar
    31    33    34   ar
    32    34    35   ar
    33    35    36   ar
    34    36    37   ar
    35    37    40    1
    36    40    41   ar
    37    41    42   ar
    38    42    43   ar
    39    43    44   ar
    40    44    45   ar
    41    37    38   ar
    42    38    39   ar
    43    39    31   ar
    44     6     1   ar
    45    39    34   ar
    46    12     7    1
    47    45    40   ar
    48    20    15   ar
    49    28    29    1
    50    24    25    1
@<TRIPOS>MOLECULE
*****
 45 50 0 0 0
SMALL
GASTEIGER

@<TRIPOS>ATOM
      1 C           9.9190   79.7525   24.0588 C.ar    1  UNL1        0.0702
      2 C           9.6893   78.7324   24.9891 C.ar    1  UNL1        0.0191
      3 C           8.9688   77.5945   24.6233 C.ar    1  UNL1        0.0356
      4 C           8.4619   77.4833   23.3171 C.ar    1  UNL1        0.1318
      5 N           8.6715   78.5042   22.4390 N.ar    1  UNL1       -0.2279
      6 C           9.3731   79.6197   22.7722 C.ar    1  UNL1        0.1149
      7 N           7.7095   76.3235   22.8996 N.pl3   1  UNL1       -0.2932
      8 C           6.2710   76.2119   23.1975 C.3     1  UNL1        0.0923
      9 C           5.8275   74.7444   23.2412 C.3     1  UNL1        0.0252
     10 C           6.1807   73.9746   21.9437 C.3     1  UNL1        0.0472
     11 C           7.4580   74.5152   21.2511 C.3     1  UNL1        0.0252
     12 C           8.4022   75.2083   22.2361 C.3     1  UNL1        0.0923
     13 C           4.9877   73.9689   20.9653 C.3     1  UNL1        0.2054
     14 O           4.2760   75.2071   21.0111 O.3     1  UNL1       -0.4746
     15 C           4.3619   76.2406   20.0622 C.ar    1  UNL1        0.1492
     16 C           5.3750   77.2206   20.0993 C.ar    1  UNL1        0.0442
     17 C           5.4240   78.2402   19.1319 C.ar    1  UNL1        0.0785
     18 C           4.4506   78.2685   18.1191 C.ar    1  UNL1        0.0075
     19 C           3.4498   77.2968   18.0742 C.ar    1  UNL1        0.0147
     20 C           3.4041   76.2866   19.0383 C.ar    1  UNL1        0.0915
     21 CL          2.1267   75.0824   18.9589 Cl      1  UNL1       -0.0791
     22 C           6.4882   79.2679   19.1816 C.2     1  UNL1        0.3381
     23 O           6.8534   79.8606   18.1304 O.2     1  UNL1       -0.2451
     24 O           7.0968   79.5912   20.3918 O.3     1  UNL1       -0.4771
     25 H           7.8256   80.2935   20.4366 H       1  UNL1        0.2954
     26 C          12.0745   80.9963   24.5606 C.2     1  UNL1        0.2839
     27 O          12.7617   79.9397   24.5498 O.2     1  UNL1       -0.2665
     28 N          10.6430   80.9294   24.4570 N.am    1  UNL1       -0.2766
     29 H          10.0895   81.7590   24.7701 H       1  UNL1        0.1553
     30 C          13.0098   82.3569   27.3079 C.3     1  UNL1        0.0345
     31 C          13.1476   82.9019   25.9182 C.ar    1  UNL1        0.0202
     32 C          12.7370   82.3048   24.7209 C.ar    1  UNL1        0.1946
     33 O          13.0311   83.0901   23.7000 O.2     1  UNL1       -0.4492
     34 C          13.6106   84.1661   24.1733 C.ar    1  UNL1        0.1452
     35 C          14.0856   85.2556   23.4516 C.ar    1  UNL1        0.0375
     36 C          14.6798   86.3112   24.1645 C.ar    1  UNL1        0.0031
     37 C          14.7899   86.2631   25.5805 C.ar    1  UNL1        0.0002
     38 C          14.2929   85.1354   26.2772 C.ar    1  UNL1        0.0028
     39 C          13.7089   84.1059   25.5375 C.ar    1  UNL1        0.0337
     40 C          15.4198   87.3844   26.3228 C.ar    1  UNL1        0.0000
     41 C          16.3694   88.2139   25.6962 C.ar    1  UNL1        0.0000
     42 C          16.9615   89.2684   26.3981 C.ar    1  UNL1        0.0000
     43 C          16.6136   89.5073   27.7294 C.ar    1  UNL1        0.0000
     44 C          15.6729   88.6919   28.3621 C.ar    1  UNL1        0.0000
     45 C          15.0781   87.6354   27.6655 C.ar    1  UNL1        0.0000
@<TRIPOS>BOND
     1    30    31    1
     2    31    32   ar
     3    32    26    1
     4    26    27    2
     5    26    28   am
     6    28     1    1
     7     1     2   ar
     8     2     3   ar
     9     3     4   ar
    10     4     7    1
    11     7     8    1
    12     8     9    1
    13     9    10    1
    14    10    13    1
    15    13    14    1
    16    14    15    1
    17    15    16   ar
    18    16    17   ar
    19    17    22    1
    20    22    23    2
    21    22    24    1
    22    17    18   ar
    23    18    19   ar
    24    19    20   ar
    25    20    21    1
    26    10    11    1
    27    11    12    1
    28     4     5   ar
    29     5     6   ar
    30    32    33   ar
    31    33    34   ar
    32    34    35   ar
    33    35    36   ar
    34    36    37   ar
    35    37    40    1
    36    40    41   ar
    37    41    42   ar
    38    42    43   ar
    39    43    44   ar
    40    44    45   ar
    41    37    38   ar
    42    38    39   ar
    43    39    31   ar
    44     6     1   ar
    45    39    34   ar
    46    12     7    1
    47    45    40   ar
    48    20    15   ar
    49    28    29    1
    50    24    25    1
@<TRIPOS>MOLECULE
*****
 45 50 0 0 0
SMALL
GASTEIGER

@<TRIPOS>ATOM
      1 C           9.9190   80.2591   24.1234 C.ar    1  UNL1        0.0702
      2 C           9.6401   80.1136   22.7596 C.ar    1  UNL1        0.0191
      3 C           8.9030   79.0197   22.3039 C.ar    1  UNL1        0.0356
      4 C           8.4524   78.0550   23.2214 C.ar    1  UNL1        0.1318
      5 N           8.7640   78.2023   24.5399 N.ar    1  UNL1       -0.2279
      6 C           9.4772   79.2611   25.0065 C.ar    1  UNL1        0.1149
      7 N           7.6890   76.9074   22.7905 N.pl3   1  UNL1       -0.2932
      8 C           8.0985   76.1320   21.6065 C.3     1  UNL1        0.0923
      9 C           6.9019   75.4053   20.9804 C.3     1  UNL1        0.0252
     10 C           6.1527   74.5044   21.9943 C.3     1  UNL1        0.0472
     11 C           6.2289   75.0399   23.4472 C.3     1  UNL1        0.0252
     12 C           6.4478   76.5538   23.4962 C.3     1  UNL1        0.0923
     13 C           6.6620   73.0499   21.9191 C.3     1  UNL1        0.2054
     14 O           7.6299   72.7881   22.9372 O.3     1  UNL1       -0.4746
     15 C           9.0217   72.9358   22.8064 C.ar    1  UNL1        0.1492
     16 C           9.7040   74.0930   23.2343 C.ar    1  UNL1        0.0442
     17 C          11.0979   74.2024   23.0828 C.ar    1  UNL1        0.0785
     18 C          11.8077   73.1377   22.5026 C.ar    1  UNL1        0.0075
     19 C          11.1377   71.9875   22.0836 C.ar    1  UNL1        0.0147
     20 C           9.7526   71.8838   22.2347 C.ar    1  UNL1        0.0915
     21 CL          8.9372   70.4256   21.6897 Cl      1  UNL1       -0.0791
     22 C          11.8054   75.4232   23.5303 C.2     1  UNL1        0.3381
     23 O          13.0439   75.5526   23.3321 O.2     1  UNL1       -0.2451
     24 O          11.1089   76.4426   24.1747 O.3     1  UNL1       -0.4771
     25 H          11.5837   77.2823   24.4843 H       1  UNL1        0.2954
     26 C          12.1346   81.4306   24.5280 C.2     1  UNL1        0.2839
     27 O          12.8007   80.3812   24.3182 O.2     1  UNL1       -0.2665
     28 N          10.6995   81.3793   24.5750 N.am    1  UNL1       -0.2766
     29 H          10.1958   82.1672   25.0420 H       1  UNL1        0.1553
     30 C          13.3639   82.4646   27.3017 C.3     1  UNL1        0.0345
     31 C          13.3689   83.1644   25.9759 C.ar    1  UNL1        0.0202
     32 C          12.8301   82.7096   24.7670 C.ar    1  UNL1        0.1946
     33 O          13.0315   83.6053   23.8170 O.2     1  UNL1       -0.4492
     34 C          13.6726   84.6179   24.3474 C.ar    1  UNL1        0.1452
     35 C          14.0889   85.7809   23.7090 C.ar    1  UNL1        0.0375
     36 C          14.7684   86.7458   24.4724 C.ar    1  UNL1        0.0031
     37 C          15.0204   86.5358   25.8551 C.ar    1  UNL1        0.0002
     38 C          14.5791   85.3378   26.4667 C.ar    1  UNL1        0.0028
     39 C          13.9074   84.4018   25.6787 C.ar    1  UNL1        0.0337
     40 C          15.7395   87.5625   26.6514 C.ar    1  UNL1        0.0000
     41 C          16.9134   88.1608   26.1550 C.ar    1  UNL1        0.0000
     42 C          17.5889   89.1265   26.9075 C.ar    1  UNL1        0.0000
     43 C          17.1019   89.5061   28.1602 C.ar    1  UNL1        0.0000
     44 C          15.9383   88.9204   28.6635 C.ar    1  UNL1        0.0000
     45 C          15.2592   87.9535   27.9158 C.ar    1  UNL1        0.0000
@<TRIPOS>BOND
     1    30    31    1
     2    31    32   ar
     3    32    26    1
     4    26    27    2
     5    26    28   am
     6    28     1    1
     7     1     2   ar
     8     2     3   ar
     9     3     4   ar
    10     4     7    1
    11     7     8    1
    12     8     9    1
    13     9    10    1
    14    10    13    1
    15    13    14    1
    16    14    15    1
    17    15    16   ar
    18    16    17   ar
    19    17    22    1
    20    22    23    2
    21    22    24    1
    22    17    18   ar
    23    18    19   ar
    24    19    20   ar
    25    20    21    1
    26    10    11    1
    27    11    12    1
    28     4     5   ar
    29     5     6   ar
    30    32    33   ar
    31    33    34   ar
    32    34    35   ar
    33    35    36   ar
    34    36    37   ar
    35    37    40    1
    36    40    41   ar
    37    41    42   ar
    38    42    43   ar
    39    43    44   ar
    40    44    45   ar
    41    37    38   ar
    42    38    39   ar
    43    39    31   ar
    44     6     1   ar
    45    39    34   ar
    46    12     7    1
    47    45    40   ar
    48    20    15   ar
    49    28    29    1
    50    24    25    1
@<TRIPOS>MOLECULE
*****
 45 50 0 0 0
SMALL
GASTEIGER

@<TRIPOS>ATOM
      1 C          10.5947   81.0916   24.6027 C.ar    1  UNL1        0.0702
      2 C          10.1985   80.6507   25.8706 C.ar    1  UNL1        0.0191
      3 C           9.4714   79.4677   26.0097 C.ar    1  UNL1        0.0356
      4 C           9.1259   78.7262   24.8668 C.ar    1  UNL1        0.1318
      5 N           9.4956   79.1929   23.6410 N.ar    1  UNL1       -0.2279
      6 C          10.2070   80.3401   23.4820 C.ar    1  UNL1        0.1149
      7 N           8.3724   77.4983   24.9675 N.pl3   1  UNL1       -0.2932
      8 C           7.4712   77.0767   23.8809 C.3     1  UNL1        0.0923
      9 C           6.3623   76.1574   24.4076 C.3     1  UNL1        0.0252
     10 C           6.9174   74.9271   25.1688 C.3     1  UNL1        0.0472
     11 C           8.2681   75.2139   25.8738 C.3     1  UNL1        0.0252
     12 C           8.4482   76.6983   26.1996 C.3     1  UNL1        0.0923
     13 C           7.0369   73.7078   24.2311 C.3     1  UNL1        0.2054
     14 O           7.7860   74.0298   23.0577 O.3     1  UNL1       -0.4746
     15 C           9.1866   73.9984   22.9417 C.ar    1  UNL1        0.1492
     16 C           9.9985   75.1046   23.2661 C.ar    1  UNL1        0.0442
     17 C          11.3967   75.0329   23.1334 C.ar    1  UNL1        0.0785
     18 C          11.9794   73.8387   22.6771 C.ar    1  UNL1        0.0075
     19 C          11.1805   72.7388   22.3612 C.ar    1  UNL1        0.0147
     20 C           9.7917   72.8150   22.4931 C.ar    1  UNL1        0.0915
     21 CL          8.8129   71.4154   22.0795 Cl      1  UNL1       -0.0791
     22 C          12.2409   76.2010   23.4714 C.2     1  UNL1        0.3381
     23 O          13.4680   76.2074   23.1816 O.2     1  UNL1       -0.2451
     24 O          11.6871   77.3060   24.1130 O.3     1  UNL1       -0.4771
     25 H          12.2562   78.1105   24.3481 H       1  UNL1        0.2954
     26 C          12.7140   82.4751   24.8014 C.2     1  UNL1        0.2839
     27 O          13.3094   81.5844   25.4655 O.2     1  UNL1       -0.2665
     28 N          11.3233   82.3246   24.4732 N.am    1  UNL1       -0.2766
     29 H          10.7877   83.1809   24.2042 H       1  UNL1        0.1553
     30 C          15.5381   82.6302   23.2935 C.3     1  UNL1        0.0345
     31 C          14.6674   83.7681   23.7345 C.ar    1  UNL1        0.0202
     32 C          13.4350   83.6960   24.3936 C.ar    1  UNL1        0.1946
     33 O          12.9690   84.9123   24.6152 O.2     1  UNL1       -0.4492
     34 C          13.8360   85.7696   24.1345 C.ar    1  UNL1        0.1452
     35 C          13.7479   87.1571   24.1495 C.ar    1  UNL1        0.0375
     36 C          14.7978   87.8915   23.5717 C.ar    1  UNL1        0.0031
     37 C          15.9147   87.2322   22.9907 C.ar    1  UNL1        0.0002
     38 C          15.9655   85.8174   22.9968 C.ar    1  UNL1        0.0028
     39 C          14.9058   85.1203   23.5791 C.ar    1  UNL1        0.0337
     40 C          17.0180   88.0188   22.3831 C.ar    1  UNL1        0.0000
     41 C          16.8874   88.5519   21.0865 C.ar    1  UNL1        0.0000
     42 C          17.9284   89.2913   20.5166 C.ar    1  UNL1        0.0000
     43 C          19.1082   89.5075   21.2320 C.ar    1  UNL1        0.0000
     44 C          19.2499   88.9843   22.5190 C.ar    1  UNL1        0.0000
     45 C          18.2126   88.2433   23.0936 C.ar    1  UNL1        0.0000
@<TRIPOS>BOND
     1    30    31    1
     2    31    32   ar
     3    32    26    1
     4    26    27    2
     5    26    28   am
     6    28     1    1
     7     1     2   ar
     8     2     3   ar
     9     3     4   ar
    10     4     7    1
    11     7     8    1
    12     8     9    1
    13     9    10    1
    14    10    13    1
    15    13    14    1
    16    14    15    1
    17    15    16   ar
    18    16    17   ar
    19    17    22    1
    20    22    23    2
    21    22    24    1
    22    17    18   ar
    23    18    19   ar
    24    19    20   ar
    25    20    21    1
    26    10    11    1
    27    11    12    1
    28     4     5   ar
    29     5     6   ar
    30    32    33   ar
    31    33    34   ar
    32    34    35   ar
    33    35    36   ar
    34    36    37   ar
    35    37    40    1
    36    40    41   ar
    37    41    42   ar
    38    42    43   ar
    39    43    44   ar
    40    44    45   ar
    41    37    38   ar
    42    38    39   ar
    43    39    31   ar
    44     6     1   ar
    45    39    34   ar
    46    12     7    1
    47    45    40   ar
    48    20    15   ar
    49    28    29    1
    50    24    25    1
@<TRIPOS>MOLECULE
*****
 45 50 0 0 0
SMALL
GASTEIGER

@<TRIPOS>ATOM
      1 C          10.6333   81.3006   24.9341 C.ar    1  UNL1        0.0702
      2 C          10.2843   80.5489   23.8063 C.ar    1  UNL1        0.0191
      3 C           9.5426   79.3748   23.9440 C.ar    1  UNL1        0.0356
      4 C           9.1583   78.9422   25.2249 C.ar    1  UNL1        0.1318
      5 N           9.5375   79.6744   26.3099 N.ar    1  UNL1       -0.2279
      6 C          10.2566   80.8225   26.1992 C.ar    1  UNL1        0.1149
      7 N           8.3925   77.7319   25.4105 N.pl3   1  UNL1       -0.2932
      8 C           7.2861   77.6826   26.3822 C.3     1  UNL1        0.0923
      9 C           7.0357   76.2478   26.8627 C.3     1  UNL1        0.0252
     10 C           6.7845   75.2616   25.6942 C.3     1  UNL1        0.0472
     11 C           7.5269   75.6657   24.3946 C.3     1  UNL1        0.0252
     12 C           8.7691   76.5141   24.6765 C.3     1  UNL1        0.0923
     13 C           5.2735   75.0928   25.4319 C.3     1  UNL1        0.2054
     14 O           4.7167   76.2694   24.8423 O.3     1  UNL1       -0.4746
     15 C           3.9408   76.3141   23.6710 C.ar    1  UNL1        0.1492
     16 C           4.1990   75.4860   22.5594 C.ar    1  UNL1        0.0442
     17 C           3.4001   75.5637   21.4047 C.ar    1  UNL1        0.0785
     18 C           2.3324   76.4764   21.3728 C.ar    1  UNL1        0.0075
     19 C           2.0687   77.2934   22.4731 C.ar    1  UNL1        0.0147
     20 C           2.8659   77.2138   23.6176 C.ar    1  UNL1        0.0915
     21 CL          2.5129   78.2618   24.9833 Cl      1  UNL1       -0.0791
     22 C           3.6817   74.6941   20.2404 C.2     1  UNL1        0.3381
     23 O           3.7531   75.1831   19.0804 O.2     1  UNL1       -0.2451
     24 O           3.8715   73.3255   20.4151 O.3     1  UNL1       -0.4771
     25 H           4.0653   72.7219   19.6249 H       1  UNL1        0.2954
     26 C          12.8534   82.5270   24.8244 C.2     1  UNL1        0.2839
     27 O          13.4963   81.5341   25.2598 O.2     1  UNL1       -0.2665
     28 N          11.4177   82.4957   24.7784 N.am    1  UNL1       -0.2766
     29 H          10.9094   83.4066   24.7118 H       1  UNL1        0.1553
     30 C          15.5793   82.6592   23.1435 C.3     1  UNL1        0.0345
     31 C          14.7633   83.8041   23.6637 C.ar    1  UNL1        0.0202
     32 C          13.5737   83.7420   24.3982 C.ar    1  UNL1        0.1946
     33 O          13.1494   84.9622   24.6754 O.2     1  UNL1       -0.4492
     34 C          14.0028   85.8124   24.1592 C.ar    1  UNL1        0.1452
     35 C          13.9462   87.2007   24.2099 C.ar    1  UNL1        0.0375
     36 C          14.9734   87.9267   23.5826 C.ar    1  UNL1        0.0031
     37 C          16.0366   87.2582   22.9175 C.ar    1  UNL1        0.0002
     38 C          16.0567   85.8429   22.8896 C.ar    1  UNL1        0.0028
     39 C          15.0209   85.1544   23.5229 C.ar    1  UNL1        0.0337
     40 C          17.1162   88.0358   22.2581 C.ar    1  UNL1        0.0000
     41 C          16.8952   88.6535   21.0123 C.ar    1  UNL1        0.0000
     42 C          17.9140   89.3842   20.3934 C.ar    1  UNL1        0.0000
     43 C          19.1616   89.5076   21.0089 C.ar    1  UNL1        0.0000
     44 C          19.3933   88.9001   22.2447 C.ar    1  UNL1        0.0000
     45 C          18.3785   88.1673   22.8679 C.ar    1  UNL1        0.0000
@<TRIPOS>BOND
     1    30    31    1
     2    31    32   ar
     3    32    26    1
     4    26    27    2
     5    26    28   am
     6    28     1    1
     7     1     2   ar
     8     2     3   ar
     9     3     4   ar
    10     4     7    1
    11     7     8    1
    12     8     9    1
    13     9    10    1
    14    10    13    1
    15    13    14    1
    16    14    15    1
    17    15    16   ar
    18    16    17   ar
    19    17    22    1
    20    22    23    2
    21    22    24    1
    22    17    18   ar
    23    18    19   ar
    24    19    20   ar
    25    20    21    1
    26    10    11    1
    27    11    12    1
    28     4     5   ar
    29     5     6   ar
    30    32    33   ar
    31    33    34   ar
    32    34    35   ar
    33    35    36   ar
    34    36    37   ar
    35    37    40    1
    36    40    41   ar
    37    41    42   ar
    38    42    43   ar
    39    43    44   ar
    40    44    45   ar
    41    37    38   ar
    42    38    39   ar
    43    39    31   ar
    44     6     1   ar
    45    39    34   ar
    46    12     7    1
    47    45    40   ar
    48    20    15   ar
    49    28    29    1
    50    24    25    1
@<TRIPOS>MOLECULE
*****
 45 50 0 0 0
SMALL
GASTEIGER

@<TRIPOS>ATOM
      1 C          10.4757   81.0204   24.7364 C.ar    1  UNL1        0.0702
      2 C          10.2043   80.2650   23.5898 C.ar    1  UNL1        0.0191
      3 C           9.4775   79.0774   23.6842 C.ar    1  UNL1        0.0356
      4 C           9.0297   78.6351   24.9409 C.ar    1  UNL1        0.1318
      5 N           9.3340   79.3716   26.0464 N.ar    1  UNL1       -0.2279
      6 C          10.0372   80.5328   25.9778 C.ar    1  UNL1        0.1149
      7 N           8.2768   77.4108   25.0817 N.pl3   1  UNL1       -0.2932
      8 C           8.8445   76.2560   25.7992 C.3     1  UNL1        0.0923
      9 C           8.2109   74.9431   25.3229 C.3     1  UNL1        0.0252
     10 C           6.6652   74.9514   25.4323 C.3     1  UNL1        0.0472
     11 C           6.0566   76.3667   25.2592 C.3     1  UNL1        0.0252
     12 C           6.9598   77.2896   24.4378 C.3     1  UNL1        0.0923
     13 C           6.2042   74.3155   26.7603 C.3     1  UNL1        0.2054
     14 O           7.0771   74.6715   27.8341 O.3     1  UNL1       -0.4746
     15 C           6.7903   75.5931   28.8561 C.ar    1  UNL1        0.1492
     16 C           5.4728   75.9694   29.1888 C.ar    1  UNL1        0.0442
     17 C           5.2287   76.8973   30.2169 C.ar    1  UNL1        0.0785
     18 C           6.3175   77.4439   30.9167 C.ar    1  UNL1        0.0075
     19 C           7.6230   77.0694   30.5957 C.ar    1  UNL1        0.0147
     20 C           7.8609   76.1483   29.5725 C.ar    1  UNL1        0.0915
     21 CL          9.5167   75.7034   29.1869 Cl      1  UNL1       -0.0791
     22 C           3.8424   77.2905   30.5559 C.2     1  UNL1        0.3381
     23 O           3.6064   78.4149   31.0755 O.2     1  UNL1       -0.2451
     24 O           2.7838   76.4216   30.3033 O.3     1  UNL1       -0.4771
     25 H           1.8315   76.6815   30.5310 H       1  UNL1        0.2954
     26 C          12.6819   82.2727   24.6392 C.2     1  UNL1        0.2839
     27 O          13.3438   81.2641   25.0045 O.2     1  UNL1       -0.2665
     28 N          11.2458   82.2298   24.6265 N.am    1  UNL1       -0.2766
     29 H          10.7283   83.1379   24.6216 H       1  UNL1        0.1553
     30 C          15.5583   82.5172   23.2463 C.3     1  UNL1        0.0345
     31 C          14.6362   83.6270   23.6530 C.ar    1  UNL1        0.0202
     32 C          13.3810   83.5159   24.2619 C.ar    1  UNL1        0.1946
     33 O          12.8696   84.7170   24.4657 O.2     1  UNL1       -0.4492
     34 C          13.7286   85.6013   24.0211 C.ar    1  UNL1        0.1452
     35 C          13.5976   86.9855   24.0339 C.ar    1  UNL1        0.0375
     36 C          14.6470   87.7528   23.4995 C.ar    1  UNL1        0.0031
     37 C          15.8059   87.1291   22.9633 C.ar    1  UNL1        0.0002
     38 C          15.8996   85.7166   22.9701 C.ar    1  UNL1        0.0028
     39 C          14.8392   84.9862   23.5087 C.ar    1  UNL1        0.0337
     40 C          16.9082   87.9503   22.4013 C.ar    1  UNL1        0.0000
     41 C          16.8164   88.4765   21.0986 C.ar    1  UNL1        0.0000
     42 C          17.8564   89.2486   20.5718 C.ar    1  UNL1        0.0000
     43 C          18.9965   89.5045   21.3367 C.ar    1  UNL1        0.0000
     44 C          19.0995   88.9885   22.6303 C.ar    1  UNL1        0.0000
     45 C          18.0630   88.2150   23.1620 C.ar    1  UNL1        0.0000
@<TRIPOS>BOND
     1    30    31    1
     2    31    32   ar
     3    32    26    1
     4    26    27    2
     5    26    28   am
     6    28     1    1
     7     1     2   ar
     8     2     3   ar
     9     3     4   ar
    10     4     7    1
    11     7     8    1
    12     8     9    1
    13     9    10    1
    14    10    13    1
    15    13    14    1
    16    14    15    1
    17    15    16   ar
    18    16    17   ar
    19    17    22    1
    20    22    23    2
    21    22    24    1
    22    17    18   ar
    23    18    19   ar
    24    19    20   ar
    25    20    21    1
    26    10    11    1
    27    11    12    1
    28     4     5   ar
    29     5     6   ar
    30    32    33   ar
    31    33    34   ar
    32    34    35   ar
    33    35    36   ar
    34    36    37   ar
    35    37    40    1
    36    40    41   ar
    37    41    42   ar
    38    42    43   ar
    39    43    44   ar
    40    44    45   ar
    41    37    38   ar
    42    38    39   ar
    43    39    31   ar
    44     6     1   ar
    45    39    34   ar
    46    12     7    1
    47    45    40   ar
    48    20    15   ar
    49    28    29    1
    50    24    25    1
@<TRIPOS>MOLECULE
*****
 45 50 0 0 0
SMALL
GASTEIGER

@<TRIPOS>ATOM
      1 C          10.6523   81.1707   24.9883 C.ar    1  UNL1        0.0702
      2 C          10.2293   80.4757   23.8494 C.ar    1  UNL1        0.0191
      3 C           9.5110   79.2859   23.9764 C.ar    1  UNL1        0.0356
      4 C           9.2254   78.7802   25.2563 C.ar    1  UNL1        0.1318
      5 N           9.6757   79.4584   26.3493 N.ar    1  UNL1       -0.2279
      6 C          10.3736   80.6205   26.2494 C.ar    1  UNL1        0.1149
      7 N           8.4870   77.5515   25.4308 N.pl3   1  UNL1       -0.2932
      8 C           7.0424   77.5756   25.7190 C.3     1  UNL1        0.0923
      9 C           6.6033   76.3017   26.4515 C.3     1  UNL1        0.0252
     10 C           6.9891   75.0100   25.6874 C.3     1  UNL1        0.0472
     11 C           8.2801   75.1715   24.8444 C.3     1  UNL1        0.0252
     12 C           9.1989   76.2647   25.3950 C.3     1  UNL1        0.0923
     13 C           5.8191   74.5200   24.8091 C.3     1  UNL1        0.2054
     14 O           5.8648   75.1129   23.5098 O.3     1  UNL1       -0.4746
     15 C           4.7526   75.5095   22.7471 C.ar    1  UNL1        0.1492
     16 C           3.8946   76.5548   23.1460 C.ar    1  UNL1        0.0442
     17 C           2.7903   76.9192   22.3551 C.ar    1  UNL1        0.0785
     18 C           2.5534   76.2304   21.1537 C.ar    1  UNL1        0.0075
     19 C           3.4036   75.1995   20.7513 C.ar    1  UNL1        0.0147
     20 C           4.4987   74.8399   21.5409 C.ar    1  UNL1        0.0915
     21 CL          5.5459   73.5321   21.0106 Cl      1  UNL1       -0.0791
     22 C           1.8918   78.0145   22.7842 C.2     1  UNL1        0.3381
     23 O           2.3597   79.1507   23.0670 O.2     1  UNL1       -0.2451
     24 O           0.5190   77.8008   22.8793 O.3     1  UNL1       -0.4771
     25 H          -0.1044   78.5440   23.1714 H       1  UNL1        0.2954
     26 C          12.8403   82.4582   24.9743 C.2     1  UNL1        0.2839
     27 O          13.4820   81.4989   25.4809 O.2     1  UNL1       -0.2665
     28 N          11.4117   82.3830   24.8414 N.am    1  UNL1       -0.2766
     29 H          10.8836   83.2760   24.7136 H       1  UNL1        0.1553
     30 C          15.4377   82.6251   23.1037 C.3     1  UNL1        0.0345
     31 C          14.6855   83.7573   23.7359 C.ar    1  UNL1        0.0202
     32 C          13.5520   83.6800   24.5530 C.ar    1  UNL1        0.1946
     33 O          13.1740   84.8924   24.9176 O.2     1  UNL1       -0.4492
     34 C          14.0044   85.7520   24.3798 C.ar    1  UNL1        0.1452
     35 C          13.9799   87.1370   24.4994 C.ar    1  UNL1        0.0375
     36 C          14.9728   87.8749   23.8322 C.ar    1  UNL1        0.0031
     37 C          15.9706   87.2214   23.0595 C.ar    1  UNL1        0.0002
     38 C          15.9598   85.8090   22.9640 C.ar    1  UNL1        0.0028
     39 C          14.9595   85.1083   23.6396 C.ar    1  UNL1        0.0337
     40 C          17.0145   88.0116   22.3588 C.ar    1  UNL1        0.0000
     41 C          16.8202   88.4358   21.0304 C.ar    1  UNL1        0.0000
     42 C          17.8054   89.1789   20.3729 C.ar    1  UNL1        0.0000
     43 C          18.9924   89.5072   21.0316 C.ar    1  UNL1        0.0000
     44 C          19.1970   89.0926   22.3493 C.ar    1  UNL1        0.0000
     45 C          18.2157   88.3485   23.0115 C.ar    1  UNL1        0.0000
@<TRIPOS>BOND
     1    30    31    1
     2    31    32   ar
     3    32    26    1
     4    26    27    2
     5    26    28   am
     6    28     1    1
     7     1     2   ar
     8     2     3   ar
     9     3     4   ar
    10     4     7    1
    11     7     8    1
    12     8     9    1
    13     9    10    1
    14    10    13    1
    15    13    14    1
    16    14    15    1
    17    15    16   ar
    18    16    17   ar
    19    17    22    1
    20    22    23    2
    21    22    24    1
    22    17    18   ar
    23    18    19   ar
    24    19    20   ar
    25    20    21    1
    26    10    11    1
    27    11    12    1
    28     4     5   ar
    29     5     6   ar
    30    32    33   ar
    31    33    34   ar
    32    34    35   ar
    33    35    36   ar
    34    36    37   ar
    35    37    40    1
    36    40    41   ar
    37    41    42   ar
    38    42    43   ar
    39    43    44   ar
    40    44    45   ar
    41    37    38   ar
    42    38    39   ar
    43    39    31   ar
    44     6     1   ar
    45    39    34   ar
    46    12     7    1
    47    45    40   ar
    48    20    15   ar
    49    28    29    1
    50    24    25    1
