@<TRIPOS>MOLECULE
*****
 51 56 0 0 0
SMALL
GASTEIGER

@<TRIPOS>ATOM
      1 O          14.8130   82.0803   24.5559 O.2     1  UNL1       -0.2701
      2 C          13.5989   82.4193   24.6092 C.2     1  UNL1        0.2483
      3 N          13.2142   83.7576   24.2536 N.am    1  UNL1       -0.2945
      4 H          12.2087   83.9322   24.0337 H       1  UNL1        0.1501
      5 C          12.5830   81.4136   24.9952 C.ar    1  UNL1        0.0808
      6 C          11.3244   81.8398   25.4521 C.ar    1  UNL1        0.0080
      7 C          10.3539   80.9094   25.8321 C.ar    1  UNL1        0.0148
      8 C          10.6182   79.5345   25.7531 C.ar    1  UNL1        0.0502
      9 C          11.8689   79.1046   25.2826 C.ar    1  UNL1        0.0443
     10 C          12.8430   80.0325   24.9011 C.ar    1  UNL1        0.1457
     11 F          14.0142   79.5748   24.3932 F       1  UNL1       -0.2040
     12 N           9.6152   78.5806   26.1510 N.pl3   1  UNL1       -0.3040
     13 C           9.3442   77.3962   25.3291 C.3     1  UNL1        0.1123
     14 C           9.0655   76.1838   26.2216 C.3     1  UNL1        0.1136
     15 N           8.1093   76.5331   27.2822 N.pl3   1  UNL1       -0.2897
     16 C           8.3844   77.7282   28.0906 C.3     1  UNL1        0.1136
     17 C           8.6348   78.9313   27.1840 C.3     1  UNL1        0.1123
     18 C           7.0999   75.5983   27.7145 C.ar    1  UNL1        0.1318
     19 C           6.7719   74.4702   26.9449 C.ar    1  UNL1        0.0343
     20 C           5.7909   73.5873   27.3987 C.ar    1  UNL1        0.0083
     21 C           5.1245   73.8320   28.6086 C.ar    1  UNL1        0.0906
     22 C           5.5054   74.9514   29.3644 C.ar    1  UNL1        0.1041
     23 N           6.4648   75.7964   28.9028 N.ar    1  UNL1       -0.2292
     24 C           4.0998   72.8594   29.1344 C.3     1  UNL1        0.4200
     25 F           2.8401   73.1692   28.6515 F       1  UNL1       -0.1658
     26 F           4.4077   71.5677   28.7438 F       1  UNL1       -0.1658
     27 F           4.0808   72.9204   30.5152 F       1  UNL1       -0.1658
     28 C          14.2007   84.7746   23.8692 C.3     1  UNL1        0.1535
     29 C          14.5799   84.6298   22.4158 C.2     1  UNL1        0.2443
     30 O          15.3694   83.7118   22.0603 O.2     1  UNL1       -0.2730
     31 N          14.0376   85.5389   21.4449 N.am    1  UNL1       -0.2821
     32 H          13.5167   86.3723   21.7989 H       1  UNL1        0.1549
     33 C          14.2460   85.4123   20.0266 C.ar    1  UNL1        0.0589
     34 C          15.1376   84.4539   19.5154 C.ar    1  UNL1        0.0358
     35 C          15.3018   84.3273   18.1351 C.ar    1  UNL1        0.1002
     36 N          14.5959   85.1207   17.2886 N.ar    1  UNL1       -0.2417
     37 C          13.7172   86.0492   17.7485 C.ar    1  UNL1        0.1059
     38 C          13.5180   86.2123   19.1239 C.ar    1  UNL1        0.0542
     39 S          12.3653   87.4651   19.6930 S.3     1  UNL1       -0.1387
     40 H          13.3741   88.4450   19.7462 H       1  UNL1        0.1072
     41 C          13.6927   86.1958   24.1890 C.3     1  UNL1        0.0569
     42 C          14.6153   86.9765   25.0862 C.ar    1  UNL1       -0.0017
     43 C          14.3875   87.3089   26.4187 C.ar    1  UNL1        0.0681
     44 N          15.4453   87.9810   26.9266 N.ar    1  UNL1       -0.3523
     45 C          16.3382   88.0786   25.9265 C.ar    1  UNL1        0.0563
     46 C          17.5913   88.6882   25.9700 C.ar    1  UNL1        0.0170
     47 C          18.3698   88.6758   24.7982 C.ar    1  UNL1        0.0015
     48 C          17.8824   88.0645   23.6218 C.ar    1  UNL1        0.0001
     49 C          16.6129   87.4590   23.6067 C.ar    1  UNL1        0.0012
     50 C          15.8667   87.4804   24.7857 C.ar    1  UNL1        0.0131
     51 H          15.5443   88.3476   27.8993 H       1  UNL1        0.1660
@<TRIPOS>BOND
     1     1     2    2
     2     2     3   am
     3     3    28    1
     4    28    41    1
     5    41    42    1
     6    42    43   ar
     7    43    44   ar
     8    44    45   ar
     9    45    46   ar
    10    46    47   ar
    11    47    48   ar
    12    48    49   ar
    13    49    50   ar
    14    28    29    1
    15    29    30    2
    16    29    31   am
    17    31    33    1
    18    33    34   ar
    19    34    35   ar
    20    35    36   ar
    21    36    37   ar
    22    37    38   ar
    23    38    39    1
    24     2     5    1
    25     5     6   ar
    26     6     7   ar
    27     7     8   ar
    28     8    12    1
    29    12    13    1
    30    13    14    1
    31    14    15    1
    32    15    18    1
    33    18    19   ar
    34    19    20   ar
    35    20    21   ar
    36    21    24    1
    37    24    25    1
    38    24    26    1
    39    24    27    1
    40    21    22   ar
    41    22    23   ar
    42    15    16    1
    43    16    17    1
    44     8     9   ar
    45     9    10   ar
    46    10    11    1
    47    50    42   ar
    48    38    33   ar
    49    10     5   ar
    50    50    45   ar
    51    17    12    1
    52    23    18   ar
    53     3     4    1
    54    44    51    1
    55    31    32    1
    56    39    40    1
@<TRIPOS>MOLECULE
*****
 51 56 0 0 0
SMALL
GASTEIGER

@<TRIPOS>ATOM
      1 O           9.3364   75.3394   28.0261 O.2     1  UNL1       -0.2701
      2 C           8.9455   75.8805   26.9554 C.2     1  UNL1        0.2483
      3 N           7.7817   75.3735   26.2817 N.am    1  UNL1       -0.2945
      4 H           7.3200   75.9908   25.5777 H       1  UNL1        0.1501
      5 C           9.6705   77.0621   26.4352 C.ar    1  UNL1        0.0808
      6 C          11.0753   77.0541   26.4019 C.ar    1  UNL1        0.0080
      7 C          11.7811   78.1617   25.9254 C.ar    1  UNL1        0.0148
      8 C          11.0971   79.2950   25.4630 C.ar    1  UNL1        0.0502
      9 C           9.6934   79.3008   25.4803 C.ar    1  UNL1        0.0443
     10 C           8.9831   78.1943   25.9562 C.ar    1  UNL1        0.1457
     11 F           7.6284   78.2162   25.8971 F       1  UNL1       -0.2040
     12 N          11.8307   80.4353   24.9776 N.pl3   1  UNL1       -0.3040
     13 C          11.1405   81.5232   24.2763 C.3     1  UNL1        0.1123
     14 C          11.7424   82.8746   24.6708 C.3     1  UNL1        0.1136
     15 N          13.2103   82.8229   24.6094 N.pl3   1  UNL1       -0.2897
     16 C          13.8900   81.7221   25.3049 C.3     1  UNL1        0.1136
     17 C          13.2932   80.3822   24.8799 C.3     1  UNL1        0.1123
     18 C          13.9777   83.9503   24.1407 C.ar    1  UNL1        0.1318
     19 C          14.0728   85.1325   24.8928 C.ar    1  UNL1        0.0343
     20 C          14.8274   86.2009   24.4061 C.ar    1  UNL1        0.0083
     21 C          15.4752   86.1018   23.1658 C.ar    1  UNL1        0.0906
     22 C          15.3837   84.8916   22.4612 C.ar    1  UNL1        0.1041
     23 N          14.6441   83.8641   22.9560 N.ar    1  UNL1       -0.2292
     24 C          16.3347   87.2291   22.6531 C.3     1  UNL1        0.4200
     25 F          17.5560   87.2467   23.3042 F       1  UNL1       -0.1658
     26 F          16.5691   87.0856   21.2965 F       1  UNL1       -0.1658
     27 F          15.6886   88.4310   22.8742 F       1  UNL1       -0.1658
     28 C           7.0456   74.2028   26.7746 C.3     1  UNL1        0.1535
     29 C           6.1135   74.5902   27.8964 C.2     1  UNL1        0.2443
     30 O           5.7628   73.7282   28.7487 O.2     1  UNL1       -0.2730
     31 N           5.6319   75.9404   27.9872 N.am    1  UNL1       -0.2821
     32 H           5.8196   76.5774   27.1809 H       1  UNL1        0.1549
     33 C           4.8363   76.4340   29.0800 C.ar    1  UNL1        0.0589
     34 C           3.7960   75.6574   29.6180 C.ar    1  UNL1        0.0358
     35 C           3.0565   76.1426   30.6978 C.ar    1  UNL1        0.1002
     36 N           3.3469   77.3565   31.2330 N.ar    1  UNL1       -0.2417
     37 C           4.3532   78.1279   30.7451 C.ar    1  UNL1        0.1059
     38 C           5.1228   77.6837   29.6642 C.ar    1  UNL1        0.0542
     39 S           6.4288   78.7414   29.0337 S.3     1  UNL1       -0.1387
     40 H           5.5556   79.3677   28.1249 H       1  UNL1        0.1072
     41 C           6.2970   73.4899   25.6294 C.3     1  UNL1        0.0569
     42 C           6.2030   74.3097   24.3704 C.ar    1  UNL1       -0.0017
     43 C           6.9502   74.1312   23.2095 C.ar    1  UNL1        0.0681
     44 N           6.5763   75.0226   22.2639 N.ar    1  UNL1       -0.3523
     45 C           5.6016   75.7643   22.8177 C.ar    1  UNL1        0.0563
     46 C           4.8996   76.8136   22.2258 C.ar    1  UNL1        0.0170
     47 C           3.9119   77.4590   22.9922 C.ar    1  UNL1        0.0015
     48 C           3.6535   77.0483   24.3187 C.ar    1  UNL1        0.0001
     49 C           4.3794   75.9878   24.8905 C.ar    1  UNL1        0.0012
     50 C           5.3474   75.3619   24.1041 C.ar    1  UNL1        0.0131
     51 H           6.9680   75.1125   21.3001 H       1  UNL1        0.1660
@<TRIPOS>BOND
     1     1     2    2
     2     2     3   am
     3     3    28    1
     4    28    41    1
     5    41    42    1
     6    42    43   ar
     7    43    44   ar
     8    44    45   ar
     9    45    46   ar
    10    46    47   ar
    11    47    48   ar
    12    48    49   ar
    13    49    50   ar
    14    28    29    1
    15    29    30    2
    16    29    31   am
    17    31    33    1
    18    33    34   ar
    19    34    35   ar
    20    35    36   ar
    21    36    37   ar
    22    37    38   ar
    23    38    39    1
    24     2     5    1
    25     5     6   ar
    26     6     7   ar
    27     7     8   ar
    28     8    12    1
    29    12    13    1
    30    13    14    1
    31    14    15    1
    32    15    18    1
    33    18    19   ar
    34    19    20   ar
    35    20    21   ar
    36    21    24    1
    37    24    25    1
    38    24    26    1
    39    24    27    1
    40    21    22   ar
    41    22    23   ar
    42    15    16    1
    43    16    17    1
    44     8     9   ar
    45     9    10   ar
    46    10    11    1
    47    50    42   ar
    48    38    33   ar
    49    10     5   ar
    50    50    45   ar
    51    17    12    1
    52    23    18   ar
    53     3     4    1
    54    44    51    1
    55    31    32    1
    56    39    40    1
@<TRIPOS>MOLECULE
*****
 51 56 0 0 0
SMALL
GASTEIGER

@<TRIPOS>ATOM
      1 O          10.4416   76.2494   25.6324 O.2     1  UNL1       -0.2701
      2 C           9.4319   77.0059   25.6229 C.2     1  UNL1        0.2483
      3 N           9.4857   78.2781   26.2894 N.am    1  UNL1       -0.2945
      4 H           8.7656   78.9903   26.0363 H       1  UNL1        0.1501
      5 C           8.2201   76.5861   24.8829 C.ar    1  UNL1        0.0808
      6 C           8.0783   76.9365   23.5295 C.ar    1  UNL1        0.0080
      7 C           6.9387   76.5608   22.8139 C.ar    1  UNL1        0.0148
      8 C           5.9231   75.8186   23.4335 C.ar    1  UNL1        0.0502
      9 C           6.0682   75.4534   24.7811 C.ar    1  UNL1        0.0443
     10 C           7.2072   75.8273   25.5010 C.ar    1  UNL1        0.1457
     11 F           7.3366   75.4007   26.7818 F       1  UNL1       -0.2040
     12 N           4.7487   75.4386   22.6915 N.pl3   1  UNL1       -0.3040
     13 C           3.4474   76.0452   22.9924 C.3     1  UNL1        0.1123
     14 C           2.6617   76.2834   21.7001 C.3     1  UNL1        0.1136
     15 N           2.6952   75.0858   20.8481 N.pl3   1  UNL1       -0.2897
     16 C           4.0025   74.4796   20.5638 C.3     1  UNL1        0.1136
     17 C           4.7602   74.2268   21.8654 C.3     1  UNL1        0.1123
     18 C           1.5420   74.6827   20.0817 C.ar    1  UNL1        0.1318
     19 C           0.8412   75.5988   19.2802 C.ar    1  UNL1        0.0343
     20 C          -0.2687   75.1693   18.5513 C.ar    1  UNL1        0.0083
     21 C          -0.6926   73.8344   18.6296 C.ar    1  UNL1        0.0906
     22 C           0.0549   72.9430   19.4145 C.ar    1  UNL1        0.1041
     23 N           1.1334   73.3840   20.1145 N.ar    1  UNL1       -0.2292
     24 C          -1.8584   73.3466   17.8078 C.3     1  UNL1        0.4200
     25 F          -3.0443   73.8873   18.2740 F       1  UNL1       -0.1658
     26 F          -1.7074   73.7125   16.4815 F       1  UNL1       -0.1658
     27 F          -1.9283   71.9685   17.8900 F       1  UNL1       -0.1658
     28 C          10.6734   78.7180   27.0317 C.3     1  UNL1        0.1535
     29 C          11.7973   79.0642   26.0862 C.2     1  UNL1        0.2443
     30 O          11.8779   80.2278   25.6044 O.2     1  UNL1       -0.2730
     31 N          12.7703   78.0654   25.7412 N.am    1  UNL1       -0.2821
     32 H          12.5802   77.0813   26.0356 H       1  UNL1        0.1549
     33 C          13.9388   78.3288   24.9436 C.ar    1  UNL1        0.0589
     34 C          14.8741   79.2995   25.3405 C.ar    1  UNL1        0.0358
     35 C          16.0160   79.5177   24.5680 C.ar    1  UNL1        0.1002
     36 N          16.2276   78.7884   23.4421 N.ar    1  UNL1       -0.2417
     37 C          15.3499   77.8343   23.0359 C.ar    1  UNL1        0.1059
     38 C          14.1913   77.5789   23.7780 C.ar    1  UNL1        0.0542
     39 S          13.0449   76.3260   23.1966 S.3     1  UNL1       -0.1387
     40 H          12.3229   77.2641   22.4353 H       1  UNL1        0.1072
     41 C          10.3396   79.8905   27.9772 C.3     1  UNL1        0.0569
     42 C           9.6342   79.4649   29.2370 C.ar    1  UNL1       -0.0017
     43 C          10.1388   79.5381   30.5324 C.ar    1  UNL1        0.0681
     44 N           9.2187   79.1057   31.4241 N.ar    1  UNL1       -0.3523
     45 C           8.1385   78.7576   30.7038 C.ar    1  UNL1        0.0563
     46 C           6.9299   78.2548   31.1838 C.ar    1  UNL1        0.0170
     47 C           5.9244   77.9538   30.2470 C.ar    1  UNL1        0.0015
     48 C           6.1481   78.1564   28.8671 C.ar    1  UNL1        0.0001
     49 C           7.3787   78.6628   28.4116 C.ar    1  UNL1        0.0012
     50 C           8.3543   78.9592   29.3643 C.ar    1  UNL1        0.0131
     51 H           9.3293   79.0548   32.4612 H       1  UNL1        0.1660
@<TRIPOS>BOND
     1     1     2    2
     2     2     3   am
     3     3    28    1
     4    28    41    1
     5    41    42    1
     6    42    43   ar
     7    43    44   ar
     8    44    45   ar
     9    45    46   ar
    10    46    47   ar
    11    47    48   ar
    12    48    49   ar
    13    49    50   ar
    14    28    29    1
    15    29    30    2
    16    29    31   am
    17    31    33    1
    18    33    34   ar
    19    34    35   ar
    20    35    36   ar
    21    36    37   ar
    22    37    38   ar
    23    38    39    1
    24     2     5    1
    25     5     6   ar
    26     6     7   ar
    27     7     8   ar
    28     8    12    1
    29    12    13    1
    30    13    14    1
    31    14    15    1
    32    15    18    1
    33    18    19   ar
    34    19    20   ar
    35    20    21   ar
    36    21    24    1
    37    24    25    1
    38    24    26    1
    39    24    27    1
    40    21    22   ar
    41    22    23   ar
    42    15    16    1
    43    16    17    1
    44     8     9   ar
    45     9    10   ar
    46    10    11    1
    47    50    42   ar
    48    38    33   ar
    49    10     5   ar
    50    50    45   ar
    51    17    12    1
    52    23    18   ar
    53     3     4    1
    54    44    51    1
    55    31    32    1
    56    39    40    1
@<TRIPOS>MOLECULE
*****
 51 56 0 0 0
SMALL
GASTEIGER

@<TRIPOS>ATOM
      1 O           9.4357   75.2182   28.0120 O.2     1  UNL1       -0.2701
      2 C           9.0174   75.8194   26.9846 C.2     1  UNL1        0.2483
      3 N           7.7953   75.3972   26.3571 N.am    1  UNL1       -0.2945
      4 H           7.3296   76.0635   25.7022 H       1  UNL1        0.1501
      5 C           9.7737   76.9834   26.4691 C.ar    1  UNL1        0.0808
      6 C           9.5474   78.2561   27.0199 C.ar    1  UNL1        0.0080
      7 C          10.2413   79.3707   26.5423 C.ar    1  UNL1        0.0148
      8 C          11.1827   79.2339   25.5121 C.ar    1  UNL1        0.0502
      9 C          11.4228   77.9616   24.9698 C.ar    1  UNL1        0.0443
     10 C          10.7305   76.8434   25.4450 C.ar    1  UNL1        0.1457
     11 F          11.0377   75.6238   24.9375 F       1  UNL1       -0.2040
     12 N          11.8911   80.3877   25.0209 N.pl3   1  UNL1       -0.3040
     13 C          11.1764   81.4587   24.3181 C.3     1  UNL1        0.1123
     14 C          11.7512   82.8235   24.7066 C.3     1  UNL1        0.1136
     15 N          13.2197   82.8022   24.6411 N.pl3   1  UNL1       -0.2897
     16 C          13.9242   81.7180   25.3380 C.3     1  UNL1        0.1136
     17 C          13.3541   80.3646   24.9191 C.3     1  UNL1        0.1123
     18 C          13.9622   83.9438   24.1664 C.ar    1  UNL1        0.1318
     19 C          14.0681   85.1160   24.9326 C.ar    1  UNL1        0.0343
     20 C          14.7978   86.1987   24.4396 C.ar    1  UNL1        0.0083
     21 C          15.4096   86.1238   23.1794 C.ar    1  UNL1        0.0906
     22 C          15.3088   84.9229   22.4602 C.ar    1  UNL1        0.1041
     23 N          14.5940   83.8812   22.9615 N.ar    1  UNL1       -0.2292
     24 C          16.2428   87.2668   22.6581 C.3     1  UNL1        0.4200
     25 F          16.5512   87.0763   21.3223 F       1  UNL1       -0.1658
     26 F          15.5583   88.4639   22.7783 F       1  UNL1       -0.1658
     27 F          17.4161   87.3435   23.3851 F       1  UNL1       -0.1658
     28 C           7.0271   74.2457   26.8463 C.3     1  UNL1        0.1535
     29 C           6.0744   74.6636   27.9394 C.2     1  UNL1        0.2443
     30 O           5.6419   73.8064   28.7583 O.2     1  UNL1       -0.2730
     31 N           5.6665   76.0371   28.0411 N.am    1  UNL1       -0.2821
     32 H           5.9218   76.6781   27.2569 H       1  UNL1        0.1549
     33 C           4.8571   76.5538   29.1130 C.ar    1  UNL1        0.0589
     34 C           3.8011   75.7942   29.6448 C.ar    1  UNL1        0.0358
     35 C           3.0480   76.3017   30.7046 C.ar    1  UNL1        0.1002
     36 N           3.3400   77.5209   31.2266 N.ar    1  UNL1       -0.2417
     37 C           4.3609   78.2764   30.7443 C.ar    1  UNL1        0.1059
     38 C           5.1446   77.8095   29.6833 C.ar    1  UNL1        0.0542
     39 S           6.4702   78.8466   29.0593 S.3     1  UNL1       -0.1387
     40 H           5.6178   79.4666   28.1267 H       1  UNL1        0.1072
     41 C           6.2949   73.5306   25.6918 C.3     1  UNL1        0.0569
     42 C           6.4107   74.2453   24.3721 C.ar    1  UNL1       -0.0017
     43 C           5.4441   75.0553   23.7827 C.ar    1  UNL1        0.0681
     44 N           5.9010   75.5660   22.6169 N.ar    1  UNL1       -0.3523
     45 C           7.1464   75.0840   22.4631 C.ar    1  UNL1        0.0563
     46 C           8.0241   75.3337   21.4090 C.ar    1  UNL1        0.0170
     47 C           9.2901   74.7214   21.4483 C.ar    1  UNL1        0.0015
     48 C           9.6450   73.8801   22.5260 C.ar    1  UNL1        0.0001
     49 C           8.7378   73.6445   23.5747 C.ar    1  UNL1        0.0012
     50 C           7.4925   74.2712   23.5123 C.ar    1  UNL1        0.0131
     51 H           5.3871   76.2052   21.9706 H       1  UNL1        0.1660
@<TRIPOS>BOND
     1     1     2    2
     2     2     3   am
     3     3    28    1
     4    28    41    1
     5    41    42    1
     6    42    43   ar
     7    43    44   ar
     8    44    45   ar
     9    45    46   ar
    10    46    47   ar
    11    47    48   ar
    12    48    49   ar
    13    49    50   ar
    14    28    29    1
    15    29    30    2
    16    29    31   am
    17    31    33    1
    18    33    34   ar
    19    34    35   ar
    20    35    36   ar
    21    36    37   ar
    22    37    38   ar
    23    38    39    1
    24     2     5    1
    25     5     6   ar
    26     6     7   ar
    27     7     8   ar
    28     8    12    1
    29    12    13    1
    30    13    14    1
    31    14    15    1
    32    15    18    1
    33    18    19   ar
    34    19    20   ar
    35    20    21   ar
    36    21    24    1
    37    24    25    1
    38    24    26    1
    39    24    27    1
    40    21    22   ar
    41    22    23   ar
    42    15    16    1
    43    16    17    1
    44     8     9   ar
    45     9    10   ar
    46    10    11    1
    47    50    42   ar
    48    38    33   ar
    49    10     5   ar
    50    50    45   ar
    51    17    12    1
    52    23    18   ar
    53     3     4    1
    54    44    51    1
    55    31    32    1
    56    39    40    1
@<TRIPOS>MOLECULE
*****
 51 56 0 0 0
SMALL
GASTEIGER

@<TRIPOS>ATOM
      1 O           9.2650   75.0725   27.4888 O.2     1  UNL1       -0.2701
      2 C           8.9565   75.6584   26.4149 C.2     1  UNL1        0.2483
      3 N           7.8380   75.1923   25.6420 N.am    1  UNL1       -0.2945
      4 H           7.4338   75.8416   24.9315 H       1  UNL1        0.1501
      5 C           9.7287   76.8492   25.9926 C.ar    1  UNL1        0.0808
      6 C           9.4144   78.1071   26.5343 C.ar    1  UNL1        0.0080
      7 C          10.1221   79.2463   26.1428 C.ar    1  UNL1        0.0148
      8 C          11.1648   79.1496   25.2103 C.ar    1  UNL1        0.0502
      9 C          11.4919   77.8923   24.6785 C.ar    1  UNL1        0.0443
     10 C          10.7862   76.7496   25.0677 C.ar    1  UNL1        0.1457
     11 F          11.1753   75.5463   24.5778 F       1  UNL1       -0.2040
     12 N          11.8872   80.3286   24.8073 N.pl3   1  UNL1       -0.3040
     13 C          11.1966   81.4319   24.1308 C.3     1  UNL1        0.1123
     14 C          11.7488   82.7768   24.6108 C.3     1  UNL1        0.1136
     15 N          13.2188   82.7627   24.6043 N.pl3   1  UNL1       -0.2897
     16 C          13.8994   81.6465   25.2739 C.3     1  UNL1        0.1136
     17 C          13.3531   80.3145   24.7643 C.3     1  UNL1        0.1123
     18 C          13.9746   83.9287   24.2186 C.ar    1  UNL1        0.1318
     19 C          14.0255   85.0694   25.0363 C.ar    1  UNL1        0.0343
     20 C          14.7702   86.1773   24.6291 C.ar    1  UNL1        0.0083
     21 C          15.4520   86.1591   23.4032 C.ar    1  UNL1        0.0906
     22 C          15.4040   84.9878   22.6316 C.ar    1  UNL1        0.1041
     23 N          14.6732   83.9207   23.0495 N.ar    1  UNL1       -0.2292
     24 C          16.3010   87.3292   22.9761 C.3     1  UNL1        0.4200
     25 F          16.5147   87.3036   21.6088 F       1  UNL1       -0.1658
     26 F          15.6802   88.5245   23.2952 F       1  UNL1       -0.1658
     27 F          17.5204   87.2675   23.6242 F       1  UNL1       -0.1658
     28 C           7.0568   74.0137   26.0366 C.3     1  UNL1        0.1535
     29 C           6.3522   74.2538   27.3492 C.2     1  UNL1        0.2443
     30 O           5.7406   73.3072   27.9171 O.2     1  UNL1       -0.2730
     31 N           6.3833   75.5604   27.9450 N.am    1  UNL1       -0.2821
     32 H           6.7639   76.3460   27.3713 H       1  UNL1        0.1549
     33 C           5.8431   75.8599   29.2448 C.ar    1  UNL1        0.0589
     34 C           6.4697   75.3839   30.4091 C.ar    1  UNL1        0.0358
     35 C           5.9463   75.7116   31.6608 C.ar    1  UNL1        0.1002
     36 N           4.8411   76.4953   31.7541 N.ar    1  UNL1       -0.2417
     37 C           4.2174   76.9819   30.6496 C.ar    1  UNL1        0.1059
     38 C           4.7057   76.6813   29.3732 C.ar    1  UNL1        0.0542
     39 S           3.8409   77.3245   27.9377 S.3     1  UNL1       -0.1387
     40 H           3.0116   76.1898   27.8627 H       1  UNL1        0.1072
     41 C           6.0704   73.5987   24.9254 C.3     1  UNL1        0.0569
     42 C           6.6877   73.5718   23.5527 C.ar    1  UNL1       -0.0017
     43 C           8.0233   73.3201   23.2514 C.ar    1  UNL1        0.0681
     44 N           8.2179   73.3363   21.9133 N.ar    1  UNL1       -0.3523
     45 C           7.0182   73.5984   21.3667 C.ar    1  UNL1        0.0563
     46 C           6.7150   73.7121   20.0105 C.ar    1  UNL1        0.0170
     47 C           5.3830   73.9937   19.6558 C.ar    1  UNL1        0.0015
     48 C           4.3961   74.1571   20.6530 C.ar    1  UNL1        0.0001
     49 C           4.7318   74.0391   22.0139 C.ar    1  UNL1        0.0012
     50 C           6.0591   73.7520   22.3351 C.ar    1  UNL1        0.0131
     51 H           9.1193   73.1764   21.4109 H       1  UNL1        0.1660
@<TRIPOS>BOND
     1     1     2    2
     2     2     3   am
     3     3    28    1
     4    28    41    1
     5    41    42    1
     6    42    43   ar
     7    43    44   ar
     8    44    45   ar
     9    45    46   ar
    10    46    47   ar
    11    47    48   ar
    12    48    49   ar
    13    49    50   ar
    14    28    29    1
    15    29    30    2
    16    29    31   am
    17    31    33    1
    18    33    34   ar
    19    34    35   ar
    20    35    36   ar
    21    36    37   ar
    22    37    38   ar
    23    38    39    1
    24     2     5    1
    25     5     6   ar
    26     6     7   ar
    27     7     8   ar
    28     8    12    1
    29    12    13    1
    30    13    14    1
    31    14    15    1
    32    15    18    1
    33    18    19   ar
    34    19    20   ar
    35    20    21   ar
    36    21    24    1
    37    24    25    1
    38    24    26    1
    39    24    27    1
    40    21    22   ar
    41    22    23   ar
    42    15    16    1
    43    16    17    1
    44     8     9   ar
    45     9    10   ar
    46    10    11    1
    47    50    42   ar
    48    38    33   ar
    49    10     5   ar
    50    50    45   ar
    51    17    12    1
    52    23    18   ar
    53     3     4    1
    54    44    51    1
    55    31    32    1
    56    39    40    1
@<TRIPOS>MOLECULE
*****
 51 56 0 0 0
SMALL
GASTEIGER

@<TRIPOS>ATOM
      1 O           9.1902   75.2234   27.4105 O.2     1  UNL1       -0.2701
      2 C           8.8612   75.8266   26.3522 C.2     1  UNL1        0.2483
      3 N           7.7388   75.3622   25.5841 N.am    1  UNL1       -0.2945
      4 H           7.3179   76.0203   24.8917 H       1  UNL1        0.1501
      5 C           9.6137   77.0349   25.9443 C.ar    1  UNL1        0.0808
      6 C          10.9507   76.9118   25.5299 C.ar    1  UNL1        0.0080
      7 C          11.6838   78.0391   25.1508 C.ar    1  UNL1        0.0148
      8 C          11.0923   79.3103   25.1683 C.ar    1  UNL1        0.0502
      9 C           9.7522   79.4354   25.5670 C.ar    1  UNL1        0.0443
     10 C           9.0148   78.3097   25.9470 C.ar    1  UNL1        0.1457
     11 F           7.7057   78.4662   26.2648 F       1  UNL1       -0.2040
     12 N          11.8550   80.4689   24.7810 N.pl3   1  UNL1       -0.3040
     13 C          11.2215   81.5665   24.0421 C.3     1  UNL1        0.1123
     14 C          11.7671   82.9138   24.5229 C.3     1  UNL1        0.1136
     15 N          13.2348   82.8779   24.6002 N.pl3   1  UNL1       -0.2897
     16 C          13.8585   81.7675   25.3319 C.3     1  UNL1        0.1136
     17 C          13.3207   80.4324   24.8216 C.3     1  UNL1        0.1123
     18 C          14.0297   84.0235   24.2323 C.ar    1  UNL1        0.1318
     19 C          14.1160   85.1505   25.0659 C.ar    1  UNL1        0.0343
     20 C          14.8980   86.2387   24.6757 C.ar    1  UNL1        0.0083
     21 C          15.5820   86.2148   23.4512 C.ar    1  UNL1        0.0906
     22 C          15.4974   85.0566   22.6633 C.ar    1  UNL1        0.1041
     23 N          14.7307   84.0085   23.0648 N.ar    1  UNL1       -0.2292
     24 C          16.4703   87.3620   23.0422 C.3     1  UNL1        0.4200
     25 F          15.8986   88.5720   23.3957 F       1  UNL1       -0.1658
     26 F          17.7043   87.2685   23.6622 F       1  UNL1       -0.1658
     27 F          16.6508   87.3320   21.6720 F       1  UNL1       -0.1658
     28 C           6.9769   74.1664   25.9648 C.3     1  UNL1        0.1535
     29 C           6.1346   74.4355   27.1875 C.2     1  UNL1        0.2443
     30 O           5.4374   73.5099   27.6871 O.2     1  UNL1       -0.2730
     31 N           6.1330   75.7458   27.7762 N.am    1  UNL1       -0.2821
     32 H           6.5971   76.5164   27.2454 H       1  UNL1        0.1549
     33 C           5.4570   76.0699   29.0047 C.ar    1  UNL1        0.0589
     34 C           4.2687   76.8199   28.9932 C.ar    1  UNL1        0.0358
     35 C           3.6129   77.0970   30.1937 C.ar    1  UNL1        0.1002
     36 N           4.1157   76.6358   31.3679 N.ar    1  UNL1       -0.2417
     37 C           5.2557   75.8982   31.4140 C.ar    1  UNL1        0.1059
     38 C           5.9478   75.5940   30.2365 C.ar    1  UNL1        0.0542
     39 S           7.4622   74.6360   30.3409 S.3     1  UNL1       -0.1387
     40 H           8.2488   75.7952   30.4766 H       1  UNL1        0.1072
     41 C           6.1263   73.6468   24.7872 C.3     1  UNL1        0.0569
     42 C           5.7253   74.7231   23.8142 C.ar    1  UNL1       -0.0017
     43 C           6.2148   74.8942   22.5223 C.ar    1  UNL1        0.0681
     44 N           5.6043   75.9392   21.9191 N.ar    1  UNL1       -0.3523
     45 C           4.7354   76.4314   22.8190 C.ar    1  UNL1        0.0563
     46 C           3.8726   77.5143   22.6546 C.ar    1  UNL1        0.0170
     47 C           3.0413   77.8625   23.7349 C.ar    1  UNL1        0.0015
     48 C           3.0929   77.1314   24.9423 C.ar    1  UNL1        0.0001
     49 C           3.9752   76.0447   25.0802 C.ar    1  UNL1        0.0012
     50 C           4.7821   75.7180   23.9895 C.ar    1  UNL1        0.0131
     51 H           5.7759   76.2889   20.9503 H       1  UNL1        0.1660
@<TRIPOS>BOND
     1     1     2    2
     2     2     3   am
     3     3    28    1
     4    28    41    1
     5    41    42    1
     6    42    43   ar
     7    43    44   ar
     8    44    45   ar
     9    45    46   ar
    10    46    47   ar
    11    47    48   ar
    12    48    49   ar
    13    49    50   ar
    14    28    29    1
    15    29    30    2
    16    29    31   am
    17    31    33    1
    18    33    34   ar
    19    34    35   ar
    20    35    36   ar
    21    36    37   ar
    22    37    38   ar
    23    38    39    1
    24     2     5    1
    25     5     6   ar
    26     6     7   ar
    27     7     8   ar
    28     8    12    1
    29    12    13    1
    30    13    14    1
    31    14    15    1
    32    15    18    1
    33    18    19   ar
    34    19    20   ar
    35    20    21   ar
    36    21    24    1
    37    24    25    1
    38    24    26    1
    39    24    27    1
    40    21    22   ar
    41    22    23   ar
    42    15    16    1
    43    16    17    1
    44     8     9   ar
    45     9    10   ar
    46    10    11    1
    47    50    42   ar
    48    38    33   ar
    49    10     5   ar
    50    50    45   ar
    51    17    12    1
    52    23    18   ar
    53     3     4    1
    54    44    51    1
    55    31    32    1
    56    39    40    1
@<TRIPOS>MOLECULE
*****
 51 56 0 0 0
SMALL
GASTEIGER

@<TRIPOS>ATOM
      1 O          14.3676   82.8418   24.1203 O.2     1  UNL1       -0.2701
      2 C          13.1400   83.0489   24.3258 C.2     1  UNL1        0.2483
      3 N          12.5759   84.3401   24.0434 N.am    1  UNL1       -0.2945
      4 H          11.5383   84.4074   23.9496 H       1  UNL1        0.1501
      5 C          12.2906   81.9385   24.8136 C.ar    1  UNL1        0.0808
      6 C          10.9195   82.1577   25.0289 C.ar    1  UNL1        0.0080
      7 C          10.1005   81.1280   25.4992 C.ar    1  UNL1        0.0148
      8 C          10.6333   79.8562   25.7535 C.ar    1  UNL1        0.0502
      9 C          11.9996   79.6291   25.5250 C.ar    1  UNL1        0.0443
     10 C          12.8228   80.6568   25.0543 C.ar    1  UNL1        0.1457
     11 F          14.1229   80.3784   24.7871 F       1  UNL1       -0.2040
     12 N           9.7846   78.8004   26.2428 N.pl3   1  UNL1       -0.3040
     13 C           9.6392   78.5673   27.6837 C.3     1  UNL1        0.1123
     14 C           8.1939   78.1866   28.0161 C.3     1  UNL1        0.1136
     15 N           7.7055   77.1565   27.0879 N.pl3   1  UNL1       -0.2897
     16 C           7.8677   77.3951   25.6477 C.3     1  UNL1        0.1136
     17 C           9.3196   77.7486   25.3326 C.3     1  UNL1        0.1123
     18 C           6.8442   76.0921   27.5405 C.ar    1  UNL1        0.1318
     19 C           6.4759   75.0383   26.6882 C.ar    1  UNL1        0.0343
     20 C           5.6424   74.0253   27.1644 C.ar    1  UNL1        0.0083
     21 C           5.1619   74.0658   28.4817 C.ar    1  UNL1        0.0906
     22 C           5.5808   75.1173   29.3115 C.ar    1  UNL1        0.1041
     23 N           6.3942   76.0919   28.8259 N.ar    1  UNL1       -0.2292
     24 C           4.3030   72.9517   29.0234 C.3     1  UNL1        0.4200
     25 F           4.7772   71.7213   28.6026 F       1  UNL1       -0.1658
     26 F           4.3022   72.9653   30.4075 F       1  UNL1       -0.1658
     27 F           3.0072   73.1144   28.5703 F       1  UNL1       -0.1658
     28 C          13.3953   85.4586   23.5609 C.3     1  UNL1        0.1535
     29 C          13.5591   86.5047   24.6362 C.2     1  UNL1        0.2443
     30 O          12.8396   87.5413   24.6199 O.2     1  UNL1       -0.2730
     31 N          14.5339   86.3124   25.6735 N.am    1  UNL1       -0.2821
     32 H          15.2099   85.5237   25.5634 H       1  UNL1        0.1549
     33 C          14.6847   87.1921   26.8024 C.ar    1  UNL1        0.0589
     34 C          14.9339   88.5624   26.6157 C.ar    1  UNL1        0.0358
     35 C          15.0464   89.4033   27.7240 C.ar    1  UNL1        0.1002
     36 N          14.9063   88.9013   28.9781 N.ar    1  UNL1       -0.2417
     37 C          14.6535   87.5841   29.1941 C.ar    1  UNL1        0.1059
     38 C          14.5314   86.7023   28.1145 C.ar    1  UNL1        0.0542
     39 S          14.2195   84.9651   28.4415 S.3     1  UNL1       -0.1387
     40 H          15.5953   84.6734   28.4945 H       1  UNL1        0.1072
     41 C          14.7575   84.9658   23.0301 C.3     1  UNL1        0.0569
     42 C          15.4599   85.9684   22.1542 C.ar    1  UNL1       -0.0017
     43 C          15.2121   86.2049   20.8049 C.ar    1  UNL1        0.0681
     44 N          16.0014   87.2024   20.3462 N.ar    1  UNL1       -0.3523
     45 C          16.7475   87.5966   21.3926 C.ar    1  UNL1        0.0563
     46 C          17.7112   88.6041   21.4105 C.ar    1  UNL1        0.0170
     47 C          18.3793   88.8535   22.6233 C.ar    1  UNL1        0.0015
     48 C          18.0754   88.0967   23.7765 C.ar    1  UNL1        0.0001
     49 C          17.0998   87.0846   23.7281 C.ar    1  UNL1        0.0012
     50 C          16.4485   86.8649   22.5136 C.ar    1  UNL1        0.0131
     51 H          16.0232   87.5859   19.3752 H       1  UNL1        0.1660
@<TRIPOS>BOND
     1     1     2    2
     2     2     3   am
     3     3    28    1
     4    28    41    1
     5    41    42    1
     6    42    43   ar
     7    43    44   ar
     8    44    45   ar
     9    45    46   ar
    10    46    47   ar
    11    47    48   ar
    12    48    49   ar
    13    49    50   ar
    14    28    29    1
    15    29    30    2
    16    29    31   am
    17    31    33    1
    18    33    34   ar
    19    34    35   ar
    20    35    36   ar
    21    36    37   ar
    22    37    38   ar
    23    38    39    1
    24     2     5    1
    25     5     6   ar
    26     6     7   ar
    27     7     8   ar
    28     8    12    1
    29    12    13    1
    30    13    14    1
    31    14    15    1
    32    15    18    1
    33    18    19   ar
    34    19    20   ar
    35    20    21   ar
    36    21    24    1
    37    24    25    1
    38    24    26    1
    39    24    27    1
    40    21    22   ar
    41    22    23   ar
    42    15    16    1
    43    16    17    1
    44     8     9   ar
    45     9    10   ar
    46    10    11    1
    47    50    42   ar
    48    38    33   ar
    49    10     5   ar
    50    50    45   ar
    51    17    12    1
    52    23    18   ar
    53     3     4    1
    54    44    51    1
    55    31    32    1
    56    39    40    1
@<TRIPOS>MOLECULE
*****
 51 56 0 0 0
SMALL
GASTEIGER

@<TRIPOS>ATOM
      1 O          10.6804   75.3820   25.2448 O.2     1  UNL1       -0.2701
      2 C           9.6482   76.0546   25.5169 C.2     1  UNL1        0.2483
      3 N           9.7169   77.1051   26.4953 N.am    1  UNL1       -0.2945
      4 H           8.9528   77.8164   26.4993 H       1  UNL1        0.1501
      5 C           8.3905   75.7775   24.7861 C.ar    1  UNL1        0.0808
      6 C           8.3876   75.7925   23.3810 C.ar    1  UNL1        0.0080
      7 C           7.2106   75.5447   22.6703 C.ar    1  UNL1        0.0148
      8 C           6.0156   75.2666   23.3492 C.ar    1  UNL1        0.0502
      9 C           6.0180   75.2356   24.7526 C.ar    1  UNL1        0.0443
     10 C           7.1938   75.4829   25.4679 C.ar    1  UNL1        0.1457
     11 F           7.1665   75.3813   26.8200 F       1  UNL1       -0.2040
     12 N           4.8047   75.0168   22.6106 N.pl3   1  UNL1       -0.3040
     13 C           3.5694   75.7374   22.9373 C.3     1  UNL1        0.1123
     14 C           2.8002   76.0782   21.6580 C.3     1  UNL1        0.1136
     15 N           2.7130   74.9023   20.7800 N.pl3   1  UNL1       -0.2897
     16 C           3.9544   74.1812   20.4700 C.3     1  UNL1        0.1136
     17 C           4.6945   73.8283   21.7584 C.3     1  UNL1        0.1123
     18 C           1.5208   74.6280   20.0164 C.ar    1  UNL1        0.1318
     19 C           0.8908   75.6304   19.2609 C.ar    1  UNL1        0.0343
     20 C          -0.2601   75.3248   18.5330 C.ar    1  UNL1        0.0083
     21 C          -0.7946   74.0282   18.5669 C.ar    1  UNL1        0.0906
     22 C          -0.1161   73.0471   19.3061 C.ar    1  UNL1        0.1041
     23 N           1.0041   73.3680   20.0060 N.ar    1  UNL1       -0.2292
     24 C          -2.0071   73.6728   17.7449 C.3     1  UNL1        0.4200
     25 F          -2.2967   72.3242   17.8603 F       1  UNL1       -0.1658
     26 F          -3.1117   74.3909   18.1692 F       1  UNL1       -0.1658
     27 F          -1.7599   73.9687   16.4174 F       1  UNL1       -0.1658
     28 C          10.9500   77.3995   27.2355 C.3     1  UNL1        0.1535
     29 C          11.9580   78.0838   26.3450 C.2     1  UNL1        0.2443
     30 O          11.8124   79.3023   26.0508 O.2     1  UNL1       -0.2730
     31 N          13.0790   77.3424   25.8382 N.am    1  UNL1       -0.2821
     32 H          13.0780   76.3070   25.9764 H       1  UNL1        0.1549
     33 C          14.1511   77.9318   25.0804 C.ar    1  UNL1        0.0589
     34 C          15.0649   78.8070   25.6918 C.ar    1  UNL1        0.0358
     35 C          16.1153   79.3436   24.9456 C.ar    1  UNL1        0.1002
     36 N          16.2598   79.0142   23.6360 N.ar    1  UNL1       -0.2417
     37 C          15.4015   78.1623   23.0168 C.ar    1  UNL1        0.1059
     38 C          14.3337   77.5984   23.7238 C.ar    1  UNL1        0.0542
     39 S          13.2083   76.4950   22.8647 S.3     1  UNL1       -0.1387
     40 H          12.3674   77.5592   22.4889 H       1  UNL1        0.1072
     41 C          10.6565   78.2239   28.5060 C.3     1  UNL1        0.0569
     42 C           9.3468   77.8742   29.1604 C.ar    1  UNL1       -0.0017
     43 C           8.3657   78.7694   29.5776 C.ar    1  UNL1        0.0681
     44 N           7.3042   78.1047   30.0875 N.ar    1  UNL1       -0.3523
     45 C           7.6066   76.7980   29.9987 C.ar    1  UNL1        0.0563
     46 C           6.8174   75.7198   30.3969 C.ar    1  UNL1        0.0170
     47 C           7.3326   74.4238   30.2114 C.ar    1  UNL1        0.0015
     48 C           8.6116   74.2369   29.6421 C.ar    1  UNL1        0.0001
     49 C           9.3866   75.3439   29.2519 C.ar    1  UNL1        0.0012
     50 C           8.8466   76.6167   29.4411 C.ar    1  UNL1        0.0131
     51 H           6.4288   78.5256   30.4710 H       1  UNL1        0.1660
@<TRIPOS>BOND
     1     1     2    2
     2     2     3   am
     3     3    28    1
     4    28    41    1
     5    41    42    1
     6    42    43   ar
     7    43    44   ar
     8    44    45   ar
     9    45    46   ar
    10    46    47   ar
    11    47    48   ar
    12    48    49   ar
    13    49    50   ar
    14    28    29    1
    15    29    30    2
    16    29    31   am
    17    31    33    1
    18    33    34   ar
    19    34    35   ar
    20    35    36   ar
    21    36    37   ar
    22    37    38   ar
    23    38    39    1
    24     2     5    1
    25     5     6   ar
    26     6     7   ar
    27     7     8   ar
    28     8    12    1
    29    12    13    1
    30    13    14    1
    31    14    15    1
    32    15    18    1
    33    18    19   ar
    34    19    20   ar
    35    20    21   ar
    36    21    24    1
    37    24    25    1
    38    24    26    1
    39    24    27    1
    40    21    22   ar
    41    22    23   ar
    42    15    16    1
    43    16    17    1
    44     8     9   ar
    45     9    10   ar
    46    10    11    1
    47    50    42   ar
    48    38    33   ar
    49    10     5   ar
    50    50    45   ar
    51    17    12    1
    52    23    18   ar
    53     3     4    1
    54    44    51    1
    55    31    32    1
    56    39    40    1
@<TRIPOS>MOLECULE
*****
 51 56 0 0 0
SMALL
GASTEIGER

@<TRIPOS>ATOM
      1 O           9.3087   75.1525   27.4672 O.2     1  UNL1       -0.2701
      2 C           8.9618   75.7471   26.4098 C.2     1  UNL1        0.2483
      3 N           7.8433   75.2601   25.6499 N.am    1  UNL1       -0.2945
      4 H           7.4058   75.9088   24.9588 H       1  UNL1        0.1501
      5 C           9.6890   76.9682   25.9945 C.ar    1  UNL1        0.0808
      6 C          11.0411   76.8770   25.6227 C.ar    1  UNL1        0.0080
      7 C          11.7506   78.0173   25.2377 C.ar    1  UNL1        0.0148
      8 C          11.1204   79.2695   25.2063 C.ar    1  UNL1        0.0502
      9 C           9.7657   79.3622   25.5621 C.ar    1  UNL1        0.0443
     10 C           9.0518   78.2234   25.9480 C.ar    1  UNL1        0.1457
     11 F           7.7295   78.3465   26.2231 F       1  UNL1       -0.2040
     12 N          11.8588   80.4418   24.8131 N.pl3   1  UNL1       -0.3040
     13 C          11.1840   81.5587   24.1428 C.3     1  UNL1        0.1123
     14 C          11.7525   82.8930   24.6334 C.3     1  UNL1        0.1136
     15 N          13.2222   82.8599   24.6299 N.pl3   1  UNL1       -0.2897
     16 C          13.8868   81.7304   25.2931 C.3     1  UNL1        0.1136
     17 C          13.3246   80.4092   24.7731 C.3     1  UNL1        0.1123
     18 C          13.9938   84.0187   24.2540 C.ar    1  UNL1        0.1318
     19 C          14.0496   85.1568   25.0751 C.ar    1  UNL1        0.0343
     20 C          14.8097   86.2577   24.6774 C.ar    1  UNL1        0.0083
     21 C          15.5021   86.2352   23.4576 C.ar    1  UNL1        0.0906
     22 C          15.4485   85.0665   22.6825 C.ar    1  UNL1        0.1041
     23 N          14.7027   84.0061   23.0912 N.ar    1  UNL1       -0.2292
     24 C          16.3674   87.3972   23.0411 C.3     1  UNL1        0.4200
     25 F          16.2704   87.6137   21.6775 F       1  UNL1       -0.1658
     26 F          15.9765   88.5544   23.6923 F       1  UNL1       -0.1658
     27 F          17.6837   87.1224   23.3614 F       1  UNL1       -0.1658
     28 C           7.1062   74.0513   26.0380 C.3     1  UNL1        0.1535
     29 C           6.4172   74.2481   27.3661 C.2     1  UNL1        0.2443
     30 O           6.0376   73.2458   28.0323 O.2     1  UNL1       -0.2730
     31 N           6.1987   75.5775   27.8643 N.am    1  UNL1       -0.2821
     32 H           6.3857   76.3750   27.2162 H       1  UNL1        0.1549
     33 C           5.6577   75.8647   29.1665 C.ar    1  UNL1        0.0589
     34 C           4.3648   75.4393   29.5158 C.ar    1  UNL1        0.0358
     35 C           3.8710   75.7019   30.7947 C.ar    1  UNL1        0.1002
     36 N           4.6403   76.3578   31.7015 N.ar    1  UNL1       -0.2417
     37 C           5.8985   76.7728   31.4009 C.ar    1  UNL1        0.1059
     38 C           6.4372   76.5317   30.1322 C.ar    1  UNL1        0.0542
     39 S           8.0947   77.1154   29.7660 S.3     1  UNL1       -0.1387
     40 H           7.6133   78.3535   29.3011 H       1  UNL1        0.1072
     41 C           6.1141   73.6234   24.9368 C.3     1  UNL1        0.0569
     42 C           6.7168   73.6076   23.5575 C.ar    1  UNL1       -0.0017
     43 C           8.0537   73.3816   23.2418 C.ar    1  UNL1        0.0681
     44 N           8.2335   73.4008   21.9016 N.ar    1  UNL1       -0.3523
     45 C           7.0230   73.6394   21.3680 C.ar    1  UNL1        0.0563
     46 C           6.7030   73.7464   20.0152 C.ar    1  UNL1        0.0170
     47 C           5.3620   74.0019   19.6748 C.ar    1  UNL1        0.0015
     48 C           4.3830   74.1467   20.6827 C.ar    1  UNL1        0.0001
     49 C           4.7357   74.0361   22.0398 C.ar    1  UNL1        0.0012
     50 C           6.0716   73.7749   22.3468 C.ar    1  UNL1        0.0131
     51 H           9.1323   73.2582   21.3896 H       1  UNL1        0.1660
@<TRIPOS>BOND
     1     1     2    2
     2     2     3   am
     3     3    28    1
     4    28    41    1
     5    41    42    1
     6    42    43   ar
     7    43    44   ar
     8    44    45   ar
     9    45    46   ar
    10    46    47   ar
    11    47    48   ar
    12    48    49   ar
    13    49    50   ar
    14    28    29    1
    15    29    30    2
    16    29    31   am
    17    31    33    1
    18    33    34   ar
    19    34    35   ar
    20    35    36   ar
    21    36    37   ar
    22    37    38   ar
    23    38    39    1
    24     2     5    1
    25     5     6   ar
    26     6     7   ar
    27     7     8   ar
    28     8    12    1
    29    12    13    1
    30    13    14    1
    31    14    15    1
    32    15    18    1
    33    18    19   ar
    34    19    20   ar
    35    20    21   ar
    36    21    24    1
    37    24    25    1
    38    24    26    1
    39    24    27    1
    40    21    22   ar
    41    22    23   ar
    42    15    16    1
    43    16    17    1
    44     8     9   ar
    45     9    10   ar
    46    10    11    1
    47    50    42   ar
    48    38    33   ar
    49    10     5   ar
    50    50    45   ar
    51    17    12    1
    52    23    18   ar
    53     3     4    1
    54    44    51    1
    55    31    32    1
    56    39    40    1
