@<TRIPOS>MOLECULE
*****
 41 45 0 0 0
SMALL
GASTEIGER

@<TRIPOS>ATOM
      1 C         -28.5737   51.9349   -5.7961 C.3     1  UNL1        0.0439
      2 C         -28.0521   50.7948   -6.6811 C.3     1  UNL1        0.1375
      3 C         -28.4866   49.4366   -6.1163 C.3     1  UNL1        0.0439
      4 C         -26.4974   50.8737   -6.8480 C.3     1  UNL1        0.0709
      5 C         -26.3501   51.1164   -8.3047 C.ar    1  UNL1        0.0325
      6 C         -27.5770   51.1575   -8.9176 C.ar    1  UNL1        0.1401
      7 C         -27.7172   51.3819  -10.3110 C.ar    1  UNL1        0.0888
      8 C         -26.5340   51.5297  -11.0846 C.ar    1  UNL1        0.0282
      9 C         -25.2982   51.4774  -10.4236 C.ar    1  UNL1        0.0997
     10 N         -24.0703   51.6025  -10.9575 N.ar    1  UNL1       -0.2137
     11 C         -23.2599   51.4776   -9.8698 C.ar    1  UNL1        0.1984
     12 N         -23.9233   51.2714   -8.7052 N.ar    1  UNL1       -0.3255
     13 C         -25.2082   51.2802   -9.0756 C.ar    1  UNL1        0.0755
     14 O         -28.5853   50.9477   -8.0002 O.3     1  UNL1       -0.4824
     15 H         -23.5262   51.1361   -7.7489 H       1  UNL1        0.1686
     16 C         -29.0468   51.4630  -10.9580 C.2     1  UNL1        0.2525
     17 O         -29.4930   52.5904  -11.3011 O.2     1  UNL1       -0.2697
     18 N         -29.8352   50.2934  -11.2337 N.am    1  UNL1       -0.2785
     19 H         -30.4675   50.3282  -12.0650 H       1  UNL1        0.1552
     20 C         -29.8718   49.1190  -10.4011 C.ar    1  UNL1        0.0806
     21 C         -29.0613   48.0023  -10.6778 C.ar    1  UNL1        0.0210
     22 C         -29.1377   46.8448   -9.8850 C.ar    1  UNL1        0.0750
     23 C         -29.9806   46.8412   -8.7613 C.ar    1  UNL1        0.0359
     24 C         -30.7658   47.9572   -8.4636 C.ar    1  UNL1        0.1686
     25 F         -31.5838   47.9362   -7.3822 F       1  UNL1       -0.2018
     26 C         -30.7148   49.0912   -9.2788 C.ar    1  UNL1        0.1807
     27 F         -31.5011   50.1579   -8.9866 F       1  UNL1       -0.2005
     28 C         -28.2566   45.6593  -10.1890 C.3     1  UNL1        0.4187
     29 F         -28.8882   44.4819   -9.8268 F       1  UNL1       -0.1659
     30 F         -27.0630   45.7408   -9.4927 F       1  UNL1       -0.1659
     31 F         -27.9865   45.6283  -11.5442 F       1  UNL1       -0.1659
     32 N         -21.8294   51.5120   -9.9460 N.pl3   1  UNL1       -0.2816
     33 H         -21.3444   50.7093  -10.4065 H       1  UNL1        0.1551
     34 C         -21.0544   52.6549   -9.5515 C.ar    1  UNL1        0.0889
     35 C         -20.4097   52.6863   -8.2994 C.ar    1  UNL1        0.1543
     36 F         -20.4863   51.6274   -7.4545 F       1  UNL1       -0.2028
     37 C         -19.6433   53.7959   -7.9303 C.ar    1  UNL1        0.0310
     38 C         -19.5031   54.8746   -8.8053 C.ar    1  UNL1        0.0033
     39 C         -20.1223   54.8448  -10.0565 C.ar    1  UNL1        0.0128
     40 C         -20.8913   53.7387  -10.4371 C.ar    1  UNL1        0.0733
     41 CL        -21.6704   53.7513  -12.0139 Cl      1  UNL1       -0.0809
@<TRIPOS>BOND
     1     1     2    1
     2     2     3    1
     3     2     4    1
     4     4     5    1
     5     5     6   ar
     6     6     7   ar
     7     7    16    1
     8    16    17    2
     9    16    18   am
    10    18    20    1
    11    20    21   ar
    12    21    22   ar
    13    22    28    1
    14    28    29    1
    15    28    30    1
    16    28    31    1
    17    22    23   ar
    18    23    24   ar
    19    24    25    1
    20    24    26   ar
    21    26    27    1
    22     7     8   ar
    23     8     9   ar
    24     9    10   ar
    25    10    11   ar
    26    11    32    1
    27    32    34    1
    28    34    35   ar
    29    35    36    1
    30    35    37   ar
    31    37    38   ar
    32    38    39   ar
    33    39    40   ar
    34    40    41    1
    35    11    12   ar
    36    12    13   ar
    37     6    14    1
    38    14     2    1
    39    13     5   ar
    40    26    20   ar
    41    13     9   ar
    42    40    34   ar
    43    18    19    1
    44    32    33    1
    45    12    15    1
@<TRIPOS>MOLECULE
*****
 41 45 0 0 0
SMALL
GASTEIGER

@<TRIPOS>ATOM
      1 C         -30.0840   51.1896   -6.3957 C.3     1  UNL1        0.0439
      2 C         -28.6340   50.7527   -6.1476 C.3     1  UNL1        0.1375
      3 C         -28.3894   50.5335   -4.6493 C.3     1  UNL1        0.0439
      4 C         -27.6213   51.7852   -6.7472 C.3     1  UNL1        0.0709
      5 C         -26.9338   50.9820   -7.7887 C.ar    1  UNL1        0.0325
      6 C         -27.4166   49.6978   -7.8103 C.ar    1  UNL1        0.1401
      7 C         -26.9307   48.7243   -8.7201 C.ar    1  UNL1        0.0888
      8 C         -25.8841   49.1021   -9.6044 C.ar    1  UNL1        0.0282
      9 C         -25.4135   50.4221   -9.5499 C.ar    1  UNL1        0.0997
     10 N         -24.4469   50.9857  -10.2959 N.ar    1  UNL1       -0.2137
     11 C         -24.4164   52.2637   -9.8256 C.ar    1  UNL1        0.1984
     12 N         -25.3009   52.5080   -8.8272 N.ar    1  UNL1       -0.3255
     13 C         -25.9239   51.3350   -8.6722 C.ar    1  UNL1        0.0755
     14 O         -28.3898   49.5288   -6.8478 O.3     1  UNL1       -0.4824
     15 H         -25.4568   53.3980   -8.3036 H       1  UNL1        0.1686
     16 C         -27.4843   47.3514   -8.7624 C.2     1  UNL1        0.2525
     17 O         -26.8029   46.4017   -8.2916 O.2     1  UNL1       -0.2697
     18 N         -28.7876   47.0691   -9.2982 N.am    1  UNL1       -0.2785
     19 H         -29.3075   46.2600   -8.8894 H       1  UNL1        0.1552
     20 C         -29.3839   47.7700  -10.4059 C.ar    1  UNL1        0.0806
     21 C         -29.4751   49.1742  -10.4174 C.ar    1  UNL1        0.0210
     22 C         -30.0989   49.8451  -11.4828 C.ar    1  UNL1        0.0750
     23 C         -30.5656   49.1007  -12.5789 C.ar    1  UNL1        0.0359
     24 C         -30.4515   47.7088  -12.5875 C.ar    1  UNL1        0.1686
     25 F         -30.9166   47.0014  -13.6469 F       1  UNL1       -0.2018
     26 C         -29.8655   47.0440  -11.5069 C.ar    1  UNL1        0.1807
     27 F         -29.7830   45.6896  -11.5229 F       1  UNL1       -0.2005
     28 C         -30.1814   51.3508  -11.4850 C.3     1  UNL1        0.4187
     29 F         -29.7085   51.8594  -12.6825 F       1  UNL1       -0.1659
     30 F         -29.4233   51.8876  -10.4587 F       1  UNL1       -0.1659
     31 F         -31.4990   51.7350  -11.3203 F       1  UNL1       -0.1659
     32 N         -23.5012   53.2569  -10.3045 N.pl3   1  UNL1       -0.2816
     33 H         -23.8682   54.2208  -10.4713 H       1  UNL1        0.1551
     34 C         -22.0893   53.0234  -10.4247 C.ar    1  UNL1        0.0889
     35 C         -21.3674   52.4354   -9.3674 C.ar    1  UNL1        0.1543
     36 F         -21.9966   52.0543   -8.2273 F       1  UNL1       -0.2028
     37 C         -19.9963   52.1960   -9.4993 C.ar    1  UNL1        0.0310
     38 C         -19.3365   52.5279  -10.6840 C.ar    1  UNL1        0.0033
     39 C         -20.0468   53.0934  -11.7449 C.ar    1  UNL1        0.0128
     40 C         -21.4201   53.3366  -11.6245 C.ar    1  UNL1        0.0733
     41 CL        -22.2722   54.0689  -12.9777 Cl      1  UNL1       -0.0809
@<TRIPOS>BOND
     1     1     2    1
     2     2     3    1
     3     2     4    1
     4     4     5    1
     5     5     6   ar
     6     6     7   ar
     7     7    16    1
     8    16    17    2
     9    16    18   am
    10    18    20    1
    11    20    21   ar
    12    21    22   ar
    13    22    28    1
    14    28    29    1
    15    28    30    1
    16    28    31    1
    17    22    23   ar
    18    23    24   ar
    19    24    25    1
    20    24    26   ar
    21    26    27    1
    22     7     8   ar
    23     8     9   ar
    24     9    10   ar
    25    10    11   ar
    26    11    32    1
    27    32    34    1
    28    34    35   ar
    29    35    36    1
    30    35    37   ar
    31    37    38   ar
    32    38    39   ar
    33    39    40   ar
    34    40    41    1
    35    11    12   ar
    36    12    13   ar
    37     6    14    1
    38    14     2    1
    39    13     5   ar
    40    26    20   ar
    41    13     9   ar
    42    40    34   ar
    43    18    19    1
    44    32    33    1
    45    12    15    1
@<TRIPOS>MOLECULE
*****
 41 45 0 0 0
SMALL
GASTEIGER

@<TRIPOS>ATOM
      1 C         -30.0676   49.6489  -12.0307 C.3     1  UNL1        0.0439
      2 C         -29.6380   50.1758  -10.6548 C.3     1  UNL1        0.1375
      3 C         -30.8533   50.6962   -9.8771 C.3     1  UNL1        0.0439
      4 C         -28.5319   51.2755  -10.7900 C.3     1  UNL1        0.0709
      5 C         -27.3726   50.6391  -10.1165 C.ar    1  UNL1        0.0325
      6 C         -27.7082   49.3967   -9.6408 C.ar    1  UNL1        0.1401
      7 C         -26.7765   48.5728   -8.9590 C.ar    1  UNL1        0.0888
      8 C         -25.4691   49.0854   -8.7399 C.ar    1  UNL1        0.0282
      9 C         -25.1646   50.3610   -9.2369 C.ar    1  UNL1        0.0997
     10 N         -23.9980   51.0242   -9.1499 N.ar    1  UNL1       -0.2137
     11 C         -24.2703   52.1898   -9.8001 C.ar    1  UNL1        0.1984
     12 N         -25.5399   52.2798  -10.2679 N.ar    1  UNL1       -0.3255
     13 C         -26.0857   51.1137   -9.9070 C.ar    1  UNL1        0.0755
     14 O         -29.0289   49.1112   -9.9176 O.3     1  UNL1       -0.4824
     15 H         -25.9852   53.0708  -10.7842 H       1  UNL1        0.1686
     16 C         -27.1363   47.2175   -8.4828 C.2     1  UNL1        0.2525
     17 O         -27.7136   46.4240   -9.2733 O.2     1  UNL1       -0.2697
     18 N         -26.8232   46.7659   -7.1547 N.am    1  UNL1       -0.2785
     19 H         -26.6446   45.7443   -7.0269 H       1  UNL1        0.1552
     20 C         -26.8200   47.6076   -5.9862 C.ar    1  UNL1        0.0806
     21 C         -26.9251   49.0067   -6.0940 C.ar    1  UNL1        0.0210
     22 C         -26.8760   49.8212   -4.9501 C.ar    1  UNL1        0.0750
     23 C         -26.7971   49.2170   -3.6844 C.ar    1  UNL1        0.0359
     24 C         -26.7225   47.8272   -3.5685 C.ar    1  UNL1        0.1686
     25 F         -26.6352   47.2573   -2.3410 F       1  UNL1       -0.2018
     26 C         -26.7320   47.0242   -4.7122 C.ar    1  UNL1        0.1807
     27 F         -26.6366   45.6768   -4.5814 F       1  UNL1       -0.2005
     28 C         -26.9983   51.3185   -5.0809 C.3     1  UNL1        0.4187
     29 F         -28.3085   51.7164   -4.8769 F       1  UNL1       -0.1659
     30 F         -26.6118   51.7364   -6.3427 F       1  UNL1       -0.1659
     31 F         -26.1903   51.9256   -4.1379 F       1  UNL1       -0.1659
     32 N         -23.3199   53.2530   -9.9412 N.pl3   1  UNL1       -0.2816
     33 H         -23.6357   54.2241   -9.7207 H       1  UNL1        0.1551
     34 C         -21.9315   53.0250  -10.2287 C.ar    1  UNL1        0.0889
     35 C         -21.0688   52.5149   -9.2387 C.ar    1  UNL1        0.1543
     36 F         -21.5385   52.2043   -8.0042 F       1  UNL1       -0.2028
     37 C         -19.7221   52.2800   -9.5320 C.ar    1  UNL1        0.0310
     38 C         -19.2269   52.5388  -10.8114 C.ar    1  UNL1        0.0033
     39 C         -20.0782   53.0263  -11.8051 C.ar    1  UNL1        0.0128
     40 C         -21.4286   53.2644  -11.5230 C.ar    1  UNL1        0.0733
     41 CL        -22.4612   53.8976  -12.7982 Cl      1  UNL1       -0.0809
@<TRIPOS>BOND
     1     1     2    1
     2     2     3    1
     3     2     4    1
     4     4     5    1
     5     5     6   ar
     6     6     7   ar
     7     7    16    1
     8    16    17    2
     9    16    18   am
    10    18    20    1
    11    20    21   ar
    12    21    22   ar
    13    22    28    1
    14    28    29    1
    15    28    30    1
    16    28    31    1
    17    22    23   ar
    18    23    24   ar
    19    24    25    1
    20    24    26   ar
    21    26    27    1
    22     7     8   ar
    23     8     9   ar
    24     9    10   ar
    25    10    11   ar
    26    11    32    1
    27    32    34    1
    28    34    35   ar
    29    35    36    1
    30    35    37   ar
    31    37    38   ar
    32    38    39   ar
    33    39    40   ar
    34    40    41    1
    35    11    12   ar
    36    12    13   ar
    37     6    14    1
    38    14     2    1
    39    13     5   ar
    40    26    20   ar
    41    13     9   ar
    42    40    34   ar
    43    18    19    1
    44    32    33    1
    45    12    15    1
@<TRIPOS>MOLECULE
*****
 41 45 0 0 0
SMALL
GASTEIGER

@<TRIPOS>ATOM
      1 C         -31.5833   49.6780   -8.0973 C.3     1  UNL1        0.0439
      2 C         -30.3606   49.7699   -9.0202 C.3     1  UNL1        0.1375
      3 C         -29.5261   51.0116   -8.6816 C.3     1  UNL1        0.0439
      4 C         -30.7864   49.7606  -10.5267 C.3     1  UNL1        0.0709
      5 C         -30.1722   48.5023  -11.0187 C.ar    1  UNL1        0.0325
      6 C         -29.4840   47.8714  -10.0133 C.ar    1  UNL1        0.1401
      7 C         -28.8070   46.6421  -10.2186 C.ar    1  UNL1        0.0888
      8 C         -28.8239   46.0820  -11.5247 C.ar    1  UNL1        0.0282
      9 C         -29.5340   46.7580  -12.5275 C.ar    1  UNL1        0.0997
     10 N         -29.6856   46.4017  -13.8153 N.ar    1  UNL1       -0.2137
     11 C         -30.4607   47.4058  -14.3116 C.ar    1  UNL1        0.1984
     12 N         -30.7802   48.3601  -13.4028 N.ar    1  UNL1       -0.3255
     13 C         -30.1905   47.9298  -12.2824 C.ar    1  UNL1        0.0755
     14 O         -29.5553   48.6001   -8.8445 O.3     1  UNL1       -0.4824
     15 H         -31.3486   49.2246  -13.5442 H       1  UNL1        0.1686
     16 C         -28.0990   45.9485   -9.1182 C.2     1  UNL1        0.2525
     17 O         -28.5657   44.8642   -8.6773 O.2     1  UNL1       -0.2697
     18 N         -26.8790   46.4573   -8.5539 N.am    1  UNL1       -0.2785
     19 H         -26.1996   45.7591   -8.1758 H       1  UNL1        0.1552
     20 C         -26.5710   47.8559   -8.4025 C.ar    1  UNL1        0.0806
     21 C         -26.3288   48.6753   -9.5206 C.ar    1  UNL1        0.0210
     22 C         -25.9853   50.0282   -9.3591 C.ar    1  UNL1        0.0750
     23 C         -25.9604   50.5767   -8.0662 C.ar    1  UNL1        0.0359
     24 C         -26.2290   49.7761   -6.9538 C.ar    1  UNL1        0.1686
     25 F         -26.1904   50.3158   -5.7103 F       1  UNL1       -0.2018
     26 C         -26.5314   48.4217   -7.1182 C.ar    1  UNL1        0.1807
     27 F         -26.7681   47.6541   -6.0244 F       1  UNL1       -0.2005
     28 C         -25.7369   50.8957  -10.5673 C.3     1  UNL1        0.4187
     29 F         -26.9202   51.1287  -11.2469 F       1  UNL1       -0.1659
     30 F         -24.8515   50.2854  -11.4389 F       1  UNL1       -0.1659
     31 F         -25.2056   52.1046  -10.1585 F       1  UNL1       -0.1659
     32 N         -30.8683   47.4808  -15.6834 N.pl3   1  UNL1       -0.2816
     33 H         -31.8921   47.4684  -15.8911 H       1  UNL1        0.1551
     34 C         -29.9465   47.7153  -16.7593 C.ar    1  UNL1        0.0889
     35 C         -29.0653   48.8137  -16.7217 C.ar    1  UNL1        0.1543
     36 F         -29.0522   49.6547  -15.6570 F       1  UNL1       -0.2028
     37 C         -28.1593   49.0250  -17.7655 C.ar    1  UNL1        0.0310
     38 C         -28.1148   48.1419  -18.8458 C.ar    1  UNL1        0.0033
     39 C         -28.9707   47.0393  -18.8831 C.ar    1  UNL1        0.0128
     40 C         -29.8812   46.8173  -17.8432 C.ar    1  UNL1        0.0733
     41 CL        -30.9549   45.4276  -17.9400 Cl      1  UNL1       -0.0809
@<TRIPOS>BOND
     1     1     2    1
     2     2     3    1
     3     2     4    1
     4     4     5    1
     5     5     6   ar
     6     6     7   ar
     7     7    16    1
     8    16    17    2
     9    16    18   am
    10    18    20    1
    11    20    21   ar
    12    21    22   ar
    13    22    28    1
    14    28    29    1
    15    28    30    1
    16    28    31    1
    17    22    23   ar
    18    23    24   ar
    19    24    25    1
    20    24    26   ar
    21    26    27    1
    22     7     8   ar
    23     8     9   ar
    24     9    10   ar
    25    10    11   ar
    26    11    32    1
    27    32    34    1
    28    34    35   ar
    29    35    36    1
    30    35    37   ar
    31    37    38   ar
    32    38    39   ar
    33    39    40   ar
    34    40    41    1
    35    11    12   ar
    36    12    13   ar
    37     6    14    1
    38    14     2    1
    39    13     5   ar
    40    26    20   ar
    41    13     9   ar
    42    40    34   ar
    43    18    19    1
    44    32    33    1
    45    12    15    1
@<TRIPOS>MOLECULE
*****
 41 45 0 0 0
SMALL
GASTEIGER

@<TRIPOS>ATOM
      1 C         -30.0140   49.9733  -11.8453 C.3     1  UNL1        0.0439
      2 C         -29.3723   51.2792  -11.3575 C.3     1  UNL1        0.1375
      3 C         -30.1343   52.4899  -11.9109 C.3     1  UNL1        0.0439
      4 C         -27.8537   51.3386  -11.7337 C.3     1  UNL1        0.0709
      5 C         -27.2006   51.3541  -10.4011 C.ar    1  UNL1        0.0325
      6 C         -28.1381   51.3302   -9.3996 C.ar    1  UNL1        0.1401
      7 C         -27.7771   51.3329   -8.0280 C.ar    1  UNL1        0.0888
      8 C         -26.3952   51.4000   -7.7026 C.ar    1  UNL1        0.0282
      9 C         -25.4668   51.4276   -8.7534 C.ar    1  UNL1        0.0997
     10 N         -24.1257   51.4801   -8.6692 N.ar    1  UNL1       -0.2137
     11 C         -23.7461   51.4778   -9.9773 C.ar    1  UNL1        0.1984
     12 N         -24.7797   51.4391  -10.8542 N.ar    1  UNL1       -0.3255
     13 C         -25.8561   51.4022  -10.0618 C.ar    1  UNL1        0.0755
     14 O         -29.4122   51.3121   -9.9274 O.3     1  UNL1       -0.4824
     15 H         -24.7438   51.4400  -11.8979 H       1  UNL1        0.1686
     16 C         -28.7944   51.2680   -6.9537 C.2     1  UNL1        0.2525
     17 O         -28.8569   52.2040   -6.1123 O.2     1  UNL1       -0.2697
     18 N         -29.7336   50.1846   -6.8549 N.am    1  UNL1       -0.2785
     19 H         -30.6694   50.3994   -6.4422 H       1  UNL1        0.1552
     20 C         -29.4440   48.8188   -7.2079 C.ar    1  UNL1        0.0806
     21 C         -29.8000   48.2988   -8.4662 C.ar    1  UNL1        0.0210
     22 C         -29.5527   46.9525   -8.7834 C.ar    1  UNL1        0.0750
     23 C         -28.8740   46.1458   -7.8551 C.ar    1  UNL1        0.0359
     24 C         -28.4912   46.6637   -6.6158 C.ar    1  UNL1        0.1686
     25 F         -27.8467   45.8707   -5.7243 F       1  UNL1       -0.2018
     26 C         -28.7751   47.9929   -6.2906 C.ar    1  UNL1        0.1807
     27 F         -28.4152   48.4726   -5.0733 F       1  UNL1       -0.2005
     28 C         -29.9322   46.4120  -10.1390 C.3     1  UNL1        0.4187
     29 F         -30.0329   45.0319  -10.0985 F       1  UNL1       -0.1659
     30 F         -28.9815   46.7477  -11.0875 F       1  UNL1       -0.1659
     31 F         -31.1517   46.9427  -10.5158 F       1  UNL1       -0.1659
     32 N         -22.3792   51.5572  -10.4003 N.pl3   1  UNL1       -0.2816
     33 H         -22.0535   50.8859  -11.1316 H       1  UNL1        0.1551
     34 C         -21.4896   52.6003   -9.9727 C.ar    1  UNL1        0.0889
     35 C         -20.8767   52.5449   -8.7055 C.ar    1  UNL1        0.1543
     36 F         -21.0939   51.4928   -7.8767 F       1  UNL1       -0.2028
     37 C         -19.9987   53.5562   -8.3038 C.ar    1  UNL1        0.0310
     38 C         -19.7153   54.6211   -9.1609 C.ar    1  UNL1        0.0033
     39 C         -20.3027   54.6751  -10.4265 C.ar    1  UNL1        0.0128
     40 C         -21.1826   53.6677  -10.8397 C.ar    1  UNL1        0.0733
     41 CL        -21.9159   53.7855  -12.4340 Cl      1  UNL1       -0.0809
@<TRIPOS>BOND
     1     1     2    1
     2     2     3    1
     3     2     4    1
     4     4     5    1
     5     5     6   ar
     6     6     7   ar
     7     7    16    1
     8    16    17    2
     9    16    18   am
    10    18    20    1
    11    20    21   ar
    12    21    22   ar
    13    22    28    1
    14    28    29    1
    15    28    30    1
    16    28    31    1
    17    22    23   ar
    18    23    24   ar
    19    24    25    1
    20    24    26   ar
    21    26    27    1
    22     7     8   ar
    23     8     9   ar
    24     9    10   ar
    25    10    11   ar
    26    11    32    1
    27    32    34    1
    28    34    35   ar
    29    35    36    1
    30    35    37   ar
    31    37    38   ar
    32    38    39   ar
    33    39    40   ar
    34    40    41    1
    35    11    12   ar
    36    12    13   ar
    37     6    14    1
    38    14     2    1
    39    13     5   ar
    40    26    20   ar
    41    13     9   ar
    42    40    34   ar
    43    18    19    1
    44    32    33    1
    45    12    15    1
@<TRIPOS>MOLECULE
*****
 41 45 0 0 0
SMALL
GASTEIGER

@<TRIPOS>ATOM
      1 C         -29.9809   49.9427  -11.5908 C.3     1  UNL1        0.0439
      2 C         -29.3388   51.2514  -11.1112 C.3     1  UNL1        0.1375
      3 C         -30.1317   52.4582  -11.6288 C.3     1  UNL1        0.0439
      4 C         -27.8337   51.3320  -11.5347 C.3     1  UNL1        0.0709
      5 C         -27.1389   51.3430  -10.2233 C.ar    1  UNL1        0.0325
      6 C         -28.0439   51.2990   -9.1929 C.ar    1  UNL1        0.1401
      7 C         -27.6396   51.2934   -7.8334 C.ar    1  UNL1        0.0888
      8 C         -26.2489   51.3737   -7.5513 C.ar    1  UNL1        0.0282
      9 C         -25.3546   51.4216   -8.6306 C.ar    1  UNL1        0.0997
     10 N         -24.0122   51.4889   -8.5883 N.ar    1  UNL1       -0.2137
     11 C         -23.6743   51.5030   -9.9078 C.ar    1  UNL1        0.1984
     12 N         -24.7347   51.4602  -10.7519 N.ar    1  UNL1       -0.3255
     13 C         -25.7850   51.4036   -9.9262 C.ar    1  UNL1        0.0755
     14 O         -29.3338   51.2709   -9.6804 O.3     1  UNL1       -0.4824
     15 H         -24.7320   51.4710  -11.7961 H       1  UNL1        0.1686
     16 C         -28.6215   51.2070   -6.7282 C.2     1  UNL1        0.2525
     17 O         -29.2270   52.2505   -6.3641 O.2     1  UNL1       -0.2697
     18 N         -28.9285   49.9647   -6.0740 N.am    1  UNL1       -0.2785
     19 H         -29.8942   49.8521   -5.6909 H       1  UNL1        0.1552
     20 C         -27.9780   48.9081   -5.8417 C.ar    1  UNL1        0.0806
     21 C         -27.5322   48.5996   -4.5431 C.ar    1  UNL1        0.0210
     22 C         -26.5711   47.5965   -4.3326 C.ar    1  UNL1        0.0750
     23 C         -26.1131   46.8485   -5.4299 C.ar    1  UNL1        0.0359
     24 C         -26.5738   47.1296   -6.7181 C.ar    1  UNL1        0.1686
     25 F         -26.1148   46.4073   -7.7701 F       1  UNL1       -0.2018
     26 C         -27.5003   48.1549   -6.9260 C.ar    1  UNL1        0.1807
     27 F         -27.9200   48.4284   -8.1872 F       1  UNL1       -0.2005
     28 C         -26.1095   47.2715   -2.9343 C.3     1  UNL1        0.4187
     29 F         -24.9085   46.5838   -2.9690 F       1  UNL1       -0.1659
     30 F         -27.0396   46.4831   -2.2788 F       1  UNL1       -0.1659
     31 F         -25.9365   48.4466   -2.2271 F       1  UNL1       -0.1659
     32 N         -22.3225   51.6020  -10.3730 N.pl3   1  UNL1       -0.2816
     33 H         -22.0167   50.9507  -11.1305 H       1  UNL1        0.1551
     34 C         -21.4260   52.6409   -9.9495 C.ar    1  UNL1        0.0889
     35 C         -20.8128   52.5861   -8.6824 C.ar    1  UNL1        0.1543
     36 F         -21.0366   51.5384   -7.8497 F       1  UNL1       -0.2028
     37 C         -19.9281   53.5930   -8.2847 C.ar    1  UNL1        0.0310
     38 C         -19.6382   54.6529   -9.1458 C.ar    1  UNL1        0.0033
     39 C         -20.2258   54.7063  -10.4113 C.ar    1  UNL1        0.0128
     40 C         -21.1124   53.7031  -10.8205 C.ar    1  UNL1        0.0733
     41 CL        -21.8456   53.8199  -12.4150 Cl      1  UNL1       -0.0809
@<TRIPOS>BOND
     1     1     2    1
     2     2     3    1
     3     2     4    1
     4     4     5    1
     5     5     6   ar
     6     6     7   ar
     7     7    16    1
     8    16    17    2
     9    16    18   am
    10    18    20    1
    11    20    21   ar
    12    21    22   ar
    13    22    28    1
    14    28    29    1
    15    28    30    1
    16    28    31    1
    17    22    23   ar
    18    23    24   ar
    19    24    25    1
    20    24    26   ar
    21    26    27    1
    22     7     8   ar
    23     8     9   ar
    24     9    10   ar
    25    10    11   ar
    26    11    32    1
    27    32    34    1
    28    34    35   ar
    29    35    36    1
    30    35    37   ar
    31    37    38   ar
    32    38    39   ar
    33    39    40   ar
    34    40    41    1
    35    11    12   ar
    36    12    13   ar
    37     6    14    1
    38    14     2    1
    39    13     5   ar
    40    26    20   ar
    41    13     9   ar
    42    40    34   ar
    43    18    19    1
    44    32    33    1
    45    12    15    1
@<TRIPOS>MOLECULE
*****
 41 45 0 0 0
SMALL
GASTEIGER

@<TRIPOS>ATOM
      1 C         -29.7124   51.6859   -5.9975 C.3     1  UNL1        0.0439
      2 C         -28.3516   50.9777   -6.0392 C.3     1  UNL1        0.1375
      3 C         -27.9832   50.4429   -4.6496 C.3     1  UNL1        0.0439
      4 C         -27.2381   51.9238   -6.6015 C.3     1  UNL1        0.0709
      5 C         -26.8374   51.2292   -7.8503 C.ar    1  UNL1        0.0325
      6 C         -27.5520   50.0693   -8.0128 C.ar    1  UNL1        0.1401
      7 C         -27.3649   49.2182   -9.1318 C.ar    1  UNL1        0.0888
      8 C         -26.3738   49.5785  -10.0847 C.ar    1  UNL1        0.0282
      9 C         -25.6605   50.7689   -9.8825 C.ar    1  UNL1        0.0997
     10 N         -24.6969   51.2961  -10.6583 N.ar    1  UNL1       -0.2137
     11 C         -24.3733   52.4399   -9.9931 C.ar    1  UNL1        0.1984
     12 N         -25.0762   52.6339   -8.8498 N.ar    1  UNL1       -0.3255
     13 C         -25.8866   51.5714   -8.8012 C.ar    1  UNL1        0.0755
     14 O         -28.4234   49.8844   -6.9598 O.3     1  UNL1       -0.4824
     15 H         -25.0012   53.4225   -8.1695 H       1  UNL1        0.1686
     16 C         -28.1677   47.9880   -9.3188 C.2     1  UNL1        0.2525
     17 O         -27.6914   46.8831   -8.9440 O.2     1  UNL1       -0.2697
     18 N         -29.4867   48.0154   -9.8890 N.am    1  UNL1       -0.2785
     19 H         -30.1611   47.2841   -9.5690 H       1  UNL1        0.1552
     20 C         -29.9101   48.9246  -10.9224 C.ar    1  UNL1        0.0806
     21 C         -29.8986   48.5458  -12.2777 C.ar    1  UNL1        0.0210
     22 C         -30.2715   49.4558  -13.2813 C.ar    1  UNL1        0.0750
     23 C         -30.7312   50.7304  -12.9108 C.ar    1  UNL1        0.0359
     24 C         -30.7735   51.1027  -11.5654 C.ar    1  UNL1        0.1686
     25 F         -31.2087   52.3404  -11.2223 F       1  UNL1       -0.2018
     26 C         -30.3639   50.2067  -10.5742 C.ar    1  UNL1        0.1807
     27 F         -30.3911   50.5935   -9.2737 F       1  UNL1       -0.2005
     28 C         -30.2621   49.0326  -14.7286 C.3     1  UNL1        0.4187
     29 F         -30.2504   47.6519  -14.8287 F       1  UNL1       -0.1659
     30 F         -29.1420   49.5220  -15.3782 F       1  UNL1       -0.1659
     31 F         -31.3945   49.5208  -15.3533 F       1  UNL1       -0.1659
     32 N         -23.3485   53.3413  -10.4299 N.pl3   1  UNL1       -0.2816
     33 H         -23.6204   54.3289  -10.6353 H       1  UNL1        0.1551
     34 C         -21.9572   52.9863  -10.4574 C.ar    1  UNL1        0.0889
     35 C         -21.3580   52.3494   -9.3530 C.ar    1  UNL1        0.1543
     36 F         -22.0893   52.0353   -8.2541 F       1  UNL1       -0.2028
     37 C         -20.0069   51.9920   -9.3947 C.ar    1  UNL1        0.0310
     38 C         -19.2465   52.2539  -10.5358 C.ar    1  UNL1        0.0033
     39 C         -19.8360   52.8673  -11.6431 C.ar    1  UNL1        0.0128
     40 C         -21.1881   53.2287  -11.6129 C.ar    1  UNL1        0.0733
     41 CL        -21.8854   54.0175  -13.0218 Cl      1  UNL1       -0.0809
@<TRIPOS>BOND
     1     1     2    1
     2     2     3    1
     3     2     4    1
     4     4     5    1
     5     5     6   ar
     6     6     7   ar
     7     7    16    1
     8    16    17    2
     9    16    18   am
    10    18    20    1
    11    20    21   ar
    12    21    22   ar
    13    22    28    1
    14    28    29    1
    15    28    30    1
    16    28    31    1
    17    22    23   ar
    18    23    24   ar
    19    24    25    1
    20    24    26   ar
    21    26    27    1
    22     7     8   ar
    23     8     9   ar
    24     9    10   ar
    25    10    11   ar
    26    11    32    1
    27    32    34    1
    28    34    35   ar
    29    35    36    1
    30    35    37   ar
    31    37    38   ar
    32    38    39   ar
    33    39    40   ar
    34    40    41    1
    35    11    12   ar
    36    12    13   ar
    37     6    14    1
    38    14     2    1
    39    13     5   ar
    40    26    20   ar
    41    13     9   ar
    42    40    34   ar
    43    18    19    1
    44    32    33    1
    45    12    15    1
@<TRIPOS>MOLECULE
*****
 41 45 0 0 0
SMALL
GASTEIGER

@<TRIPOS>ATOM
      1 C         -30.2374   49.5644  -12.0539 C.3     1  UNL1        0.0439
      2 C         -29.7994   50.0405  -10.6622 C.3     1  UNL1        0.1375
      3 C         -31.0118   50.5193   -9.8537 C.3     1  UNL1        0.0439
      4 C         -28.7040   51.1544  -10.7639 C.3     1  UNL1        0.0709
      5 C         -27.5331   50.5022  -10.1264 C.ar    1  UNL1        0.0325
      6 C         -27.8538   49.2391   -9.6971 C.ar    1  UNL1        0.1401
      7 C         -26.9088   48.3973   -9.0567 C.ar    1  UNL1        0.0888
      8 C         -25.6038   48.9123   -8.8293 C.ar    1  UNL1        0.0282
      9 C         -25.3147   50.2091   -9.2784 C.ar    1  UNL1        0.0997
     10 N         -24.1530   50.8787   -9.1758 N.ar    1  UNL1       -0.2137
     11 C         -24.4412   52.0664   -9.7771 C.ar    1  UNL1        0.1984
     12 N         -25.7158   52.1636  -10.2296 N.ar    1  UNL1       -0.3255
     13 C         -26.2484   50.9794   -9.9100 C.ar    1  UNL1        0.0755
     14 O         -29.1745   48.9532   -9.9731 O.3     1  UNL1       -0.4824
     15 H         -26.1725   52.9703  -10.7103 H       1  UNL1        0.1686
     16 C         -27.2527   47.0212   -8.6310 C.2     1  UNL1        0.2525
     17 O         -27.5009   46.1526   -9.5095 O.2     1  UNL1       -0.2697
     18 N         -27.2856   46.6351   -7.2470 N.am    1  UNL1       -0.2785
     19 H         -27.0503   45.6420   -7.0221 H       1  UNL1        0.1552
     20 C         -27.6970   47.4967   -6.1690 C.ar    1  UNL1        0.0806
     21 C         -26.8806   47.6941   -5.0399 C.ar    1  UNL1        0.0210
     22 C         -27.3115   48.5015   -3.9738 C.ar    1  UNL1        0.0750
     23 C         -28.5398   49.1748   -4.0803 C.ar    1  UNL1        0.0359
     24 C         -29.3417   49.0069   -5.2113 C.ar    1  UNL1        0.1686
     25 F         -30.5305   49.6539   -5.2962 F       1  UNL1       -0.2018
     26 C         -28.9256   48.1712   -6.2512 C.ar    1  UNL1        0.1807
     27 F         -29.7279   48.0029   -7.3326 F       1  UNL1       -0.2005
     28 C         -26.4217   48.7103   -2.7744 C.3     1  UNL1        0.4187
     29 F         -25.7885   49.9391   -2.8499 F       1  UNL1       -0.1659
     30 F         -25.4496   47.7273   -2.7045 F       1  UNL1       -0.1659
     31 F         -27.1889   48.6678   -1.6253 F       1  UNL1       -0.1659
     32 N         -23.5011   53.1426   -9.8847 N.pl3   1  UNL1       -0.2816
     33 H         -23.8311   54.1059   -9.6507 H       1  UNL1        0.1551
     34 C         -22.1062   52.9357  -10.1566 C.ar    1  UNL1        0.0889
     35 C         -21.2496   52.4266   -9.1608 C.ar    1  UNL1        0.1543
     36 F         -21.7310   52.0973   -7.9357 F       1  UNL1       -0.2028
     37 C         -19.8964   52.2122   -9.4391 C.ar    1  UNL1        0.0310
     38 C         -19.3884   52.4907  -10.7093 C.ar    1  UNL1        0.0033
     39 C         -20.2332   52.9773  -11.7089 C.ar    1  UNL1        0.0128
     40 C         -21.5901   53.1949  -11.4418 C.ar    1  UNL1        0.0733
     41 CL        -22.6145   53.8278  -12.7238 Cl      1  UNL1       -0.0809
@<TRIPOS>BOND
     1     1     2    1
     2     2     3    1
     3     2     4    1
     4     4     5    1
     5     5     6   ar
     6     6     7   ar
     7     7    16    1
     8    16    17    2
     9    16    18   am
    10    18    20    1
    11    20    21   ar
    12    21    22   ar
    13    22    28    1
    14    28    29    1
    15    28    30    1
    16    28    31    1
    17    22    23   ar
    18    23    24   ar
    19    24    25    1
    20    24    26   ar
    21    26    27    1
    22     7     8   ar
    23     8     9   ar
    24     9    10   ar
    25    10    11   ar
    26    11    32    1
    27    32    34    1
    28    34    35   ar
    29    35    36    1
    30    35    37   ar
    31    37    38   ar
    32    38    39   ar
    33    39    40   ar
    34    40    41    1
    35    11    12   ar
    36    12    13   ar
    37     6    14    1
    38    14     2    1
    39    13     5   ar
    40    26    20   ar
    41    13     9   ar
    42    40    34   ar
    43    18    19    1
    44    32    33    1
    45    12    15    1
@<TRIPOS>MOLECULE
*****
 41 45 0 0 0
SMALL
GASTEIGER

@<TRIPOS>ATOM
      1 C         -28.8143   51.8948   -5.9550 C.3     1  UNL1        0.0439
      2 C         -28.3296   50.7269   -6.8245 C.3     1  UNL1        0.1375
      3 C         -28.6982   49.3869   -6.1755 C.3     1  UNL1        0.0439
      4 C         -26.7913   50.8256   -7.0985 C.3     1  UNL1        0.0709
      5 C         -26.7458   51.0077   -8.5707 C.ar    1  UNL1        0.0325
      6 C         -28.0112   51.0010   -9.1011 C.ar    1  UNL1        0.1401
      7 C         -28.2480   51.1627  -10.4901 C.ar    1  UNL1        0.0888
      8 C         -27.1219   51.2976  -11.3469 C.ar    1  UNL1        0.0282
      9 C         -25.8442   51.2953  -10.7687 C.ar    1  UNL1        0.0997
     10 N         -24.6572   51.4186  -11.3884 N.ar    1  UNL1       -0.2137
     11 C         -23.7741   51.3548  -10.3533 C.ar    1  UNL1        0.1984
     12 N         -24.3545   51.1875   -9.1392 N.ar    1  UNL1       -0.3255
     13 C         -25.6610   51.1580   -9.4227 C.ar    1  UNL1        0.0755
     14 O         -28.9520   50.8135   -8.1102 O.3     1  UNL1       -0.4824
     15 H         -23.8922   51.1005   -8.2069 H       1  UNL1        0.1686
     16 C         -29.6189   51.1927  -11.0492 C.2     1  UNL1        0.2525
     17 O         -30.3531   52.1903  -10.8172 O.2     1  UNL1       -0.2697
     18 N         -30.1318   50.1325  -11.8730 N.am    1  UNL1       -0.2785
     19 H         -30.8374   50.3903  -12.5994 H       1  UNL1        0.1552
     20 C         -29.8017   48.7402  -11.7103 C.ar    1  UNL1        0.0806
     21 C         -29.0884   48.2856  -10.5856 C.ar    1  UNL1        0.0210
     22 C         -28.7329   46.9322  -10.4590 C.ar    1  UNL1        0.0750
     23 C         -29.1650   46.0185  -11.4347 C.ar    1  UNL1        0.0359
     24 C         -29.8989   46.4583  -12.5386 C.ar    1  UNL1        0.1686
     25 F         -30.3000   45.5673  -13.4790 F       1  UNL1       -0.2018
     26 C         -30.2156   47.8121  -12.6790 C.ar    1  UNL1        0.1807
     27 F         -30.9105   48.2244  -13.7693 F       1  UNL1       -0.2005
     28 C         -27.9759   46.4586   -9.2439 C.3     1  UNL1        0.4187
     29 F         -27.2807   47.5080   -8.6678 F       1  UNL1       -0.1659
     30 F         -27.0656   45.4726   -9.5835 F       1  UNL1       -0.1659
     31 F         -28.8694   45.9484   -8.3209 F       1  UNL1       -0.1659
     32 N         -22.3527   51.4107  -10.5267 N.pl3   1  UNL1       -0.2816
     33 H         -21.9001   50.6647  -11.1012 H       1  UNL1        0.1551
     34 C         -21.5542   52.5142  -10.0716 C.ar    1  UNL1        0.0889
     35 C         -20.9393   52.4795   -8.8046 C.ar    1  UNL1        0.1543
     36 F         -21.0675   51.3929   -8.0023 F       1  UNL1       -0.2028
     37 C         -20.1496   53.5509   -8.3763 C.ar    1  UNL1        0.0310
     38 C         -19.9565   54.6565   -9.2066 C.ar    1  UNL1        0.0033
     39 C         -20.5459   54.6920  -10.4719 C.ar    1  UNL1        0.0128
     40 C         -21.3378   53.6246  -10.9116 C.ar    1  UNL1        0.0733
     41 CL        -22.0778   53.7192  -12.5044 Cl      1  UNL1       -0.0809
@<TRIPOS>BOND
     1     1     2    1
     2     2     3    1
     3     2     4    1
     4     4     5    1
     5     5     6   ar
     6     6     7   ar
     7     7    16    1
     8    16    17    2
     9    16    18   am
    10    18    20    1
    11    20    21   ar
    12    21    22   ar
    13    22    28    1
    14    28    29    1
    15    28    30    1
    16    28    31    1
    17    22    23   ar
    18    23    24   ar
    19    24    25    1
    20    24    26   ar
    21    26    27    1
    22     7     8   ar
    23     8     9   ar
    24     9    10   ar
    25    10    11   ar
    26    11    32    1
    27    32    34    1
    28    34    35   ar
    29    35    36    1
    30    35    37   ar
    31    37    38   ar
    32    38    39   ar
    33    39    40   ar
    34    40    41    1
    35    11    12   ar
    36    12    13   ar
    37     6    14    1
    38    14     2    1
    39    13     5   ar
    40    26    20   ar
    41    13     9   ar
    42    40    34   ar
    43    18    19    1
    44    32    33    1
    45    12    15    1
