@<TRIPOS>MOLECULE
*****
 38 42 0 0 0
SMALL
GASTEIGER

@<TRIPOS>ATOM
      1 C           6.9536   76.1047   28.2281 C.2     1  UNL1        0.2493
      2 O           6.2738   75.3099   28.9325 O.2     1  UNL1       -0.2699
      3 N           6.7423   76.1701   26.8012 N.am    1  UNL1       -0.2760
      4 C           6.1229   75.0458   26.0852 C.3     1  UNL1        0.0954
      5 C           4.9722   75.5698   25.2248 C.3     1  UNL1        0.0399
      6 C           5.4275   76.6584   24.1964 C.3     1  UNL1        0.0645
      7 C           6.8241   77.2460   24.5583 C.3     1  UNL1        0.0399
      8 C           7.0320   77.4153   26.0703 C.3     1  UNL1        0.0954
      9 C           5.5305   76.0204   22.7656 C.3     1  UNL1        0.0477
     10 C           4.1708   75.8203   22.1682 C.ar    1  UNL1        0.0220
     11 C           3.7541   75.0307   21.1221 C.ar    1  UNL1        0.0923
     12 N           2.4627   75.3475   20.8512 N.ar    1  UNL1       -0.2534
     13 N           2.0647   76.3280   21.6574 N.ar    1  UNL1       -0.1651
     14 C           3.1051   76.6143   22.4585 C.ar    1  UNL1        0.1515
     15 C           3.2001   77.6563   23.4683 C.2     1  UNL1        0.2650
     16 O           2.2512   78.4578   23.6754 O.2     1  UNL1       -0.2684
     17 N           4.4282   77.7562   24.2066 N.am    1  UNL1       -0.3023
     18 H           4.5233   78.5346   24.8976 H       1  UNL1        0.1497
     19 C           8.6047   80.7721   31.7952 C.ar    1  UNL1        0.2249
     20 C           9.9872   80.7191   31.5947 C.ar    1  UNL1        0.0577
     21 C          10.5268   79.7334   30.7657 C.ar    1  UNL1        0.0063
     22 C           9.6809   78.8071   30.1414 C.ar    1  UNL1        0.0181
     23 C          10.1908   77.8028   29.3091 C.ar    1  UNL1        0.0081
     24 C           9.3323   76.8723   28.6940 C.ar    1  UNL1        0.0799
     25 C           7.9303   76.9855   28.9024 C.ar    1  UNL1        0.0613
     26 C           7.4306   77.9836   29.7539 C.ar    1  UNL1        0.0239
     27 C           8.2937   78.8915   30.3687 C.ar    1  UNL1        0.0845
     28 N           7.7963   79.8629   31.1809 N.ar    1  UNL1       -0.2117
     29 C           9.9373   75.7912   27.8738 C.2     1  UNL1        0.3382
     30 O          10.0139   75.8944   26.6202 O.2     1  UNL1       -0.2451
     31 O          10.4016   74.6302   28.4868 O.3     1  UNL1       -0.4771
     32 H          10.8086   73.8803   27.9407 H       1  UNL1        0.2954
     33 C           8.8770   82.7077   33.3141 C.3     1  UNL1        0.2542
     34 O           8.0689   81.7606   32.6257 O.3     1  UNL1       -0.4561
     35 C           1.6358   74.7658   19.7749 C.3     1  UNL1        0.0867
     36 C           0.3628   75.6107   19.5514 C.3     1  UNL1        0.0244
     37 C           1.2143   73.3344   20.1608 C.3     1  UNL1        0.0244
     38 C           2.4491   74.7338   18.4681 C.3     1  UNL1        0.0244
@<TRIPOS>BOND
     1    33    34    1
     2    34    19    1
     3    19    20   ar
     4    20    21   ar
     5    21    22   ar
     6    22    23   ar
     7    23    24   ar
     8    24    29    1
     9    29    30    2
    10    29    31    1
    11    24    25   ar
    12    25     1    1
    13     1     2    2
    14     1     3   am
    15     3     4    1
    16     4     5    1
    17     5     6    1
    18     6     7    1
    19     7     8    1
    20     6     9    1
    21     9    10    1
    22    10    11   ar
    23    11    12   ar
    24    12    35    1
    25    35    36    1
    26    35    37    1
    27    35    38    1
    28    12    13   ar
    29    13    14   ar
    30    14    15    1
    31    15    16    2
    32    15    17   am
    33    25    26   ar
    34    26    27   ar
    35    27    28   ar
    36    28    19   ar
    37    27    22   ar
    38     8     3    1
    39    14    10   ar
    40    17     6    1
    41    31    32    1
    42    17    18    1
@<TRIPOS>MOLECULE
*****
 38 42 0 0 0
SMALL
GASTEIGER

@<TRIPOS>ATOM
      1 C          13.7616   82.1354   25.7040 C.2     1  UNL1        0.2493
      2 O          14.6443   81.4490   26.2870 O.2     1  UNL1       -0.2699
      3 N          12.6201   81.4872   25.1025 N.am    1  UNL1       -0.2760
      4 C          12.6766   80.0657   24.7333 C.3     1  UNL1        0.0954
      5 C          11.4596   79.3458   25.3162 C.3     1  UNL1        0.0399
      6 C          10.1017   79.9581   24.8354 C.3     1  UNL1        0.0645
      7 C          10.2929   81.3792   24.2267 C.3     1  UNL1        0.0399
      8 C          11.3466   82.2145   24.9683 C.3     1  UNL1        0.0954
      9 C           9.4739   79.0407   23.7266 C.3     1  UNL1        0.0477
     10 C           8.8691   77.8089   24.3286 C.ar    1  UNL1        0.0220
     11 C           8.5111   76.6100   23.7575 C.ar    1  UNL1        0.0923
     12 N           7.8322   75.8928   24.6880 N.ar    1  UNL1       -0.2534
     13 N           7.7164   76.6063   25.8049 N.ar    1  UNL1       -0.1651
     14 C           8.3483   77.7718   25.5847 C.ar    1  UNL1        0.1515
     15 C           8.4493   78.9196   26.4718 C.2     1  UNL1        0.2650
     16 O           7.8873   78.9294   27.5987 O.2     1  UNL1       -0.2684
     17 N           9.1940   80.0560   26.0060 N.am    1  UNL1       -0.3023
     18 H           9.2279   80.9040   26.6160 H       1  UNL1        0.1497
     19 C          14.0328   87.6126   23.0280 C.ar    1  UNL1        0.2249
     20 C          14.3541   88.3850   24.1480 C.ar    1  UNL1        0.0577
     21 C          14.4824   87.7710   25.3957 C.ar    1  UNL1        0.0063
     22 C          14.2895   86.3884   25.5159 C.ar    1  UNL1        0.0181
     23 C          14.4048   85.7433   26.7535 C.ar    1  UNL1        0.0081
     24 C          14.2003   84.3550   26.8640 C.ar    1  UNL1        0.0799
     25 C          13.9065   83.6063   25.6914 C.ar    1  UNL1        0.0613
     26 C          13.7738   84.2650   24.4588 C.ar    1  UNL1        0.0239
     27 C          13.9655   85.6440   24.3652 C.ar    1  UNL1        0.0845
     28 N          13.8477   86.2691   23.1627 N.ar    1  UNL1       -0.2117
     29 C          14.2732   83.7377   28.2134 C.2     1  UNL1        0.3382
     30 O          13.2404   83.2849   28.7757 O.2     1  UNL1       -0.2451
     31 O          15.4905   83.6816   28.8876 O.3     1  UNL1       -0.4771
     32 H          15.5551   83.2719   29.8119 H       1  UNL1        0.2954
     33 C          12.6610   88.7054   21.2810 C.3     1  UNL1        0.2542
     34 O          13.9057   88.2314   21.7810 O.3     1  UNL1       -0.4561
     35 C           7.2313   74.5594   24.4847 C.3     1  UNL1        0.0867
     36 C           5.9863   74.6577   23.5765 C.3     1  UNL1        0.0244
     37 C           6.8034   73.9707   25.8433 C.3     1  UNL1        0.0244
     38 C           8.2631   73.6316   23.8179 C.3     1  UNL1        0.0244
@<TRIPOS>BOND
     1    33    34    1
     2    34    19    1
     3    19    20   ar
     4    20    21   ar
     5    21    22   ar
     6    22    23   ar
     7    23    24   ar
     8    24    29    1
     9    29    30    2
    10    29    31    1
    11    24    25   ar
    12    25     1    1
    13     1     2    2
    14     1     3   am
    15     3     4    1
    16     4     5    1
    17     5     6    1
    18     6     7    1
    19     7     8    1
    20     6     9    1
    21     9    10    1
    22    10    11   ar
    23    11    12   ar
    24    12    35    1
    25    35    36    1
    26    35    37    1
    27    35    38    1
    28    12    13   ar
    29    13    14   ar
    30    14    15    1
    31    15    16    2
    32    15    17   am
    33    25    26   ar
    34    26    27   ar
    35    27    28   ar
    36    28    19   ar
    37    27    22   ar
    38     8     3    1
    39    14    10   ar
    40    17     6    1
    41    31    32    1
    42    17    18    1
@<TRIPOS>MOLECULE
*****
 38 42 0 0 0
SMALL
GASTEIGER

@<TRIPOS>ATOM
      1 C           6.6499   76.9609   24.6302 C.2     1  UNL1        0.2493
      2 O           5.9123   77.4133   25.5475 O.2     1  UNL1       -0.2699
      3 N           6.0749   76.1933   23.5508 N.am    1  UNL1       -0.2760
      4 C           4.7746   75.5285   23.7166 C.3     1  UNL1        0.0954
      5 C           3.8671   75.8984   22.5424 C.3     1  UNL1        0.0399
      6 C           4.4792   75.5126   21.1545 C.3     1  UNL1        0.0645
      7 C           6.0081   75.2321   21.2560 C.3     1  UNL1        0.0399
      8 C           6.7291   76.1736   22.2315 C.3     1  UNL1        0.0954
      9 C           3.7861   74.2104   20.6171 C.3     1  UNL1        0.0477
     10 C           2.4158   74.5105   20.0898 C.ar    1  UNL1        0.0220
     11 C           1.3493   73.6818   19.8305 C.ar    1  UNL1        0.0923
     12 N           0.4039   74.4108   19.1855 N.ar    1  UNL1       -0.2534
     13 N           0.8481   75.6504   18.9958 N.ar    1  UNL1       -0.1651
     14 C           2.0723   75.7095   19.5470 C.ar    1  UNL1        0.1515
     15 C           3.0036   76.8264   19.5471 C.2     1  UNL1        0.2650
     16 O           2.7311   77.9079   18.9625 O.2     1  UNL1       -0.2684
     17 N           4.2604   76.6436   20.2180 N.am    1  UNL1       -0.3023
     18 H           4.9556   77.4230   20.1784 H       1  UNL1        0.1497
     19 C          11.4727   80.6984   24.7095 C.ar    1  UNL1        0.2249
     20 C          12.4891   79.7417   24.6306 C.ar    1  UNL1        0.0577
     21 C          12.1582   78.3858   24.5849 C.ar    1  UNL1        0.0063
     22 C          10.8132   77.9945   24.6175 C.ar    1  UNL1        0.0181
     23 C          10.4483   76.6430   24.5794 C.ar    1  UNL1        0.0081
     24 C           9.0941   76.2611   24.6214 C.ar    1  UNL1        0.0799
     25 C           8.0945   77.2711   24.6695 C.ar    1  UNL1        0.0613
     26 C           8.4710   78.6223   24.7271 C.ar    1  UNL1        0.0239
     27 C           9.8175   78.9871   24.6986 C.ar    1  UNL1        0.0845
     28 N          10.1696   80.3005   24.7410 N.ar    1  UNL1       -0.2117
     29 C           8.7719   74.8108   24.6426 C.2     1  UNL1        0.3382
     30 O           9.2196   74.0344   23.7568 O.2     1  UNL1       -0.2451
     31 O           7.9391   74.2979   25.6340 O.3     1  UNL1       -0.4771
     32 H           7.7028   73.3131   25.6571 H       1  UNL1        0.2954
     33 C          13.1147   82.5128   25.0830 C.3     1  UNL1        0.2542
     34 O          11.8086   82.0545   24.7547 O.3     1  UNL1       -0.4561
     35 C          -0.8897   73.9033   18.6860 C.3     1  UNL1        0.0867
     36 C          -1.0858   74.2837   17.2024 C.3     1  UNL1        0.0244
     37 C          -2.0400   74.5180   19.5073 C.3     1  UNL1        0.0244
     38 C          -0.9200   72.3695   18.8159 C.3     1  UNL1        0.0244
@<TRIPOS>BOND
     1    33    34    1
     2    34    19    1
     3    19    20   ar
     4    20    21   ar
     5    21    22   ar
     6    22    23   ar
     7    23    24   ar
     8    24    29    1
     9    29    30    2
    10    29    31    1
    11    24    25   ar
    12    25     1    1
    13     1     2    2
    14     1     3   am
    15     3     4    1
    16     4     5    1
    17     5     6    1
    18     6     7    1
    19     7     8    1
    20     6     9    1
    21     9    10    1
    22    10    11   ar
    23    11    12   ar
    24    12    35    1
    25    35    36    1
    26    35    37    1
    27    35    38    1
    28    12    13   ar
    29    13    14   ar
    30    14    15    1
    31    15    16    2
    32    15    17   am
    33    25    26   ar
    34    26    27   ar
    35    27    28   ar
    36    28    19   ar
    37    27    22   ar
    38     8     3    1
    39    14    10   ar
    40    17     6    1
    41    31    32    1
    42    17    18    1
@<TRIPOS>MOLECULE
*****
 38 42 0 0 0
SMALL
GASTEIGER

@<TRIPOS>ATOM
      1 C           5.6066   76.7211   28.2748 C.2     1  UNL1        0.2493
      2 O           4.5818   76.5287   28.9839 O.2     1  UNL1       -0.2699
      3 N           5.5717   76.4373   26.8594 N.am    1  UNL1       -0.2760
      4 C           4.5728   75.5111   26.3074 C.3     1  UNL1        0.0954
      5 C           3.8653   76.1790   25.1274 C.3     1  UNL1        0.0399
      6 C           4.8525   76.6199   23.9956 C.3     1  UNL1        0.0645
      7 C           6.3265   76.6576   24.4979 C.3     1  UNL1        0.0399
      8 C           6.4579   77.1703   25.9395 C.3     1  UNL1        0.0954
      9 C           4.7766   75.6001   22.8043 C.3     1  UNL1        0.0477
     10 C           3.5317   75.8099   21.9969 C.ar    1  UNL1        0.0220
     11 C           2.8931   74.9892   21.0967 C.ar    1  UNL1        0.0923
     12 N           1.9159   75.7133   20.4950 N.ar    1  UNL1       -0.2534
     13 N           1.9398   76.9625   20.9521 N.ar    1  UNL1       -0.1651
     14 C           2.9234   77.0195   21.8661 C.ar    1  UNL1        0.1515
     15 C           3.3948   78.1792   22.6061 C.2     1  UNL1        0.2650
     16 O           2.9005   79.3222   22.4192 O.2     1  UNL1       -0.2684
     17 N           4.4652   77.9796   23.5428 N.am    1  UNL1       -0.3023
     18 H           4.8442   78.8169   24.0405 H       1  UNL1        0.1497
     19 C           8.8799   81.1181   30.9555 C.ar    1  UNL1        0.2249
     20 C          10.1009   80.4454   31.0604 C.ar    1  UNL1        0.0577
     21 C          10.2050   79.1296   30.6045 C.ar    1  UNL1        0.0063
     22 C           9.0881   78.4945   30.0457 C.ar    1  UNL1        0.0181
     23 C           9.1577   77.1739   29.5849 C.ar    1  UNL1        0.0081
     24 C           8.0268   76.5429   29.0332 C.ar    1  UNL1        0.0799
     25 C           6.8150   77.2780   28.9183 C.ar    1  UNL1        0.0613
     26 C           6.7500   78.5947   29.4010 C.ar    1  UNL1        0.0239
     27 C           7.8747   79.2041   29.9583 C.ar    1  UNL1        0.0845
     28 N           7.8031   80.4853   30.4101 N.ar    1  UNL1       -0.2117
     29 C           8.1452   75.1205   28.6207 C.2     1  UNL1        0.3382
     30 O           8.5186   74.8120   27.4574 O.2     1  UNL1       -0.2451
     31 O           7.8117   74.1069   29.5156 O.3     1  UNL1       -0.4771
     32 H           7.8786   73.1325   29.2467 H       1  UNL1        0.2954
     33 C           9.0739   82.8079   32.7540 C.3     1  UNL1        0.2542
     34 O           8.7803   82.4353   31.4129 O.3     1  UNL1       -0.4561
     35 C           1.0109   75.2317   19.4322 C.3     1  UNL1        0.0867
     36 C          -0.4027   75.8265   19.6121 C.3     1  UNL1        0.0244
     37 C           0.9093   73.6951   19.4946 C.3     1  UNL1        0.0244
     38 C           1.5619   75.6611   18.0603 C.3     1  UNL1        0.0244
@<TRIPOS>BOND
     1    33    34    1
     2    34    19    1
     3    19    20   ar
     4    20    21   ar
     5    21    22   ar
     6    22    23   ar
     7    23    24   ar
     8    24    29    1
     9    29    30    2
    10    29    31    1
    11    24    25   ar
    12    25     1    1
    13     1     2    2
    14     1     3   am
    15     3     4    1
    16     4     5    1
    17     5     6    1
    18     6     7    1
    19     7     8    1
    20     6     9    1
    21     9    10    1
    22    10    11   ar
    23    11    12   ar
    24    12    35    1
    25    35    36    1
    26    35    37    1
    27    35    38    1
    28    12    13   ar
    29    13    14   ar
    30    14    15    1
    31    15    16    2
    32    15    17   am
    33    25    26   ar
    34    26    27   ar
    35    27    28   ar
    36    28    19   ar
    37    27    22   ar
    38     8     3    1
    39    14    10   ar
    40    17     6    1
    41    31    32    1
    42    17    18    1
@<TRIPOS>MOLECULE
*****
 38 42 0 0 0
SMALL
GASTEIGER

@<TRIPOS>ATOM
      1 C           4.5380   76.2492   23.1416 C.2     1  UNL1        0.2493
      2 O           4.3360   75.7122   24.2645 O.2     1  UNL1       -0.2699
      3 N           5.7974   76.8995   22.8656 N.am    1  UNL1       -0.2760
      4 C           6.6534   77.3673   23.9650 C.3     1  UNL1        0.0954
      5 C           8.0742   76.8415   23.7550 C.3     1  UNL1        0.0399
      6 C           8.6912   77.2838   22.3862 C.3     1  UNL1        0.0645
      7 C           7.5990   77.7904   21.3977 C.3     1  UNL1        0.0399
      8 C           6.2927   76.9877   21.4815 C.3     1  UNL1        0.0954
      9 C           9.7079   78.4567   22.6216 C.3     1  UNL1        0.0477
     10 C          10.9930   77.9452   23.1982 C.ar    1  UNL1        0.0220
     11 C          12.0117   78.6006   23.8497 C.ar    1  UNL1        0.0923
     12 N          13.0373   77.7255   24.0034 N.ar    1  UNL1       -0.2534
     13 N          12.7195   76.5618   23.4424 N.ar    1  UNL1       -0.1651
     14 C          11.4751   76.6971   22.9533 C.ar    1  UNL1        0.1515
     15 C          10.7007   75.7311   22.1905 C.2     1  UNL1        0.2650
     16 O          11.1777   74.6087   21.8766 O.2     1  UNL1       -0.2684
     17 N           9.3770   76.1130   21.7839 N.am    1  UNL1       -0.3023
     18 H           8.8337   75.4448   21.1917 H       1  UNL1        0.1497
     19 C           0.6364   73.2742   19.5136 C.ar    1  UNL1        0.2249
     20 C           0.1409   74.3628   18.7900 C.ar    1  UNL1        0.0577
     21 C           0.6002   75.6496   19.0785 C.ar    1  UNL1        0.0063
     22 C           1.5527   75.8402   20.0882 C.ar    1  UNL1        0.0181
     23 C           2.0291   77.1182   20.4062 C.ar    1  UNL1        0.0081
     24 C           2.9798   77.2988   21.4284 C.ar    1  UNL1        0.0799
     25 C           3.4780   76.1580   22.1155 C.ar    1  UNL1        0.0613
     26 C           2.9798   74.8832   21.8028 C.ar    1  UNL1        0.0239
     27 C           2.0272   74.7193   20.7964 C.ar    1  UNL1        0.0845
     28 N           1.5621   73.4774   20.4931 N.ar    1  UNL1       -0.2117
     29 C           3.3992   78.6842   21.7631 C.2     1  UNL1        0.3382
     30 O           2.9900   79.2498   22.8123 O.2     1  UNL1       -0.2451
     31 O           4.2320   79.3873   20.8961 O.3     1  UNL1       -0.4771
     32 H           4.5197   80.3358   21.1057 H       1  UNL1        0.2954
     33 C          -0.0786   71.0143   20.2272 C.3     1  UNL1        0.2542
     34 O           0.1741   71.9878   19.2212 O.3     1  UNL1       -0.4561
     35 C          14.3459   78.0244   24.6189 C.3     1  UNL1        0.0867
     36 C          14.6686   79.5300   24.5039 C.3     1  UNL1        0.0244
     37 C          15.4517   77.2281   23.8987 C.3     1  UNL1        0.0244
     38 C          14.3100   77.6341   26.1077 C.3     1  UNL1        0.0244
@<TRIPOS>BOND
     1    33    34    1
     2    34    19    1
     3    19    20   ar
     4    20    21   ar
     5    21    22   ar
     6    22    23   ar
     7    23    24   ar
     8    24    29    1
     9    29    30    2
    10    29    31    1
    11    24    25   ar
    12    25     1    1
    13     1     2    2
    14     1     3   am
    15     3     4    1
    16     4     5    1
    17     5     6    1
    18     6     7    1
    19     7     8    1
    20     6     9    1
    21     9    10    1
    22    10    11   ar
    23    11    12   ar
    24    12    35    1
    25    35    36    1
    26    35    37    1
    27    35    38    1
    28    12    13   ar
    29    13    14   ar
    30    14    15    1
    31    15    16    2
    32    15    17   am
    33    25    26   ar
    34    26    27   ar
    35    27    28   ar
    36    28    19   ar
    37    27    22   ar
    38     8     3    1
    39    14    10   ar
    40    17     6    1
    41    31    32    1
    42    17    18    1
@<TRIPOS>MOLECULE
*****
 38 42 0 0 0
SMALL
GASTEIGER

@<TRIPOS>ATOM
      1 C           7.5535   75.0282   23.8393 C.2     1  UNL1        0.2493
      2 O           7.1263   74.4467   24.8734 O.2     1  UNL1       -0.2699
      3 N           6.7602   75.0362   22.6327 N.am    1  UNL1       -0.2760
      4 C           5.7201   74.0206   22.4156 C.3     1  UNL1        0.0954
      5 C           4.4118   74.7142   22.0328 C.3     1  UNL1        0.0399
      6 C           4.5472   75.6068   20.7542 C.3     1  UNL1        0.0645
      7 C           6.0376   75.9098   20.4171 C.3     1  UNL1        0.0399
      8 C           6.9024   76.1374   21.6654 C.3     1  UNL1        0.0954
      9 C           3.9178   74.8623   19.5235 C.3     1  UNL1        0.0477
     10 C           2.4209   74.9126   19.5742 C.ar    1  UNL1        0.0220
     11 C           1.4720   74.1572   18.9257 C.ar    1  UNL1        0.0923
     12 N           0.2601   74.7199   19.1625 N.ar    1  UNL1       -0.2534
     13 N           0.4132   75.8167   19.8997 N.ar    1  UNL1       -0.1651
     14 C           1.7286   75.9323   20.1497 C.ar    1  UNL1        0.1515
     15 C           2.4171   76.9991   20.8586 C.2     1  UNL1        0.2650
     16 O           1.7937   77.9956   21.3103 O.2     1  UNL1       -0.2684
     17 N           3.8418   76.8889   21.0039 N.am    1  UNL1       -0.3023
     18 H           4.3502   77.6762   21.4666 H       1  UNL1        0.1497
     19 C          11.1762   79.7975   25.0072 C.ar    1  UNL1        0.2249
     20 C          12.3823   79.2746   24.5317 C.ar    1  UNL1        0.0577
     21 C          12.4160   77.9776   24.0153 C.ar    1  UNL1        0.0063
     22 C          11.2435   77.2115   23.9766 C.ar    1  UNL1        0.0181
     23 C          11.2449   75.9057   23.4707 C.ar    1  UNL1        0.0081
     24 C          10.0626   75.1421   23.4446 C.ar    1  UNL1        0.0799
     25 C           8.8535   75.7279   23.9100 C.ar    1  UNL1        0.0613
     26 C           8.8663   77.0306   24.4333 C.ar    1  UNL1        0.0239
     27 C          10.0479   77.7721   24.4661 C.ar    1  UNL1        0.0845
     28 N          10.0451   79.0385   24.9629 N.ar    1  UNL1       -0.2117
     29 C          10.1399   73.7412   22.9558 C.2     1  UNL1        0.3382
     30 O          10.8430   72.8836   23.5543 O.2     1  UNL1       -0.2451
     31 O           9.4534   73.3681   21.8029 O.3     1  UNL1       -0.4771
     32 H           9.5030   72.4192   21.4518 H       1  UNL1        0.2954
     33 C          12.1371   82.0696   25.2124 C.3     1  UNL1        0.2542
     34 O          11.1470   81.0964   25.5230 O.3     1  UNL1       -0.4561
     35 C          -1.0323   74.2519   18.6229 C.3     1  UNL1        0.0867
     36 C          -1.2189   74.7324   17.1674 C.3     1  UNL1        0.0244
     37 C          -2.1851   74.8138   19.4777 C.3     1  UNL1        0.0244
     38 C          -1.0681   72.7130   18.6487 C.3     1  UNL1        0.0244
@<TRIPOS>BOND
     1    33    34    1
     2    34    19    1
     3    19    20   ar
     4    20    21   ar
     5    21    22   ar
     6    22    23   ar
     7    23    24   ar
     8    24    29    1
     9    29    30    2
    10    29    31    1
    11    24    25   ar
    12    25     1    1
    13     1     2    2
    14     1     3   am
    15     3     4    1
    16     4     5    1
    17     5     6    1
    18     6     7    1
    19     7     8    1
    20     6     9    1
    21     9    10    1
    22    10    11   ar
    23    11    12   ar
    24    12    35    1
    25    35    36    1
    26    35    37    1
    27    35    38    1
    28    12    13   ar
    29    13    14   ar
    30    14    15    1
    31    15    16    2
    32    15    17   am
    33    25    26   ar
    34    26    27   ar
    35    27    28   ar
    36    28    19   ar
    37    27    22   ar
    38     8     3    1
    39    14    10   ar
    40    17     6    1
    41    31    32    1
    42    17    18    1
@<TRIPOS>MOLECULE
*****
 38 42 0 0 0
SMALL
GASTEIGER

@<TRIPOS>ATOM
      1 C          10.2158   79.1904   25.1452 C.2     1  UNL1        0.2493
      2 O           9.0600   79.5840   25.4602 O.2     1  UNL1       -0.2699
      3 N          11.2632   80.1507   24.8886 N.am    1  UNL1       -0.2760
      4 C          10.9339   81.5356   24.5226 C.3     1  UNL1        0.0954
      5 C          11.7138   82.4934   25.4245 C.3     1  UNL1        0.0399
      6 C          13.2626   82.2837   25.3406 C.3     1  UNL1        0.0645
      7 C          13.6253   80.9116   24.6985 C.3     1  UNL1        0.0399
      8 C          12.6712   79.7822   25.1135 C.3     1  UNL1        0.0954
      9 C          13.8993   83.4125   24.4543 C.3     1  UNL1        0.0477
     10 C          13.9715   84.7074   25.2050 C.ar    1  UNL1        0.0220
     11 C          14.1393   85.9980   24.7602 C.ar    1  UNL1        0.0923
     12 N          14.3282   86.7903   25.8456 N.ar    1  UNL1       -0.2534
     13 N          14.3240   86.0458   26.9482 N.ar    1  UNL1       -0.1651
     14 C          14.1065   84.7787   26.5566 C.ar    1  UNL1        0.1515
     15 C          14.0783   83.5782   27.3768 C.2     1  UNL1        0.2650
     16 O          14.2985   83.6247   28.6158 O.2     1  UNL1       -0.2684
     17 N          13.8145   82.3294   26.7180 N.am    1  UNL1       -0.3023
     18 H          13.8436   81.4563   27.2917 H       1  UNL1        0.1497
     19 C          11.6684   73.9679   22.3433 C.ar    1  UNL1        0.2249
     20 C          11.4692   73.0872   23.4105 C.ar    1  UNL1        0.0577
     21 C          11.0703   73.5867   24.6520 C.ar    1  UNL1        0.0063
     22 C          10.8722   74.9637   24.8189 C.ar    1  UNL1        0.0181
     23 C          10.4782   75.4971   26.0524 C.ar    1  UNL1        0.0081
     24 C          10.2905   76.8831   26.2108 C.ar    1  UNL1        0.0799
     25 C          10.4743   77.7362   25.0882 C.ar    1  UNL1        0.0613
     26 C          10.8882   77.1941   23.8611 C.ar    1  UNL1        0.0239
     27 C          11.0842   75.8197   23.7209 C.ar    1  UNL1        0.0845
     28 N          11.4719   75.3046   22.5230 N.ar    1  UNL1       -0.2117
     29 C           9.9348   77.3959   27.5592 C.2     1  UNL1        0.3382
     30 O           8.7325   77.5923   27.8816 O.2     1  UNL1       -0.2451
     31 O          10.9390   77.6958   28.4763 O.3     1  UNL1       -0.4771
     32 H          10.7133   78.0545   29.3964 H       1  UNL1        0.2954
     33 C          12.6189   72.1618   20.9424 C.3     1  UNL1        0.2542
     34 O          12.0674   73.4634   21.1022 O.3     1  UNL1       -0.4561
     35 C          14.5865   88.2439   25.8223 C.3     1  UNL1        0.0867
     36 C          14.7030   88.7977   27.2590 C.3     1  UNL1        0.0244
     37 C          13.4257   88.9655   25.1099 C.3     1  UNL1        0.0244
     38 C          15.9045   88.5155   25.0745 C.3     1  UNL1        0.0244
@<TRIPOS>BOND
     1    33    34    1
     2    34    19    1
     3    19    20   ar
     4    20    21   ar
     5    21    22   ar
     6    22    23   ar
     7    23    24   ar
     8    24    29    1
     9    29    30    2
    10    29    31    1
    11    24    25   ar
    12    25     1    1
    13     1     2    2
    14     1     3   am
    15     3     4    1
    16     4     5    1
    17     5     6    1
    18     6     7    1
    19     7     8    1
    20     6     9    1
    21     9    10    1
    22    10    11   ar
    23    11    12   ar
    24    12    35    1
    25    35    36    1
    26    35    37    1
    27    35    38    1
    28    12    13   ar
    29    13    14   ar
    30    14    15    1
    31    15    16    2
    32    15    17   am
    33    25    26   ar
    34    26    27   ar
    35    27    28   ar
    36    28    19   ar
    37    27    22   ar
    38     8     3    1
    39    14    10   ar
    40    17     6    1
    41    31    32    1
    42    17    18    1
@<TRIPOS>MOLECULE
*****
 38 42 0 0 0
SMALL
GASTEIGER

@<TRIPOS>ATOM
      1 C           6.3735   78.8548   20.0759 C.2     1  UNL1        0.2493
      2 O           6.7241   79.7080   19.2161 O.2     1  UNL1       -0.2699
      3 N           7.3653   78.2156   20.9083 N.am    1  UNL1       -0.2760
      4 C           8.7726   78.1633   20.4875 C.3     1  UNL1        0.0954
      5 C           9.6579   78.6674   21.6283 C.3     1  UNL1        0.0399
      6 C           9.4753   77.8474   22.9489 C.3     1  UNL1        0.0645
      7 C           8.1687   76.9995   22.9258 C.3     1  UNL1        0.0399
      8 C           6.9960   77.7200   22.2450 C.3     1  UNL1        0.0954
      9 C          10.6846   76.8622   23.1282 C.3     1  UNL1        0.0477
     10 C          11.9101   77.5944   23.5837 C.ar    1  UNL1        0.0220
     11 C          13.2365   77.2312   23.5617 C.ar    1  UNL1        0.0923
     12 N          13.9336   78.1610   24.2623 N.ar    1  UNL1       -0.2534
     13 N          13.0960   79.0701   24.7542 N.ar    1  UNL1       -0.1651
     14 C          11.8652   78.7241   24.3401 C.ar    1  UNL1        0.1515
     15 C          10.5977   79.3588   24.6644 C.2     1  UNL1        0.2650
     16 O          10.5390   80.3473   25.4423 O.2     1  UNL1       -0.2684
     17 N           9.4078   78.8012   24.0844 N.am    1  UNL1       -0.3023
     18 H           8.4885   79.2196   24.3533 H       1  UNL1        0.1497
     19 C           1.3073   77.7366   23.2879 C.ar    1  UNL1        0.2249
     20 C           0.4347   77.4684   22.2292 C.ar    1  UNL1        0.0577
     21 C           0.9007   77.5440   20.9150 C.ar    1  UNL1        0.0063
     22 C           2.2365   77.8865   20.6672 C.ar    1  UNL1        0.0181
     23 C           2.7335   77.9769   19.3610 C.ar    1  UNL1        0.0081
     24 C           4.0752   78.3303   19.1236 C.ar    1  UNL1        0.0799
     25 C           4.9331   78.5631   20.2333 C.ar    1  UNL1        0.0613
     26 C           4.4207   78.4891   21.5382 C.ar    1  UNL1        0.0239
     27 C           3.0850   78.1511   21.7596 C.ar    1  UNL1        0.0845
     28 N           2.6034   78.0691   23.0292 N.ar    1  UNL1       -0.2117
     29 C           4.5273   78.4725   17.7155 C.2     1  UNL1        0.3382
     30 O           4.7617   77.4589   17.0045 O.2     1  UNL1       -0.2451
     31 O           4.7272   79.7399   17.1739 O.3     1  UNL1       -0.4771
     32 H           5.0437   79.8536   16.2183 H       1  UNL1        0.2954
     33 C           1.6853   77.8127   25.7331 C.3     1  UNL1        0.2542
     34 O           0.8365   77.6595   24.6019 O.3     1  UNL1       -0.4561
     35 C          15.3868   78.1388   24.5230 C.3     1  UNL1        0.0867
     36 C          16.1050   79.2200   23.6866 C.3     1  UNL1        0.0244
     37 C          15.9611   76.7603   24.1417 C.3     1  UNL1        0.0244
     38 C          15.6410   78.4129   26.0165 C.3     1  UNL1        0.0244
@<TRIPOS>BOND
     1    33    34    1
     2    34    19    1
     3    19    20   ar
     4    20    21   ar
     5    21    22   ar
     6    22    23   ar
     7    23    24   ar
     8    24    29    1
     9    29    30    2
    10    29    31    1
    11    24    25   ar
    12    25     1    1
    13     1     2    2
    14     1     3   am
    15     3     4    1
    16     4     5    1
    17     5     6    1
    18     6     7    1
    19     7     8    1
    20     6     9    1
    21     9    10    1
    22    10    11   ar
    23    11    12   ar
    24    12    35    1
    25    35    36    1
    26    35    37    1
    27    35    38    1
    28    12    13   ar
    29    13    14   ar
    30    14    15    1
    31    15    16    2
    32    15    17   am
    33    25    26   ar
    34    26    27   ar
    35    27    28   ar
    36    28    19   ar
    37    27    22   ar
    38     8     3    1
    39    14    10   ar
    40    17     6    1
    41    31    32    1
    42    17    18    1
@<TRIPOS>MOLECULE
*****
 38 42 0 0 0
SMALL
GASTEIGER

@<TRIPOS>ATOM
      1 C           5.3838   75.4392   22.9191 C.2     1  UNL1        0.2493
      2 O           5.2817   74.7297   23.9566 O.2     1  UNL1       -0.2699
      3 N           6.4884   76.3583   22.7759 N.am    1  UNL1       -0.2760
      4 C           7.2187   76.8386   23.9575 C.3     1  UNL1        0.0954
      5 C           8.7190   76.6391   23.7371 C.3     1  UNL1        0.0399
      6 C           9.2496   77.3718   22.4598 C.3     1  UNL1        0.0645
      7 C           8.0892   77.7760   21.5024 C.3     1  UNL1        0.0399
      8 C           6.9719   76.7248   21.4341 C.3     1  UNL1        0.0954
      9 C          10.0045   78.6826   22.8804 C.3     1  UNL1        0.0477
     10 C          11.3597   78.3664   23.4363 C.ar    1  UNL1        0.0220
     11 C          12.2166   79.1202   24.2038 C.ar    1  UNL1        0.0923
     12 N          13.3964   78.4549   24.2847 N.ar    1  UNL1       -0.2534
     13 N          13.3278   77.3353   23.5693 N.ar    1  UNL1       -0.1651
     14 C          12.0877   77.2828   23.0540 C.ar    1  UNL1        0.1515
     15 C          11.5344   76.2908   22.1461 C.2     1  UNL1        0.2650
     16 O          12.2327   75.3374   21.7113 O.2     1  UNL1       -0.2684
     17 N          10.1657   76.4510   21.7409 N.am    1  UNL1       -0.3023
     18 H           9.7762   75.7717   21.0486 H       1  UNL1        0.1497
     19 C          -0.0381   76.3713   20.2794 C.ar    1  UNL1        0.2249
     20 C           0.1015   75.5090   19.1880 C.ar    1  UNL1        0.0577
     21 C           1.2891   74.7934   19.0217 C.ar    1  UNL1        0.0063
     22 C           2.3295   74.9435   19.9480 C.ar    1  UNL1        0.0181
     23 C           3.5351   74.2450   19.8066 C.ar    1  UNL1        0.0081
     24 C           4.5769   74.4102   20.7387 C.ar    1  UNL1        0.0799
     25 C           4.3766   75.2742   21.8501 C.ar    1  UNL1        0.0613
     26 C           3.1720   75.9848   21.9725 C.ar    1  UNL1        0.0239
     27 C           2.1522   75.8225   21.0339 C.ar    1  UNL1        0.0845
     28 N           0.9841   76.5061   21.1707 N.ar    1  UNL1       -0.2117
     29 C           5.8553   73.6917   20.5005 C.2     1  UNL1        0.3382
     30 O           6.4842   73.1551   21.4515 O.2     1  UNL1       -0.2451
     31 O           6.3900   73.6311   19.2160 O.3     1  UNL1       -0.4771
     32 H           7.2652   73.1526   19.0386 H       1  UNL1        0.2954
     33 C          -2.4946   76.5704   20.0468 C.3     1  UNL1        0.2542
     34 O          -1.2288   77.0855   20.4421 O.3     1  UNL1       -0.4561
     35 C          14.6098   78.9252   24.9825 C.3     1  UNL1        0.0867
     36 C          15.8487   78.7848   24.0716 C.3     1  UNL1        0.0244
     37 C          14.8362   78.0834   26.2535 C.3     1  UNL1        0.0244
     38 C          14.4365   80.4066   25.3640 C.3     1  UNL1        0.0244
@<TRIPOS>BOND
     1    33    34    1
     2    34    19    1
     3    19    20   ar
     4    20    21   ar
     5    21    22   ar
     6    22    23   ar
     7    23    24   ar
     8    24    29    1
     9    29    30    2
    10    29    31    1
    11    24    25   ar
    12    25     1    1
    13     1     2    2
    14     1     3   am
    15     3     4    1
    16     4     5    1
    17     5     6    1
    18     6     7    1
    19     7     8    1
    20     6     9    1
    21     9    10    1
    22    10    11   ar
    23    11    12   ar
    24    12    35    1
    25    35    36    1
    26    35    37    1
    27    35    38    1
    28    12    13   ar
    29    13    14   ar
    30    14    15    1
    31    15    16    2
    32    15    17   am
    33    25    26   ar
    34    26    27   ar
    35    27    28   ar
    36    28    19   ar
    37    27    22   ar
    38     8     3    1
    39    14    10   ar
    40    17     6    1
    41    31    32    1
    42    17    18    1
