@<TRIPOS>MOLECULE
*****
 35 39 0 0 0
SMALL
GASTEIGER

@<TRIPOS>ATOM
      1 C          13.6983   81.9351   25.5868 C.2     1  UNL1        0.2490
      2 O          14.5372   81.2959   26.2789 O.2     1  UNL1       -0.2699
      3 N          12.5705   81.2386   25.0217 N.am    1  UNL1       -0.2760
      4 C          12.6960   79.8098   24.7031 C.3     1  UNL1        0.0954
      5 C          11.6100   79.3838   23.7086 C.3     1  UNL1        0.0399
      6 C          10.1641   79.6776   24.2213 C.3     1  UNL1        0.0645
      7 C          10.1441   80.8764   25.2180 C.3     1  UNL1        0.0399
      8 C          11.2548   81.8919   24.9341 C.3     1  UNL1        0.0954
      9 C           9.5974   78.4135   24.9607 C.3     1  UNL1        0.0477
     10 C           9.1786   77.3588   23.9821 C.ar    1  UNL1        0.0220
     11 C           8.9380   76.0157   24.1544 C.ar    1  UNL1        0.0923
     12 N           8.4029   75.5383   23.0024 N.ar    1  UNL1       -0.2534
     13 N           8.2632   76.5323   22.1292 N.ar    1  UNL1       -0.1651
     14 C           8.7357   77.6394   22.7271 C.ar    1  UNL1        0.1515
     15 C           8.7480   79.0000   22.2145 C.2     1  UNL1        0.2650
     16 O           8.2553   79.2818   21.0903 O.2     1  UNL1       -0.2684
     17 N           9.3226   80.0192   23.0473 N.am    1  UNL1       -0.3023
     18 H           9.3031   81.0054   22.7003 H       1  UNL1        0.1497
     19 C          14.3083   85.8227   22.5805 C.ar    1  UNL1        0.2248
     20 N          14.4932   87.1615   22.4159 N.ar    1  UNL1       -0.2101
     21 C          14.5832   88.0126   23.4686 C.ar    1  UNL1        0.1021
     22 C          14.4876   87.5303   24.7730 C.ar    1  UNL1        0.0213
     23 C          14.2968   86.1560   24.9966 C.ar    1  UNL1        0.0114
     24 C          14.2005   85.6211   26.3005 C.ar    1  UNL1        0.0304
     25 I          14.3307   86.8030   28.0625 I       1  UNL1       -0.0425
     26 C          14.0081   84.2471   26.4770 C.ar    1  UNL1        0.0103
     27 C          13.8981   83.3869   25.3761 C.ar    1  UNL1        0.0542
     28 C          14.0142   83.9101   24.0809 C.ar    1  UNL1        0.0092
     29 C          14.2045   85.2872   23.8793 C.ar    1  UNL1        0.0538
     30 C          14.6636   85.3719   20.1680 C.3     1  UNL1        0.2542
     31 O          14.2196   84.9837   21.4625 O.3     1  UNL1       -0.4561
     32 C           7.9588   74.1504   22.7636 C.3     1  UNL1        0.0867
     33 C           6.9963   73.7229   23.8867 C.3     1  UNL1        0.0244
     34 C           7.2268   74.0401   21.4086 C.3     1  UNL1        0.0244
     35 C           9.1809   73.2117   22.7404 C.3     1  UNL1        0.0244
@<TRIPOS>BOND
     1    30    31    1
     2    31    19    1
     3    19    20   ar
     4    20    21   ar
     5    21    22   ar
     6    22    23   ar
     7    23    24   ar
     8    24    25    1
     9    24    26   ar
    10    26    27   ar
    11    27     1    1
    12     1     2    2
    13     1     3   am
    14     3     4    1
    15     4     5    1
    16     5     6    1
    17     6     7    1
    18     7     8    1
    19     6     9    1
    20     9    10    1
    21    10    11   ar
    22    11    12   ar
    23    12    32    1
    24    32    33    1
    25    32    34    1
    26    32    35    1
    27    12    13   ar
    28    13    14   ar
    29    14    15    1
    30    15    16    2
    31    15    17   am
    32    27    28   ar
    33    28    29   ar
    34    29    19   ar
    35    29    23   ar
    36     8     3    1
    37    14    10   ar
    38    17     6    1
    39    17    18    1
@<TRIPOS>MOLECULE
*****
 35 39 0 0 0
SMALL
GASTEIGER

@<TRIPOS>ATOM
      1 C          13.6064   82.1009   25.3738 C.2     1  UNL1        0.2490
      2 O          14.3546   81.5342   26.2167 O.2     1  UNL1       -0.2699
      3 N          12.4759   81.3856   24.8383 N.am    1  UNL1       -0.2760
      4 C          12.5295   79.9198   24.7522 C.3     1  UNL1        0.0954
      5 C          11.4864   79.4017   23.7555 C.3     1  UNL1        0.0399
      6 C          10.0319   79.8495   24.1068 C.3     1  UNL1        0.0645
      7 C          10.0234   81.1892   24.9042 C.3     1  UNL1        0.0399
      8 C          11.2138   82.0866   24.5529 C.3     1  UNL1        0.0954
      9 C           9.3370   78.7494   24.9858 C.3     1  UNL1        0.0477
     10 C           8.9165   77.5780   24.1512 C.ar    1  UNL1        0.0220
     11 C           8.5787   76.2935   24.5082 C.ar    1  UNL1        0.0923
     12 N           8.0914   75.6704   23.4056 N.ar    1  UNL1       -0.2534
     13 N           8.0743   76.5210   22.3827 N.ar    1  UNL1       -0.1651
     14 C           8.5767   77.6813   22.8383 C.ar    1  UNL1        0.1515
     15 C           8.7108   78.9419   22.1261 C.2     1  UNL1        0.2650
     16 O           8.3128   79.0696   20.9382 O.2     1  UNL1       -0.2684
     17 N           9.2937   80.0470   22.8343 N.am    1  UNL1       -0.3023
     18 H           9.3609   80.9660   22.3402 H       1  UNL1        0.1497
     19 C          14.3524   86.8731   26.4658 C.ar    1  UNL1        0.2248
     20 N          14.6347   88.1406   26.0566 N.ar    1  UNL1       -0.2101
     21 C          14.8424   88.4484   24.7517 C.ar    1  UNL1        0.1021
     22 C          14.7706   87.4562   23.7751 C.ar    1  UNL1        0.0213
     23 C          14.4818   86.1318   24.1458 C.ar    1  UNL1        0.0114
     24 C          14.3926   85.0948   23.1906 C.ar    1  UNL1        0.0304
     25 I          14.6768   85.3970   21.1059 I       1  UNL1       -0.0425
     26 C          14.1053   83.7900   23.6042 C.ar    1  UNL1        0.0103
     27 C          13.9131   83.4887   24.9593 C.ar    1  UNL1        0.0542
     28 C          13.9797   84.5181   25.9083 C.ar    1  UNL1        0.0092
     29 C          14.2700   85.8355   25.5166 C.ar    1  UNL1        0.0538
     30 C          13.9402   87.6255   28.7925 C.3     1  UNL1        0.2542
     31 O          14.1474   86.6037   27.8249 O.3     1  UNL1       -0.4561
     32 C           7.5753   74.2880   23.3490 C.3     1  UNL1        0.0867
     33 C           8.7361   73.3226   23.0482 C.3     1  UNL1        0.0244
     34 C           6.9325   73.8930   24.6962 C.3     1  UNL1        0.0244
     35 C           6.5072   74.1781   22.2434 C.3     1  UNL1        0.0244
@<TRIPOS>BOND
     1    30    31    1
     2    31    19    1
     3    19    20   ar
     4    20    21   ar
     5    21    22   ar
     6    22    23   ar
     7    23    24   ar
     8    24    25    1
     9    24    26   ar
    10    26    27   ar
    11    27     1    1
    12     1     2    2
    13     1     3   am
    14     3     4    1
    15     4     5    1
    16     5     6    1
    17     6     7    1
    18     7     8    1
    19     6     9    1
    20     9    10    1
    21    10    11   ar
    22    11    12   ar
    23    12    32    1
    24    32    33    1
    25    32    34    1
    26    32    35    1
    27    12    13   ar
    28    13    14   ar
    29    14    15    1
    30    15    16    2
    31    15    17   am
    32    27    28   ar
    33    28    29   ar
    34    29    19   ar
    35    29    23   ar
    36     8     3    1
    37    14    10   ar
    38    17     6    1
    39    17    18    1
@<TRIPOS>MOLECULE
*****
 35 39 0 0 0
SMALL
GASTEIGER

@<TRIPOS>ATOM
      1 C           5.6079   75.3143   22.3476 C.2     1  UNL1        0.2490
      2 O           5.7357   74.0731   22.5337 O.2     1  UNL1       -0.2699
      3 N           6.7587   76.1713   22.4809 N.am    1  UNL1       -0.2760
      4 C           7.8469   75.7759   23.3853 C.3     1  UNL1        0.0954
      5 C           8.7128   76.9883   23.7463 C.3     1  UNL1        0.0399
      6 C           9.3113   77.7049   22.4941 C.3     1  UNL1        0.0645
      7 C           8.4148   77.4992   21.2353 C.3     1  UNL1        0.0399
      8 C           6.9349   77.3310   21.5921 C.3     1  UNL1        0.0954
      9 C          10.7369   77.1247   22.1830 C.3     1  UNL1        0.0477
     10 C          11.7577   77.6589   23.1412 C.ar    1  UNL1        0.0220
     11 C          13.0195   77.2105   23.4546 C.ar    1  UNL1        0.0923
     12 N          13.6103   78.1471   24.2390 N.ar    1  UNL1       -0.2534
     13 N          12.7868   79.1796   24.3993 N.ar    1  UNL1       -0.1651
     14 C          11.6599   78.8809   23.7306 C.ar    1  UNL1        0.1515
     15 C          10.4799   79.7100   23.5459 C.2     1  UNL1        0.2650
     16 O          10.4200   80.8786   24.0114 O.2     1  UNL1       -0.2684
     17 N           9.3899   79.1570   22.7916 N.am    1  UNL1       -0.3023
     18 H           8.5525   79.7604   22.6248 H       1  UNL1        0.1497
     19 C           1.7607   78.2846   23.2961 C.ar    1  UNL1        0.2248
     20 N           0.5341   78.7632   22.9497 N.ar    1  UNL1       -0.2101
     21 C          -0.1183   78.3403   21.8378 C.ar    1  UNL1        0.1021
     22 C           0.4604   77.3849   21.0037 C.ar    1  UNL1        0.0213
     23 C           1.7253   76.8590   21.3173 C.ar    1  UNL1        0.0114
     24 C           2.3478   75.8850   20.5054 C.ar    1  UNL1        0.0304
     25 I           1.4681   75.1007   18.7364 I       1  UNL1       -0.0425
     26 C           3.6089   75.3905   20.8538 C.ar    1  UNL1        0.0103
     27 C           4.2751   75.8546   21.9961 C.ar    1  UNL1        0.0542
     28 C           3.6522   76.8055   22.8162 C.ar    1  UNL1        0.0092
     29 C           2.3873   77.3186   22.4844 C.ar    1  UNL1        0.0538
     30 C           2.4146   78.0234   25.6738 C.3     1  UNL1        0.2542
     31 O           2.3959   78.7533   24.4529 O.3     1  UNL1       -0.4561
     32 C          14.9858   78.0871   24.7728 C.3     1  UNL1        0.0867
     33 C          15.6921   76.8348   24.2221 C.3     1  UNL1        0.0244
     34 C          15.7865   79.3386   24.3522 C.3     1  UNL1        0.0244
     35 C          14.9424   78.0254   26.3121 C.3     1  UNL1        0.0244
@<TRIPOS>BOND
     1    30    31    1
     2    31    19    1
     3    19    20   ar
     4    20    21   ar
     5    21    22   ar
     6    22    23   ar
     7    23    24   ar
     8    24    25    1
     9    24    26   ar
    10    26    27   ar
    11    27     1    1
    12     1     2    2
    13     1     3   am
    14     3     4    1
    15     4     5    1
    16     5     6    1
    17     6     7    1
    18     7     8    1
    19     6     9    1
    20     9    10    1
    21    10    11   ar
    22    11    12   ar
    23    12    32    1
    24    32    33    1
    25    32    34    1
    26    32    35    1
    27    12    13   ar
    28    13    14   ar
    29    14    15    1
    30    15    16    2
    31    15    17   am
    32    27    28   ar
    33    28    29   ar
    34    29    19   ar
    35    29    23   ar
    36     8     3    1
    37    14    10   ar
    38    17     6    1
    39    17    18    1
@<TRIPOS>MOLECULE
*****
 35 39 0 0 0
SMALL
GASTEIGER

@<TRIPOS>ATOM
      1 C           5.8894   78.8628   21.0344 C.2     1  UNL1        0.2490
      2 O           5.9447   80.0872   20.7359 O.2     1  UNL1       -0.2699
      3 N           7.0342   78.2301   21.6390 N.am    1  UNL1       -0.2760
      4 C           8.3774   78.7510   21.3507 C.3     1  UNL1        0.0954
      5 C           9.4432   77.6988   21.6776 C.3     1  UNL1        0.0399
      6 C           9.3822   77.2086   23.1594 C.3     1  UNL1        0.0645
      7 C           7.9436   77.3403   23.7458 C.3     1  UNL1        0.0399
      8 C           6.8594   77.1981   22.6735 C.3     1  UNL1        0.0954
      9 C          10.3542   78.0696   24.0424 C.3     1  UNL1        0.0477
     10 C          11.7805   77.6635   23.8277 C.ar    1  UNL1        0.0220
     11 C          12.9557   78.3154   24.1199 C.ar    1  UNL1        0.0923
     12 N          13.9768   77.4481   23.9038 N.ar    1  UNL1       -0.2534
     13 N          13.4892   76.2696   23.5251 N.ar    1  UNL1       -0.1651
     14 C          12.1526   76.4025   23.4794 C.ar    1  UNL1        0.1515
     15 C          11.1595   75.3830   23.1817 C.2     1  UNL1        0.2650
     16 O          11.4926   74.1912   22.9487 O.2     1  UNL1       -0.2684
     17 N           9.7788   75.7785   23.1853 N.am    1  UNL1       -0.3023
     18 H           9.0572   75.0432   23.0068 H       1  UNL1        0.1497
     19 C           3.5415   74.9710   19.0684 C.ar    1  UNL1        0.2248
     20 N           2.3820   74.3008   18.8235 N.ar    1  UNL1       -0.2101
     21 C           1.1771   74.7677   19.2370 C.ar    1  UNL1        0.1021
     22 C           1.0916   75.9701   19.9371 C.ar    1  UNL1        0.0213
     23 C           2.2596   76.7004   20.2151 C.ar    1  UNL1        0.0114
     24 C           2.2210   77.9265   20.9157 C.ar    1  UNL1        0.0304
     25 I           0.4239   78.8116   21.6266 I       1  UNL1       -0.0425
     26 C           3.4085   78.6193   21.1729 C.ar    1  UNL1        0.0103
     27 C           4.6454   78.1105   20.7543 C.ar    1  UNL1        0.0542
     28 C           4.6866   76.9050   20.0404 C.ar    1  UNL1        0.0092
     29 C           3.5071   76.1903   19.7732 C.ar    1  UNL1        0.0538
     30 C           5.6916   73.8097   19.4900 C.3     1  UNL1        0.2542
     31 O           4.7620   74.4481   18.6229 O.3     1  UNL1       -0.4561
     32 C          15.4098   77.7239   24.1295 C.3     1  UNL1        0.0867
     33 C          16.1914   76.3976   24.1221 C.3     1  UNL1        0.0244
     34 C          15.9680   78.6396   23.0187 C.3     1  UNL1        0.0244
     35 C          15.5945   78.4292   25.4873 C.3     1  UNL1        0.0244
@<TRIPOS>BOND
     1    30    31    1
     2    31    19    1
     3    19    20   ar
     4    20    21   ar
     5    21    22   ar
     6    22    23   ar
     7    23    24   ar
     8    24    25    1
     9    24    26   ar
    10    26    27   ar
    11    27     1    1
    12     1     2    2
    13     1     3   am
    14     3     4    1
    15     4     5    1
    16     5     6    1
    17     6     7    1
    18     7     8    1
    19     6     9    1
    20     9    10    1
    21    10    11   ar
    22    11    12   ar
    23    12    32    1
    24    32    33    1
    25    32    34    1
    26    32    35    1
    27    12    13   ar
    28    13    14   ar
    29    14    15    1
    30    15    16    2
    31    15    17   am
    32    27    28   ar
    33    28    29   ar
    34    29    19   ar
    35    29    23   ar
    36     8     3    1
    37    14    10   ar
    38    17     6    1
    39    17    18    1
@<TRIPOS>MOLECULE
*****
 35 39 0 0 0
SMALL
GASTEIGER

@<TRIPOS>ATOM
      1 C           5.7095   75.4348   23.0204 C.2     1  UNL1        0.2490
      2 O           5.8414   74.1938   23.2050 O.2     1  UNL1       -0.2699
      3 N           6.8748   76.2818   23.0499 N.am    1  UNL1       -0.2760
      4 C           8.0315   75.8826   23.8632 C.3     1  UNL1        0.0954
      5 C           8.9353   77.0893   24.1406 C.3     1  UNL1        0.0399
      6 C           9.4331   77.7912   22.8371 C.3     1  UNL1        0.0645
      7 C           8.4324   77.5848   21.6594 C.3     1  UNL1        0.0399
      8 C           6.9862   77.4332   22.1402 C.3     1  UNL1        0.0954
      9 C          10.8224   77.1953   22.4124 C.3     1  UNL1        0.0477
     10 C          11.9245   77.7267   23.2774 C.ar    1  UNL1        0.0220
     11 C          13.2042   77.2686   23.4876 C.ar    1  UNL1        0.0923
     12 N          13.8669   78.2052   24.2122 N.ar    1  UNL1       -0.2534
     13 N          13.0689   79.2466   24.4327 N.ar    1  UNL1       -0.1651
     14 C          11.8873   78.9537   23.8631 C.ar    1  UNL1        0.1515
     15 C          10.7033   79.7927   23.7712 C.2     1  UNL1        0.2650
     16 O          10.6930   80.9651   24.2307 O.2     1  UNL1       -0.2684
     17 N           9.5492   79.2445   23.1154 N.am    1  UNL1       -0.3023
     18 H           8.7060   79.8546   23.0144 H       1  UNL1        0.1497
     19 C           1.8041   76.1568   20.0623 C.ar    1  UNL1        0.2248
     20 N           0.5605   76.6749   19.8658 N.ar    1  UNL1       -0.2101
     21 C          -0.0939   77.3675   20.8315 C.ar    1  UNL1        0.1021
     22 C           0.5009   77.5723   22.0755 C.ar    1  UNL1        0.0213
     23 C           1.7840   77.0580   22.3287 C.ar    1  UNL1        0.0114
     24 C           2.4286   77.2460   23.5715 C.ar    1  UNL1        0.0304
     25 I           1.5588   78.3131   25.1910 I       1  UNL1       -0.0425
     26 C           3.7053   76.7145   23.7812 C.ar    1  UNL1        0.0103
     27 C           4.3567   75.9851   22.7774 C.ar    1  UNL1        0.0542
     28 C           3.7298   75.8141   21.5354 C.ar    1  UNL1        0.0092
     29 C           2.4465   76.3362   21.3031 C.ar    1  UNL1        0.0538
     30 C           3.3414   76.0555   18.1192 C.3     1  UNL1        0.2542
     31 O           2.4392   75.4471   19.0353 O.3     1  UNL1       -0.4561
     32 C          15.2818   78.1360   24.6295 C.3     1  UNL1        0.0867
     33 C          15.8765   76.7849   24.1925 C.3     1  UNL1        0.0244
     34 C          16.0960   79.2749   23.9783 C.3     1  UNL1        0.0244
     35 C          15.3781   78.2760   26.1612 C.3     1  UNL1        0.0244
@<TRIPOS>BOND
     1    30    31    1
     2    31    19    1
     3    19    20   ar
     4    20    21   ar
     5    21    22   ar
     6    22    23   ar
     7    23    24   ar
     8    24    25    1
     9    24    26   ar
    10    26    27   ar
    11    27     1    1
    12     1     2    2
    13     1     3   am
    14     3     4    1
    15     4     5    1
    16     5     6    1
    17     6     7    1
    18     7     8    1
    19     6     9    1
    20     9    10    1
    21    10    11   ar
    22    11    12   ar
    23    12    32    1
    24    32    33    1
    25    32    34    1
    26    32    35    1
    27    12    13   ar
    28    13    14   ar
    29    14    15    1
    30    15    16    2
    31    15    17   am
    32    27    28   ar
    33    28    29   ar
    34    29    19   ar
    35    29    23   ar
    36     8     3    1
    37    14    10   ar
    38    17     6    1
    39    17    18    1
@<TRIPOS>MOLECULE
*****
 35 39 0 0 0
SMALL
GASTEIGER

@<TRIPOS>ATOM
      1 C           7.4416   75.0096   24.2313 C.2     1  UNL1        0.2490
      2 O           7.2043   74.1300   25.1039 O.2     1  UNL1       -0.2699
      3 N           6.4679   75.2628   23.1997 N.am    1  UNL1       -0.2760
      4 C           5.5717   74.1780   22.7771 C.3     1  UNL1        0.0954
      5 C           4.9693   74.4841   21.4011 C.3     1  UNL1        0.0399
      6 C           4.1979   75.8416   21.3612 C.3     1  UNL1        0.0645
      7 C           4.7532   76.8454   22.4170 C.3     1  UNL1        0.0399
      8 C           6.2422   76.6296   22.7030 C.3     1  UNL1        0.0954
      9 C           2.6776   75.5959   21.6678 C.3     1  UNL1        0.0477
     10 C           1.9756   75.0103   20.4805 C.ar    1  UNL1        0.0220
     11 C           0.7713   74.3536   20.3804 C.ar    1  UNL1        0.0923
     12 N           0.4957   74.1897   19.0618 N.ar    1  UNL1       -0.2534
     13 N           1.4572   74.7487   18.3317 N.ar    1  UNL1       -0.1651
     14 C           2.3569   75.2476   19.1966 C.ar    1  UNL1        0.1515
     15 C           3.5590   76.0099   18.9003 C.2     1  UNL1        0.2650
     16 O           3.8691   76.3124   17.7179 O.2     1  UNL1       -0.2684
     17 N           4.3717   76.4274   20.0085 N.am    1  UNL1       -0.3023
     18 H           5.2187   77.0059   19.8055 H       1  UNL1        0.1497
     19 C          12.1831   75.5872   22.9245 C.ar    1  UNL1        0.2248
     20 N          13.3441   76.2941   23.0017 N.ar    1  UNL1       -0.2101
     21 C          13.4573   77.4161   23.7561 C.ar    1  UNL1        0.1021
     22 C          12.3670   77.8846   24.4876 C.ar    1  UNL1        0.0213
     23 C          11.1459   77.1905   24.4419 C.ar    1  UNL1        0.0114
     24 C          10.0164   77.6240   25.1711 C.ar    1  UNL1        0.0304
     25 I          10.0165   79.3504   26.4112 I       1  UNL1       -0.0425
     26 C           8.8197   76.9040   25.0947 C.ar    1  UNL1        0.0103
     27 C           8.7173   75.7582   24.2942 C.ar    1  UNL1        0.0542
     28 C           9.8415   75.3123   23.5856 C.ar    1  UNL1        0.0092
     29 C          11.0528   76.0211   23.6447 C.ar    1  UNL1        0.0538
     30 C          12.1116   73.1211   22.6744 C.3     1  UNL1        0.2542
     31 O          12.1141   74.4355   22.1305 O.3     1  UNL1       -0.4561
     32 C          -0.7196   73.5650   18.5022 C.3     1  UNL1        0.0867
     33 C          -1.9567   74.1015   19.2452 C.3     1  UNL1        0.0244
     34 C          -0.8567   73.8942   16.9999 C.3     1  UNL1        0.0244
     35 C          -0.6380   72.0346   18.6649 C.3     1  UNL1        0.0244
@<TRIPOS>BOND
     1    30    31    1
     2    31    19    1
     3    19    20   ar
     4    20    21   ar
     5    21    22   ar
     6    22    23   ar
     7    23    24   ar
     8    24    25    1
     9    24    26   ar
    10    26    27   ar
    11    27     1    1
    12     1     2    2
    13     1     3   am
    14     3     4    1
    15     4     5    1
    16     5     6    1
    17     6     7    1
    18     7     8    1
    19     6     9    1
    20     9    10    1
    21    10    11   ar
    22    11    12   ar
    23    12    32    1
    24    32    33    1
    25    32    34    1
    26    32    35    1
    27    12    13   ar
    28    13    14   ar
    29    14    15    1
    30    15    16    2
    31    15    17   am
    32    27    28   ar
    33    28    29   ar
    34    29    19   ar
    35    29    23   ar
    36     8     3    1
    37    14    10   ar
    38    17     6    1
    39    17    18    1
@<TRIPOS>MOLECULE
*****
 35 39 0 0 0
SMALL
GASTEIGER

@<TRIPOS>ATOM
      1 C          15.3812   84.2607   19.6159 C.2     1  UNL1        0.2490
      2 O          16.0068   83.2457   20.0280 O.2     1  UNL1       -0.2699
      3 N          14.9920   85.2811   20.5560 N.am    1  UNL1       -0.2760
      4 C          14.7438   84.9101   21.9558 C.3     1  UNL1        0.0954
      5 C          13.9085   85.9873   22.6571 C.3     1  UNL1        0.0399
      6 C          14.5679   87.4021   22.6028 C.3     1  UNL1        0.0645
      7 C          15.4893   87.5554   21.3545 C.3     1  UNL1        0.0399
      8 C          15.0203   86.7017   20.1727 C.3     1  UNL1        0.0954
      9 C          15.4397   87.6297   23.8888 C.3     1  UNL1        0.0477
     10 C          14.5788   87.9309   25.0778 C.ar    1  UNL1        0.0220
     11 C          14.8551   87.8832   26.4242 C.ar    1  UNL1        0.0923
     12 N          13.8024   88.4292   27.0839 N.ar    1  UNL1       -0.2534
     13 N          12.8955   88.8510   26.2066 N.ar    1  UNL1       -0.1651
     14 C          13.3697   88.5469   24.9863 C.ar    1  UNL1        0.1515
     15 C          12.7815   88.8557   23.6929 C.2     1  UNL1        0.2650
     16 O          11.7079   89.5070   23.5993 O.2     1  UNL1       -0.2684
     17 N          13.4818   88.4106   22.5207 N.am    1  UNL1       -0.3023
     18 H          13.0832   88.6595   21.5867 H       1  UNL1        0.1497
     19 C          14.8128   86.9783   15.5153 C.ar    1  UNL1        0.2248
     20 N          14.5166   87.0532   14.1886 N.ar    1  UNL1       -0.2101
     21 C          14.1890   85.9572   13.4591 C.ar    1  UNL1        0.1021
     22 C          14.1453   84.7000   14.0598 C.ar    1  UNL1        0.0213
     23 C          14.4424   84.5692   15.4272 C.ar    1  UNL1        0.0114
     24 C          14.4047   83.3170   16.0798 C.ar    1  UNL1        0.0304
     25 I          13.9015   81.5003   15.0975 I       1  UNL1       -0.0425
     26 C          14.7102   83.2323   17.4421 C.ar    1  UNL1        0.0103
     27 C          15.0653   84.3735   18.1739 C.ar    1  UNL1        0.0542
     28 C          15.0834   85.6212   17.5355 C.ar    1  UNL1        0.0092
     29 C          14.7834   85.7300   16.1675 C.ar    1  UNL1        0.0538
     30 C          15.1991   89.4254   15.6242 C.3     1  UNL1        0.2542
     31 O          15.1472   88.1377   16.2264 O.3     1  UNL1       -0.4561
     32 C          13.6973   88.6133   28.5453 C.3     1  UNL1        0.0867
     33 C          13.7809   87.2415   29.2391 C.3     1  UNL1        0.0244
     34 C          14.8448   89.5069   29.0638 C.3     1  UNL1        0.0244
     35 C          12.3549   89.2886   28.8876 C.3     1  UNL1        0.0244
@<TRIPOS>BOND
     1    30    31    1
     2    31    19    1
     3    19    20   ar
     4    20    21   ar
     5    21    22   ar
     6    22    23   ar
     7    23    24   ar
     8    24    25    1
     9    24    26   ar
    10    26    27   ar
    11    27     1    1
    12     1     2    2
    13     1     3   am
    14     3     4    1
    15     4     5    1
    16     5     6    1
    17     6     7    1
    18     7     8    1
    19     6     9    1
    20     9    10    1
    21    10    11   ar
    22    11    12   ar
    23    12    32    1
    24    32    33    1
    25    32    34    1
    26    32    35    1
    27    12    13   ar
    28    13    14   ar
    29    14    15    1
    30    15    16    2
    31    15    17   am
    32    27    28   ar
    33    28    29   ar
    34    29    19   ar
    35    29    23   ar
    36     8     3    1
    37    14    10   ar
    38    17     6    1
    39    17    18    1
@<TRIPOS>MOLECULE
*****
 35 39 0 0 0
SMALL
GASTEIGER

@<TRIPOS>ATOM
      1 C          10.3390   79.1521   25.6523 C.2     1  UNL1        0.2490
      2 O           9.6758   79.1052   26.7244 O.2     1  UNL1       -0.2699
      3 N          11.2407   80.2531   25.4264 N.am    1  UNL1       -0.2760
      4 C          10.9588   81.5517   26.0532 C.3     1  UNL1        0.0954
      5 C          11.7232   82.6710   25.3373 C.3     1  UNL1        0.0399
      6 C          13.2665   82.4325   25.3059 C.3     1  UNL1        0.0645
      7 C          13.6109   80.9131   25.3655 C.3     1  UNL1        0.0399
      8 C          12.5218   80.0410   24.7339 C.3     1  UNL1        0.0954
      9 C          13.9363   83.1376   26.5387 C.3     1  UNL1        0.0477
     10 C          14.0275   84.6186   26.3293 C.ar    1  UNL1        0.0220
     11 C          14.2310   85.6432   27.2239 C.ar    1  UNL1        0.0923
     12 N          14.4204   86.7836   26.5132 N.ar    1  UNL1       -0.2534
     13 N          14.3818   86.5105   25.2117 N.ar    1  UNL1       -0.1651
     14 C          14.1427   85.1926   25.1016 C.ar    1  UNL1        0.1515
     15 C          14.0716   84.3919   23.8901 C.2     1  UNL1        0.2650
     16 O          14.2689   84.9007   22.7552 O.2     1  UNL1       -0.2684
     17 N          13.7904   82.9909   24.0344 N.am    1  UNL1       -0.3023
     18 H          13.7726   82.4023   23.1703 H       1  UNL1        0.1497
     19 C          12.1829   75.4158   22.9758 C.ar    1  UNL1        0.2248
     20 N          12.0001   74.4293   22.0555 N.ar    1  UNL1       -0.2101
     21 C          10.7984   74.2042   21.4674 C.ar    1  UNL1        0.1021
     22 C           9.6964   74.9925   21.7954 C.ar    1  UNL1        0.0213
     23 C           9.8328   76.0244   22.7397 C.ar    1  UNL1        0.0114
     24 C           8.7460   76.8524   23.0985 C.ar    1  UNL1        0.0304
     25 I           6.7985   76.6508   22.2710 I       1  UNL1       -0.0425
     26 C           8.9259   77.8663   24.0450 C.ar    1  UNL1        0.0103
     27 C          10.1707   78.0703   24.6556 C.ar    1  UNL1        0.0542
     28 C          11.2571   77.2649   24.2872 C.ar    1  UNL1        0.0092
     29 C          11.0993   76.2385   23.3412 C.ar    1  UNL1        0.0538
     30 C          14.1360   76.8495   23.5038 C.3     1  UNL1        0.2542
     31 O          13.4424   75.6088   23.5572 O.3     1  UNL1       -0.4561
     32 C          14.7105   88.1173   27.0770 C.3     1  UNL1        0.0867
     33 C          14.5769   88.0627   28.6097 C.3     1  UNL1        0.0244
     34 C          16.1451   88.5592   26.7153 C.3     1  UNL1        0.0244
     35 C          13.7190   89.1490   26.5046 C.3     1  UNL1        0.0244
@<TRIPOS>BOND
     1    30    31    1
     2    31    19    1
     3    19    20   ar
     4    20    21   ar
     5    21    22   ar
     6    22    23   ar
     7    23    24   ar
     8    24    25    1
     9    24    26   ar
    10    26    27   ar
    11    27     1    1
    12     1     2    2
    13     1     3   am
    14     3     4    1
    15     4     5    1
    16     5     6    1
    17     6     7    1
    18     7     8    1
    19     6     9    1
    20     9    10    1
    21    10    11   ar
    22    11    12   ar
    23    12    32    1
    24    32    33    1
    25    32    34    1
    26    32    35    1
    27    12    13   ar
    28    13    14   ar
    29    14    15    1
    30    15    16    2
    31    15    17   am
    32    27    28   ar
    33    28    29   ar
    34    29    19   ar
    35    29    23   ar
    36     8     3    1
    37    14    10   ar
    38    17     6    1
    39    17    18    1
@<TRIPOS>MOLECULE
*****
 35 39 0 0 0
SMALL
GASTEIGER

@<TRIPOS>ATOM
      1 C           7.0844   76.7271   24.4400 C.2     1  UNL1        0.2490
      2 O           6.5264   76.8370   25.5661 O.2     1  UNL1       -0.2699
      3 N           6.2732   76.5330   23.2649 N.am    1  UNL1       -0.2760
      4 C           4.9717   75.8637   23.3941 C.3     1  UNL1        0.0954
      5 C           4.5001   75.3388   22.0333 C.3     1  UNL1        0.0399
      6 C           4.4043   76.4578   20.9477 C.3     1  UNL1        0.0645
      7 C           5.3950   77.6252   21.2418 C.3     1  UNL1        0.0399
      8 C           6.6487   77.1553   21.9853 C.3     1  UNL1        0.0954
      9 C           2.9478   77.0440   20.9187 C.3     1  UNL1        0.0477
     10 C           2.0034   76.1084   20.2273 C.ar    1  UNL1        0.0220
     11 C           0.6297   76.0424   20.2423 C.ar    1  UNL1        0.0923
     12 N           0.2469   75.1387   19.3052 N.ar    1  UNL1       -0.2534
     13 N           1.3199   74.6637   18.6782 N.ar    1  UNL1       -0.1651
     14 C           2.3878   75.2549   19.2406 C.ar    1  UNL1        0.1515
     15 C           3.7870   75.1204   18.8687 C.2     1  UNL1        0.2650
     16 O           4.1412   74.4029   17.8963 O.2     1  UNL1       -0.2684
     17 N           4.7528   75.8551   19.6369 N.am    1  UNL1       -0.3023
     18 H           5.7571   75.7910   19.3531 H       1  UNL1        0.1497
     19 C          11.3291   79.1941   25.0879 C.ar    1  UNL1        0.2248
     20 N          12.6872   79.2360   25.0017 N.ar    1  UNL1       -0.2101
     21 C          13.4132   78.1913   24.5302 C.ar    1  UNL1        0.1021
     22 C          12.7761   77.0238   24.1125 C.ar    1  UNL1        0.0213
     23 C          11.3755   76.9303   24.1811 C.ar    1  UNL1        0.0114
     24 C          10.6864   75.7702   23.7633 C.ar    1  UNL1        0.0304
     25 I          11.6597   74.0463   22.9892 I       1  UNL1       -0.0425
     26 C           9.2914   75.7192   23.8513 C.ar    1  UNL1        0.0103
     27 C           8.5608   76.8018   24.3595 C.ar    1  UNL1        0.0542
     28 C           9.2387   77.9630   24.7554 C.ar    1  UNL1        0.0092
     29 C          10.6395   78.0357   24.6790 C.ar    1  UNL1        0.0538
     30 C          10.7656   81.6087   25.0506 C.3     1  UNL1        0.2542
     31 O          10.6229   80.2975   25.5833 O.3     1  UNL1       -0.4561
     32 C          -1.1447   74.7851   18.9605 C.3     1  UNL1        0.0867
     33 C          -2.1083   75.7422   19.6856 C.3     1  UNL1        0.0244
     34 C          -1.3738   74.9034   17.4381 C.3     1  UNL1        0.0244
     35 C          -1.4324   73.3332   19.3898 C.3     1  UNL1        0.0244
@<TRIPOS>BOND
     1    30    31    1
     2    31    19    1
     3    19    20   ar
     4    20    21   ar
     5    21    22   ar
     6    22    23   ar
     7    23    24   ar
     8    24    25    1
     9    24    26   ar
    10    26    27   ar
    11    27     1    1
    12     1     2    2
    13     1     3   am
    14     3     4    1
    15     4     5    1
    16     5     6    1
    17     6     7    1
    18     7     8    1
    19     6     9    1
    20     9    10    1
    21    10    11   ar
    22    11    12   ar
    23    12    32    1
    24    32    33    1
    25    32    34    1
    26    32    35    1
    27    12    13   ar
    28    13    14   ar
    29    14    15    1
    30    15    16    2
    31    15    17   am
    32    27    28   ar
    33    28    29   ar
    34    29    19   ar
    35    29    23   ar
    36     8     3    1
    37    14    10   ar
    38    17     6    1
    39    17    18    1
