@<TRIPOS>MOLECULE
*****
 36 39 0 0 0
SMALL
GASTEIGER

@<TRIPOS>ATOM
      1 C          46.7444   13.7224  -27.1360 C.2     1  UNL1       -0.0397
      2 C          47.6982   13.7938  -26.1621 C.2     1  UNL1       -0.0076
      3 C          48.5126   15.0295  -25.9497 C.ar    1  UNL1       -0.0015
      4 C          49.8962   14.9104  -25.7497 C.ar    1  UNL1        0.0030
      5 C          50.6922   16.0409  -25.5790 C.ar    1  UNL1        0.0400
      6 C          50.1234   17.3251  -25.6073 C.ar    1  UNL1        0.1718
      7 C          48.7359   17.4612  -25.7963 C.ar    1  UNL1        0.1636
      8 O          48.1559   18.7316  -25.8335 O.3     1  UNL1       -0.5031
      9 C          47.9227   16.3172  -25.9492 C.ar    1  UNL1        0.0145
     10 C          46.4265   16.4537  -26.1182 C.3     1  UNL1        0.0299
     11 C          45.9864   16.1314  -27.5541 C.3     1  UNL1        0.0091
     12 C          46.6147   14.8542  -28.1424 C.3     1  UNL1        0.0227
     13 H          48.6979   19.5808  -25.7294 H       1  UNL1        0.2923
     14 C          47.9631   12.6581  -25.2534 C.ar    1  UNL1        0.0056
     15 C          49.0088   11.7777  -25.5363 C.ar    1  UNL1        0.0402
     16 C          49.2971   10.7126  -24.6672 C.ar    1  UNL1        0.1754
     17 C          48.5093   10.5068  -23.5214 C.ar    1  UNL1        0.2061
     18 C          47.4260   11.3828  -23.2450 C.ar    1  UNL1        0.1754
     19 C          47.1668   12.4526  -24.1236 C.ar    1  UNL1        0.0402
     20 O          50.3714    9.8389  -24.9009 O.3     1  UNL1       -0.4683
     21 C          51.7444   10.2016  -24.7963 C.3     1  UNL1        0.2526
     22 O          48.8635    9.4193  -22.7000 O.3     1  UNL1       -0.4654
     23 C          49.5466    9.4849  -21.4533 C.3     1  UNL1        0.2528
     24 O          46.6321   11.1814  -22.1051 O.3     1  UNL1       -0.4683
     25 C          46.5296   12.0874  -21.0111 C.3     1  UNL1        0.2526
     26 O          50.9029   18.4828  -25.4510 O.3     1  UNL1       -0.4684
     27 C          52.1457   18.5338  -24.7577 C.3     1  UNL1        0.2526
     28 C          45.8944   12.4760  -27.3652 C.3     1  UNL1        0.0514
     29 C          46.2129   11.7342  -29.7883 C.ar    1  UNL1        0.1350
     30 C          46.7064   10.7968  -30.7191 C.ar    1  UNL1        0.0366
     31 C          47.4516    9.6971  -30.2905 C.ar    1  UNL1        0.0031
     32 C          47.7291    9.5258  -28.9360 C.ar    1  UNL1       -0.0001
     33 C          47.2441   10.4419  -28.0026 C.ar    1  UNL1       -0.0010
     34 C          46.4534   11.5324  -28.4114 C.ar    1  UNL1        0.0158
     35 C          45.4017   13.3188  -31.5465 C.3     1  UNL1        0.2525
     36 O          45.4950   12.8683  -30.1982 O.3     1  UNL1       -0.4717
@<TRIPOS>BOND
     1    35    36    1
     2    36    29    1
     3    29    30   ar
     4    30    31   ar
     5    31    32   ar
     6    32    33   ar
     7    33    34   ar
     8    34    28    1
     9    28     1    1
    10     1     2    2
    11     2    14    1
    12    14    15   ar
    13    15    16   ar
    14    16    20    1
    15    20    21    1
    16    16    17   ar
    17    17    22    1
    18    22    23    1
    19    17    18   ar
    20    18    24    1
    21    24    25    1
    22    18    19   ar
    23     2     3    1
    24     3     4   ar
    25     4     5   ar
    26     5     6   ar
    27     6    26    1
    28    26    27    1
    29     6     7   ar
    30     7     8    1
    31     7     9   ar
    32     9    10    1
    33    10    11    1
    34    11    12    1
    35    34    29   ar
    36    12     1    1
    37    19    14   ar
    38     9     3   ar
    39     8    13    1
@<TRIPOS>MOLECULE
*****
 36 39 0 0 0
SMALL
GASTEIGER

@<TRIPOS>ATOM
      1 C          46.7545   13.7466  -27.1211 C.2     1  UNL1       -0.0397
      2 C          47.7003   13.8297  -26.1402 C.2     1  UNL1       -0.0076
      3 C          48.5139   15.0673  -25.9368 C.ar    1  UNL1       -0.0015
      4 C          49.8958   14.9497  -25.7237 C.ar    1  UNL1        0.0030
      5 C          50.6913   16.0816  -25.5608 C.ar    1  UNL1        0.0400
      6 C          50.1240   17.3658  -25.6103 C.ar    1  UNL1        0.1718
      7 C          48.7383   17.5006  -25.8128 C.ar    1  UNL1        0.1636
      8 O          48.1598   18.7709  -25.8711 O.3     1  UNL1       -0.5031
      9 C          47.9254   16.3554  -25.9578 C.ar    1  UNL1        0.0145
     10 C          46.4307   16.4910  -26.1411 C.3     1  UNL1        0.0299
     11 C          46.0024   16.1507  -27.5764 C.3     1  UNL1        0.0091
     12 C          46.6344   14.8655  -28.1430 C.3     1  UNL1        0.0227
     13 H          48.7017   19.6210  -25.7734 H       1  UNL1        0.2923
     14 C          47.9564   12.7055  -25.2148 C.ar    1  UNL1        0.0056
     15 C          47.1579   12.5503  -24.0804 C.ar    1  UNL1        0.0402
     16 C          47.3642   11.4696  -23.2074 C.ar    1  UNL1        0.1754
     17 C          48.4022   10.5543  -23.4542 C.ar    1  UNL1        0.2061
     18 C          49.2358   10.7249  -24.5914 C.ar    1  UNL1        0.1754
     19 C          48.9988   11.8078  -25.4601 C.ar    1  UNL1        0.0402
     20 O          46.5475   11.2612  -22.0842 O.3     1  UNL1       -0.4683
     21 C          46.5437   12.0873  -20.9243 C.3     1  UNL1        0.2526
     22 O          48.5428    9.4977  -22.5341 O.3     1  UNL1       -0.4654
     23 C          49.4745    9.4256  -21.4609 C.3     1  UNL1        0.2528
     24 O          50.2770    9.8176  -24.8425 O.3     1  UNL1       -0.4683
     25 C          51.6649   10.1317  -24.7869 C.3     1  UNL1        0.2526
     26 O          50.9033   18.5248  -25.4624 O.3     1  UNL1       -0.4684
     27 C          52.1475   18.5803  -24.7720 C.3     1  UNL1        0.2526
     28 C          45.9053   12.4981  -27.3415 C.3     1  UNL1        0.0514
     29 C          46.2101   11.7399  -29.7612 C.ar    1  UNL1        0.1350
     30 C          46.7023   10.7985  -30.6886 C.ar    1  UNL1        0.0366
     31 C          47.4574    9.7065  -30.2575 C.ar    1  UNL1        0.0031
     32 C          47.7460    9.5471  -28.9038 C.ar    1  UNL1       -0.0001
     33 C          47.2625   10.4673  -27.9737 C.ar    1  UNL1       -0.0010
     34 C          46.4622   11.5499  -28.3847 C.ar    1  UNL1        0.0158
     35 C          45.3875   13.3142  -31.5233 C.3     1  UNL1        0.2525
     36 O          45.4823   12.8666  -30.1742 O.3     1  UNL1       -0.4717
@<TRIPOS>BOND
     1    35    36    1
     2    36    29    1
     3    29    30   ar
     4    30    31   ar
     5    31    32   ar
     6    32    33   ar
     7    33    34   ar
     8    34    28    1
     9    28     1    1
    10     1     2    2
    11     2    14    1
    12    14    15   ar
    13    15    16   ar
    14    16    20    1
    15    20    21    1
    16    16    17   ar
    17    17    22    1
    18    22    23    1
    19    17    18   ar
    20    18    24    1
    21    24    25    1
    22    18    19   ar
    23     2     3    1
    24     3     4   ar
    25     4     5   ar
    26     5     6   ar
    27     6    26    1
    28    26    27    1
    29     6     7   ar
    30     7     8    1
    31     7     9   ar
    32     9    10    1
    33    10    11    1
    34    11    12    1
    35    34    29   ar
    36    12     1    1
    37    19    14   ar
    38     9     3   ar
    39     8    13    1
@<TRIPOS>MOLECULE
*****
 36 39 0 0 0
SMALL
GASTEIGER

@<TRIPOS>ATOM
      1 C          46.5987   13.7512  -24.9799 C.2     1  UNL1       -0.0397
      2 C          47.2713   12.8709  -25.7774 C.2     1  UNL1       -0.0076
      3 C          46.8656   12.6283  -27.1958 C.ar    1  UNL1       -0.0015
      4 C          46.8117   11.3109  -27.6757 C.ar    1  UNL1        0.0030
      5 C          46.4087   11.0436  -28.9821 C.ar    1  UNL1        0.0400
      6 C          46.0444   12.0905  -29.8450 C.ar    1  UNL1        0.1718
      7 C          46.1031   13.4180  -29.3825 C.ar    1  UNL1        0.1636
      8 O          45.7378   14.4698  -30.2262 O.3     1  UNL1       -0.5031
      9 C          46.5306   13.6947  -28.0657 C.ar    1  UNL1        0.0145
     10 C          46.6294   15.1205  -27.5724 C.3     1  UNL1        0.0299
     11 C          45.5195   15.4491  -26.5626 C.3     1  UNL1        0.0091
     12 C          45.3059   14.3767  -25.4780 C.3     1  UNL1        0.0227
     13 H          45.4242   14.3209  -31.1776 H       1  UNL1        0.2923
     14 C          48.4490   12.1248  -25.2854 C.ar    1  UNL1        0.0056
     15 C          49.7227   12.4667  -25.7429 C.ar    1  UNL1        0.0402
     16 C          50.8566   11.7918  -25.2617 C.ar    1  UNL1        0.1754
     17 C          50.7110   10.7414  -24.3390 C.ar    1  UNL1        0.2061
     18 C          49.4146   10.3707  -23.8929 C.ar    1  UNL1        0.1754
     19 C          48.2945   11.0730  -24.3785 C.ar    1  UNL1        0.0402
     20 O          52.1537   12.1446  -25.6681 O.3     1  UNL1       -0.4683
     21 C          52.7569   11.7326  -26.8904 C.3     1  UNL1        0.2526
     22 O          51.8953   10.1166  -23.9034 O.3     1  UNL1       -0.4654
     23 C          52.4864    8.9434  -24.4506 C.3     1  UNL1        0.2528
     24 O          49.2606    9.3201  -22.9748 O.3     1  UNL1       -0.4683
     25 C          49.4317    9.4355  -21.5657 C.3     1  UNL1        0.2526
     26 O          45.6218   11.8499  -31.1625 O.3     1  UNL1       -0.4684
     27 C          46.0858   12.5638  -32.3040 C.3     1  UNL1        0.2526
     28 C          47.0000   14.0226  -23.5329 C.3     1  UNL1        0.0514
     29 C          49.2902   14.0196  -22.4023 C.ar    1  UNL1        0.1350
     30 C          50.5748   14.5820  -22.2542 C.ar    1  UNL1        0.0366
     31 C          50.9890   15.6304  -23.0774 C.ar    1  UNL1        0.0031
     32 C          50.1392   16.1197  -24.0671 C.ar    1  UNL1       -0.0001
     33 C          48.8637   15.5769  -24.2231 C.ar    1  UNL1       -0.0010
     34 C          48.4122   14.5496  -23.3733 C.ar    1  UNL1        0.0158
     35 C          48.8175   12.9521  -20.1894 C.3     1  UNL1        0.2525
     36 O          48.8657   12.9395  -21.6131 O.3     1  UNL1       -0.4717
@<TRIPOS>BOND
     1    35    36    1
     2    36    29    1
     3    29    30   ar
     4    30    31   ar
     5    31    32   ar
     6    32    33   ar
     7    33    34   ar
     8    34    28    1
     9    28     1    1
    10     1     2    2
    11     2    14    1
    12    14    15   ar
    13    15    16   ar
    14    16    20    1
    15    20    21    1
    16    16    17   ar
    17    17    22    1
    18    22    23    1
    19    17    18   ar
    20    18    24    1
    21    24    25    1
    22    18    19   ar
    23     2     3    1
    24     3     4   ar
    25     4     5   ar
    26     5     6   ar
    27     6    26    1
    28    26    27    1
    29     6     7   ar
    30     7     8    1
    31     7     9   ar
    32     9    10    1
    33    10    11    1
    34    11    12    1
    35    34    29   ar
    36    12     1    1
    37    19    14   ar
    38     9     3   ar
    39     8    13    1
@<TRIPOS>MOLECULE
*****
 36 39 0 0 0
SMALL
GASTEIGER

@<TRIPOS>ATOM
      1 C          46.5862   13.8024  -24.9902 C.2     1  UNL1       -0.0397
      2 C          47.2685   12.9167  -25.7733 C.2     1  UNL1       -0.0076
      3 C          46.8686   12.6502  -27.1890 C.ar    1  UNL1       -0.0015
      4 C          46.8275   11.3257  -27.6501 C.ar    1  UNL1        0.0030
      5 C          46.4302   11.0360  -28.9535 C.ar    1  UNL1        0.0400
      6 C          46.0590   12.0673  -29.8322 C.ar    1  UNL1        0.1718
      7 C          46.1049   13.4017  -29.3887 C.ar    1  UNL1        0.1636
      8 O          45.7326   14.4381  -30.2484 O.3     1  UNL1       -0.5031
      9 C          46.5266   13.7010  -28.0750 C.ar    1  UNL1        0.0145
     10 C          46.6116   15.1346  -27.6020 C.3     1  UNL1        0.0299
     11 C          45.4963   15.4679  -26.5998 C.3     1  UNL1        0.0091
     12 C          45.2893   14.4094  -25.5004 C.3     1  UNL1        0.0227
     13 H          45.4228   14.2728  -31.1983 H       1  UNL1        0.2923
     14 C          48.4514   12.1881  -25.2677 C.ar    1  UNL1        0.0056
     15 C          48.2813   11.1464  -24.3542 C.ar    1  UNL1        0.0402
     16 C          49.3897   10.4205  -23.8882 C.ar    1  UNL1        0.1754
     17 C          50.6846   10.7630  -24.3148 C.ar    1  UNL1        0.2061
     18 C          50.8651   11.8410  -25.2217 C.ar    1  UNL1        0.1754
     19 C          49.7363   12.5435  -25.6864 C.ar    1  UNL1        0.0402
     20 O          49.2454    9.3379  -23.0055 O.3     1  UNL1       -0.4683
     21 C          48.9645    9.4619  -21.6150 C.3     1  UNL1        0.2526
     22 O          51.7424    9.9865  -23.8041 O.3     1  UNL1       -0.4654
     23 C          52.4172    8.9271  -24.4732 C.3     1  UNL1        0.2528
     24 O          52.1552   12.1918  -25.6492 O.3     1  UNL1       -0.4683
     25 C          52.7651   11.7451  -26.8560 C.3     1  UNL1        0.2526
     26 O          45.6420   11.8041  -31.1472 O.3     1  UNL1       -0.4684
     27 C          46.0913   12.5154  -32.2961 C.3     1  UNL1        0.2526
     28 C          46.9814   14.0981  -23.5462 C.3     1  UNL1        0.0514
     29 C          49.2645   14.1235  -22.4019 C.ar    1  UNL1        0.1350
     30 C          50.5475   14.6908  -22.2585 C.ar    1  UNL1        0.0366
     31 C          50.9655   15.7212  -23.1024 C.ar    1  UNL1        0.0031
     32 C          50.1211   16.1871  -24.1079 C.ar    1  UNL1       -0.0001
     33 C          48.8473   15.6392  -24.2596 C.ar    1  UNL1       -0.0010
     34 C          48.3919   14.6305  -23.3898 C.ar    1  UNL1        0.0158
     35 C          49.0221   12.9983  -20.1803 C.3     1  UNL1        0.2525
     36 O          48.8365   13.0606  -21.5914 O.3     1  UNL1       -0.4717
@<TRIPOS>BOND
     1    35    36    1
     2    36    29    1
     3    29    30   ar
     4    30    31   ar
     5    31    32   ar
     6    32    33   ar
     7    33    34   ar
     8    34    28    1
     9    28     1    1
    10     1     2    2
    11     2    14    1
    12    14    15   ar
    13    15    16   ar
    14    16    20    1
    15    20    21    1
    16    16    17   ar
    17    17    22    1
    18    22    23    1
    19    17    18   ar
    20    18    24    1
    21    24    25    1
    22    18    19   ar
    23     2     3    1
    24     3     4   ar
    25     4     5   ar
    26     5     6   ar
    27     6    26    1
    28    26    27    1
    29     6     7   ar
    30     7     8    1
    31     7     9   ar
    32     9    10    1
    33    10    11    1
    34    11    12    1
    35    34    29   ar
    36    12     1    1
    37    19    14   ar
    38     9     3   ar
    39     8    13    1
@<TRIPOS>MOLECULE
*****
 36 39 0 0 0
SMALL
GASTEIGER

@<TRIPOS>ATOM
      1 C          48.8279   10.0842  -22.7712 C.2     1  UNL1       -0.0397
      2 C          47.9629   11.1400  -22.7918 C.2     1  UNL1       -0.0076
      3 C          47.1301   11.4961  -21.6023 C.ar    1  UNL1       -0.0015
      4 C          45.7746   11.8085  -21.7855 C.ar    1  UNL1        0.0030
      5 C          44.9599   12.1152  -20.6979 C.ar    1  UNL1        0.0400
      6 C          45.4808   12.1144  -19.3933 C.ar    1  UNL1        0.1718
      7 C          46.8407   11.8136  -19.1936 C.ar    1  UNL1        0.1636
      8 O          47.3724   11.8021  -17.9018 O.3     1  UNL1       -0.5031
      9 C          47.6745   11.5222  -20.2950 C.ar    1  UNL1        0.0145
     10 C          49.1443   11.2320  -20.0918 C.3     1  UNL1        0.0299
     11 C          49.4650    9.7464  -20.3150 C.3     1  UNL1        0.0091
     12 C          48.8295    9.1398  -21.5800 C.3     1  UNL1        0.0227
     13 H          46.8139   12.0036  -17.0812 H       1  UNL1        0.2923
     14 C          47.8181   11.9988  -23.9865 C.ar    1  UNL1        0.0056
     15 C          47.1099   11.5273  -25.0931 C.ar    1  UNL1        0.0402
     16 C          46.9329   12.3411  -26.2242 C.ar    1  UNL1        0.1754
     17 C          47.4997   13.6269  -26.2611 C.ar    1  UNL1        0.2061
     18 C          48.2459   14.0997  -25.1490 C.ar    1  UNL1        0.1754
     19 C          48.3960   13.2706  -24.0204 C.ar    1  UNL1        0.0402
     20 O          46.1860   11.9118  -27.3332 O.3     1  UNL1       -0.4683
     21 C          46.6916   11.0838  -28.3755 C.3     1  UNL1        0.2526
     22 O          47.2757   14.3811  -27.4290 O.3     1  UNL1       -0.4654
     23 C          46.2633   15.3618  -27.6244 C.3     1  UNL1        0.2528
     24 O          48.8185   15.3809  -25.1799 O.3     1  UNL1       -0.4683
     25 C          50.0937   15.6922  -25.7322 C.3     1  UNL1        0.2526
     26 O          44.6803   12.4069  -18.2771 O.3     1  UNL1       -0.4684
     27 C          43.2600   12.3079  -18.2520 C.3     1  UNL1        0.2526
     28 C          49.6950    9.7076  -23.9690 C.3     1  UNL1        0.0514
     29 C          50.7988   11.1363  -25.7755 C.ar    1  UNL1        0.1350
     30 C          51.7364   12.1239  -26.1419 C.ar    1  UNL1        0.0366
     31 C          52.4827   12.7892  -25.1679 C.ar    1  UNL1        0.0031
     32 C          52.2937   12.4935  -23.8195 C.ar    1  UNL1       -0.0001
     33 C          51.3734   11.5159  -23.4413 C.ar    1  UNL1       -0.0010
     34 C          50.6441   10.8032  -24.4118 C.ar    1  UNL1        0.0158
     35 C          50.5022    9.5241  -27.6657 C.3     1  UNL1        0.2525
     36 O          50.0091   10.4817  -26.7334 O.3     1  UNL1       -0.4717
@<TRIPOS>BOND
     1    35    36    1
     2    36    29    1
     3    29    30   ar
     4    30    31   ar
     5    31    32   ar
     6    32    33   ar
     7    33    34   ar
     8    34    28    1
     9    28     1    1
    10     1     2    2
    11     2    14    1
    12    14    15   ar
    13    15    16   ar
    14    16    20    1
    15    20    21    1
    16    16    17   ar
    17    17    22    1
    18    22    23    1
    19    17    18   ar
    20    18    24    1
    21    24    25    1
    22    18    19   ar
    23     2     3    1
    24     3     4   ar
    25     4     5   ar
    26     5     6   ar
    27     6    26    1
    28    26    27    1
    29     6     7   ar
    30     7     8    1
    31     7     9   ar
    32     9    10    1
    33    10    11    1
    34    11    12    1
    35    34    29   ar
    36    12     1    1
    37    19    14   ar
    38     9     3   ar
    39     8    13    1
@<TRIPOS>MOLECULE
*****
 36 39 0 0 0
SMALL
GASTEIGER

@<TRIPOS>ATOM
      1 C          48.7695   10.1117  -22.7394 C.2     1  UNL1       -0.0397
      2 C          47.8978   11.1620  -22.7579 C.2     1  UNL1       -0.0076
      3 C          47.0607   11.5086  -21.5686 C.ar    1  UNL1       -0.0015
      4 C          45.7035   11.8129  -21.7532 C.ar    1  UNL1        0.0030
      5 C          44.8849   12.1106  -20.6660 C.ar    1  UNL1        0.0400
      6 C          45.4036   12.1085  -19.3605 C.ar    1  UNL1        0.1718
      7 C          46.7649   11.8158  -19.1593 C.ar    1  UNL1        0.1636
      8 O          47.2945   11.8032  -17.8666 O.3     1  UNL1       -0.5031
      9 C          47.6026   11.5336  -20.2603 C.ar    1  UNL1        0.0145
     10 C          49.0739   11.2521  -20.0554 C.3     1  UNL1        0.0299
     11 C          49.4044    9.7695  -20.2833 C.3     1  UNL1        0.0091
     12 C          48.7751    9.1632  -21.5516 C.3     1  UNL1        0.0227
     13 H          46.7333   11.9982  -17.0464 H       1  UNL1        0.2923
     14 C          47.7496   12.0240  -23.9498 C.ar    1  UNL1        0.0056
     15 C          48.3345   13.2915  -23.9614 C.ar    1  UNL1        0.0402
     16 C          48.2332   14.1115  -25.0972 C.ar    1  UNL1        0.1754
     17 C          47.5103   13.6720  -26.2198 C.ar    1  UNL1        0.2061
     18 C          46.8888   12.3950  -26.2014 C.ar    1  UNL1        0.1754
     19 C          47.0180   11.5851  -25.0565 C.ar    1  UNL1        0.0402
     20 O          48.8503   15.3716  -25.1556 O.3     1  UNL1       -0.4683
     21 C          49.9959   15.7454  -24.3970 C.3     1  UNL1        0.2526
     22 O          47.4569   14.5509  -27.3187 O.3     1  UNL1       -0.4654
     23 C          46.3933   15.4384  -27.6444 C.3     1  UNL1        0.2528
     24 O          46.1617   11.9507  -27.3168 O.3     1  UNL1       -0.4683
     25 C          46.6878   11.1439  -28.3658 C.3     1  UNL1        0.2526
     26 O          44.5992   12.3920  -18.2447 O.3     1  UNL1       -0.4684
     27 C          43.1776   12.3104  -18.2305 C.3     1  UNL1        0.2526
     28 C          49.6412    9.7449  -23.9370 C.3     1  UNL1        0.0514
     29 C          50.7134   11.1966  -25.7442 C.ar    1  UNL1        0.1350
     30 C          51.6383   12.1952  -26.1129 C.ar    1  UNL1        0.0366
     31 C          52.3887   12.8601  -25.1417 C.ar    1  UNL1        0.0031
     32 C          52.2164   12.5529  -23.7937 C.ar    1  UNL1       -0.0001
     33 C          51.3088   11.5644  -23.4133 C.ar    1  UNL1       -0.0010
     34 C          50.5759   10.8522  -24.3814 C.ar    1  UNL1        0.0158
     35 C          50.4064    9.5750  -27.6247 C.3     1  UNL1        0.2525
     36 O          49.9197   10.5419  -26.6986 O.3     1  UNL1       -0.4717
@<TRIPOS>BOND
     1    35    36    1
     2    36    29    1
     3    29    30   ar
     4    30    31   ar
     5    31    32   ar
     6    32    33   ar
     7    33    34   ar
     8    34    28    1
     9    28     1    1
    10     1     2    2
    11     2    14    1
    12    14    15   ar
    13    15    16   ar
    14    16    20    1
    15    20    21    1
    16    16    17   ar
    17    17    22    1
    18    22    23    1
    19    17    18   ar
    20    18    24    1
    21    24    25    1
    22    18    19   ar
    23     2     3    1
    24     3     4   ar
    25     4     5   ar
    26     5     6   ar
    27     6    26    1
    28    26    27    1
    29     6     7   ar
    30     7     8    1
    31     7     9   ar
    32     9    10    1
    33    10    11    1
    34    11    12    1
    35    34    29   ar
    36    12     1    1
    37    19    14   ar
    38     9     3   ar
    39     8    13    1
@<TRIPOS>MOLECULE
*****
 36 39 0 0 0
SMALL
GASTEIGER

@<TRIPOS>ATOM
      1 C          47.6215   12.8065  -23.9781 C.2     1  UNL1       -0.0397
      2 C          48.2306   13.0290  -25.1793 C.2     1  UNL1       -0.0076
      3 C          48.7877   14.3684  -25.5410 C.ar    1  UNL1       -0.0015
      4 C          48.5448   14.8866  -26.8221 C.ar    1  UNL1        0.0030
      5 C          49.0215   16.1443  -27.1850 C.ar    1  UNL1        0.0400
      6 C          49.7537   16.9209  -26.2717 C.ar    1  UNL1        0.1718
      7 C          50.0149   16.4112  -24.9866 C.ar    1  UNL1        0.1636
      8 O          50.7359   17.1739  -24.0645 O.3     1  UNL1       -0.5031
      9 C          49.5512   15.1286  -24.6216 C.ar    1  UNL1        0.0145
     10 C          49.8575   14.5598  -23.2546 C.3     1  UNL1        0.0299
     11 C          48.6085   14.5281  -22.3611 C.3     1  UNL1        0.0091
     12 C          47.3454   13.9779  -23.0495 C.3     1  UNL1        0.0227
     13 H          51.0881   18.0988  -24.2799 H       1  UNL1        0.2923
     14 C          48.3881   11.9510  -26.1787 C.ar    1  UNL1        0.0056
     15 C          47.3562   11.6923  -27.0825 C.ar    1  UNL1        0.0402
     16 C          47.5005   10.6949  -28.0609 C.ar    1  UNL1        0.1754
     17 C          48.6760    9.9259  -28.1131 C.ar    1  UNL1        0.2061
     18 C          49.7167   10.1659  -27.1770 C.ar    1  UNL1        0.1754
     19 C          49.5543   11.1821  -26.2154 C.ar    1  UNL1        0.0402
     20 O          46.4990   10.4436  -29.0127 O.3     1  UNL1       -0.4683
     21 C          46.3754   11.1292  -30.2546 C.3     1  UNL1        0.2526
     22 O          48.7447    8.9475  -29.1236 O.3     1  UNL1       -0.4654
     23 C          49.3647    7.6703  -29.0272 C.3     1  UNL1        0.2528
     24 O          50.8919    9.3995  -27.2200 O.3     1  UNL1       -0.4683
     25 C          52.1603    9.8738  -27.6607 C.3     1  UNL1        0.2526
     26 O          50.2353   18.1971  -26.6055 O.3     1  UNL1       -0.4684
     27 C          49.4627   19.2143  -27.2349 C.3     1  UNL1        0.2526
     28 C          47.0543   11.4462  -23.5828 C.3     1  UNL1        0.0514
     29 C          47.5333   10.7456  -21.1739 C.ar    1  UNL1        0.1350
     30 C          48.3638   10.0951  -20.2381 C.ar    1  UNL1        0.0366
     31 C          49.4980    9.3993  -20.6598 C.ar    1  UNL1        0.0031
     32 C          49.8100    9.3276  -22.0158 C.ar    1  UNL1       -0.0001
     33 C          49.0010    9.9697  -22.9534 C.ar    1  UNL1       -0.0010
     34 C          47.8783   10.7132  -22.5430 C.ar    1  UNL1        0.0158
     35 C          46.1825   12.0304  -19.5052 C.3     1  UNL1        0.2525
     36 O          46.3668   11.4181  -20.7782 O.3     1  UNL1       -0.4717
@<TRIPOS>BOND
     1    35    36    1
     2    36    29    1
     3    29    30   ar
     4    30    31   ar
     5    31    32   ar
     6    32    33   ar
     7    33    34   ar
     8    34    28    1
     9    28     1    1
    10     1     2    2
    11     2    14    1
    12    14    15   ar
    13    15    16   ar
    14    16    20    1
    15    20    21    1
    16    16    17   ar
    17    17    22    1
    18    22    23    1
    19    17    18   ar
    20    18    24    1
    21    24    25    1
    22    18    19   ar
    23     2     3    1
    24     3     4   ar
    25     4     5   ar
    26     5     6   ar
    27     6    26    1
    28    26    27    1
    29     6     7   ar
    30     7     8    1
    31     7     9   ar
    32     9    10    1
    33    10    11    1
    34    11    12    1
    35    34    29   ar
    36    12     1    1
    37    19    14   ar
    38     9     3   ar
    39     8    13    1
@<TRIPOS>MOLECULE
*****
 36 39 0 0 0
SMALL
GASTEIGER

@<TRIPOS>ATOM
      1 C          47.4668   14.5588  -24.3101 C.2     1  UNL1       -0.0397
      2 C          47.8791   13.5875  -25.1761 C.2     1  UNL1       -0.0076
      3 C          47.2303   13.3974  -26.5096 C.ar    1  UNL1       -0.0015
      4 C          46.9197   12.0985  -26.9399 C.ar    1  UNL1        0.0030
      5 C          46.2872   11.8842  -28.1625 C.ar    1  UNL1        0.0400
      6 C          45.9446   12.9677  -28.9884 C.ar    1  UNL1        0.1718
      7 C          46.2587   14.2757  -28.5762 C.ar    1  UNL1        0.1636
      8 O          45.9187   15.3643  -29.3832 O.3     1  UNL1       -0.5031
      9 C          46.9180   14.4959  -27.3474 C.ar    1  UNL1        0.0145
     10 C          47.2897   15.8958  -26.9136 C.3     1  UNL1        0.0299
     11 C          46.4052   16.3844  -25.7568 C.3     1  UNL1        0.0091
     12 C          46.2131   15.3592  -24.6236 C.3     1  UNL1        0.0227
     13 H          45.4449   15.2564  -30.2718 H       1  UNL1        0.2923
     14 C          49.0024   12.6840  -24.8480 C.ar    1  UNL1        0.0056
     15 C          48.7491   11.4797  -24.1891 C.ar    1  UNL1        0.0402
     16 C          49.7989   10.5929  -23.8988 C.ar    1  UNL1        0.1754
     17 C          51.1197   10.9305  -24.2412 C.ar    1  UNL1        0.2061
     18 C          51.3858   12.1679  -24.8855 C.ar    1  UNL1        0.1754
     19 C          50.3141   13.0332  -25.1798 C.ar    1  UNL1        0.0402
     20 O          49.5688    9.3539  -23.2791 O.3     1  UNL1       -0.4683
     21 C          49.4852    9.1587  -21.8710 C.3     1  UNL1        0.2526
     22 O          52.1150    9.9881  -23.9185 O.3     1  UNL1       -0.4654
     23 C          52.5372    8.8914  -24.7211 C.3     1  UNL1        0.2528
     24 O          52.7026   12.5142  -25.2269 O.3     1  UNL1       -0.4683
     25 C          53.4126   12.0121  -26.3546 C.3     1  UNL1        0.2526
     26 O          45.2951   12.7826  -30.2197 O.3     1  UNL1       -0.4684
     27 C          45.8974   12.2040  -31.3731 C.3     1  UNL1        0.2526
     28 C          48.1197   14.7781  -22.9485 C.3     1  UNL1        0.0514
     29 C          48.7827   13.3164  -20.9618 C.ar    1  UNL1        0.1350
     30 C          48.4942   12.2492  -20.0864 C.ar    1  UNL1        0.0366
     31 C          47.2736   11.5767  -20.1664 C.ar    1  UNL1        0.0031
     32 C          46.3204   11.9676  -21.1043 C.ar    1  UNL1       -0.0001
     33 C          46.5926   13.0184  -21.9803 C.ar    1  UNL1       -0.0010
     34 C          47.8351   13.6791  -21.9441 C.ar    1  UNL1        0.0158
     35 C          51.1470   13.5774  -20.1857 C.3     1  UNL1        0.2525
     36 O          49.9864   14.0329  -20.8749 O.3     1  UNL1       -0.4717
@<TRIPOS>BOND
     1    35    36    1
     2    36    29    1
     3    29    30   ar
     4    30    31   ar
     5    31    32   ar
     6    32    33   ar
     7    33    34   ar
     8    34    28    1
     9    28     1    1
    10     1     2    2
    11     2    14    1
    12    14    15   ar
    13    15    16   ar
    14    16    20    1
    15    20    21    1
    16    16    17   ar
    17    17    22    1
    18    22    23    1
    19    17    18   ar
    20    18    24    1
    21    24    25    1
    22    18    19   ar
    23     2     3    1
    24     3     4   ar
    25     4     5   ar
    26     5     6   ar
    27     6    26    1
    28    26    27    1
    29     6     7   ar
    30     7     8    1
    31     7     9   ar
    32     9    10    1
    33    10    11    1
    34    11    12    1
    35    34    29   ar
    36    12     1    1
    37    19    14   ar
    38     9     3   ar
    39     8    13    1
@<TRIPOS>MOLECULE
*****
 36 39 0 0 0
SMALL
GASTEIGER

@<TRIPOS>ATOM
      1 C          48.5324   13.8625  -25.3133 C.2     1  UNL1       -0.0397
      2 C          49.0279   12.6752  -24.8568 C.2     1  UNL1       -0.0076
      3 C          48.6575   12.1346  -23.5131 C.ar    1  UNL1       -0.0015
      4 C          49.6611   11.6011  -22.6903 C.ar    1  UNL1        0.0030
      5 C          49.3592   11.1162  -21.4198 C.ar    1  UNL1        0.0400
      6 C          48.0410   11.1552  -20.9356 C.ar    1  UNL1        0.1718
      7 C          47.0212   11.6774  -21.7523 C.ar    1  UNL1        0.1636
      8 O          45.7064   11.7292  -21.2829 O.3     1  UNL1       -0.5031
      9 C          47.3196   12.1510  -23.0484 C.ar    1  UNL1        0.0145
     10 C          46.2238   12.6815  -23.9449 C.3     1  UNL1        0.0299
     11 C          46.3060   14.2077  -24.0983 C.3     1  UNL1        0.0091
     12 C          47.7218   14.7453  -24.3784 C.3     1  UNL1        0.0227
     13 H          45.4441   11.4025  -20.3608 H       1  UNL1        0.2923
     14 C          49.9428   11.8521  -25.6760 C.ar    1  UNL1        0.0056
     15 C          51.2657   12.2606  -25.8536 C.ar    1  UNL1        0.0402
     16 C          52.1589   11.4748  -26.6005 C.ar    1  UNL1        0.1754
     17 C          51.7142   10.2857  -27.2038 C.ar    1  UNL1        0.2061
     18 C          50.3615    9.8811  -27.0501 C.ar    1  UNL1        0.1754
     19 C          49.4894   10.6782  -26.2835 C.ar    1  UNL1        0.0402
     20 O          53.5068   11.8361  -26.7574 O.3     1  UNL1       -0.4683
     21 C          54.4268   12.0075  -25.6841 C.3     1  UNL1        0.2526
     22 O          52.6703    9.5536  -27.9339 O.3     1  UNL1       -0.4654
     23 C          52.9461    9.6693  -29.3252 C.3     1  UNL1        0.2528
     24 O          49.9088    8.6971  -27.6530 O.3     1  UNL1       -0.4683
     25 C          49.1863    8.6293  -28.8783 C.3     1  UNL1        0.2526
     26 O          47.7095   10.6856  -19.6543 O.3     1  UNL1       -0.4684
     27 C          47.7718   11.4667  -18.4652 C.3     1  UNL1        0.2526
     28 C          48.8882   14.4295  -26.6846 C.3     1  UNL1        0.0514
     29 C          48.4324   16.8830  -27.2285 C.ar    1  UNL1        0.1350
     30 C          48.8588   18.2271  -27.2364 C.ar    1  UNL1        0.0366
     31 C          50.0813   18.5865  -26.6666 C.ar    1  UNL1        0.0031
     32 C          50.8850   17.6185  -26.0680 C.ar    1  UNL1       -0.0001
     33 C          50.4792   16.2840  -26.0561 C.ar    1  UNL1       -0.0010
     34 C          49.2708   15.8960  -26.6650 C.ar    1  UNL1        0.0158
     35 C          45.9414   16.6875  -27.0999 C.3     1  UNL1        0.2525
     36 O          47.1903   16.5032  -27.7600 O.3     1  UNL1       -0.4717
@<TRIPOS>BOND
     1    35    36    1
     2    36    29    1
     3    29    30   ar
     4    30    31   ar
     5    31    32   ar
     6    32    33   ar
     7    33    34   ar
     8    34    28    1
     9    28     1    1
    10     1     2    2
    11     2    14    1
    12    14    15   ar
    13    15    16   ar
    14    16    20    1
    15    20    21    1
    16    16    17   ar
    17    17    22    1
    18    22    23    1
    19    17    18   ar
    20    18    24    1
    21    24    25    1
    22    18    19   ar
    23     2     3    1
    24     3     4   ar
    25     4     5   ar
    26     5     6   ar
    27     6    26    1
    28    26    27    1
    29     6     7   ar
    30     7     8    1
    31     7     9   ar
    32     9    10    1
    33    10    11    1
    34    11    12    1
    35    34    29   ar
    36    12     1    1
    37    19    14   ar
    38     9     3   ar
    39     8    13    1
