@<TRIPOS>MOLECULE
*****
 35 39 0 0 0
SMALL
GASTEIGER

@<TRIPOS>ATOM
      1 C         -23.5539   -7.5276  -13.0844 C.2     1  UNL1        0.2495
      2 O         -23.5463   -6.6962  -14.0325 O.2     1  UNL1       -0.2699
      3 N         -23.0747   -7.1273  -11.7849 N.am    1  UNL1       -0.2760
      4 C         -23.6355   -7.7010  -10.5548 C.3     1  UNL1        0.0954
      5 C         -22.5167   -8.1628   -9.6048 C.3     1  UNL1        0.0399
      6 C         -21.2243   -7.2813   -9.6544 C.3     1  UNL1        0.0645
      7 C         -21.5441   -5.8909  -10.2641 C.3     1  UNL1        0.0399
      8 C         -22.1291   -6.0075  -11.6824 C.3     1  UNL1        0.0954
      9 C         -20.1217   -7.9878  -10.5256 C.3     1  UNL1        0.0477
     10 C         -19.4928   -9.1209   -9.7740 C.ar    1  UNL1        0.0220
     11 C         -18.7686  -10.2038  -10.2145 C.ar    1  UNL1        0.0923
     12 N         -18.2726  -10.8422   -9.1246 N.ar    1  UNL1       -0.2534
     13 N         -18.6292  -10.1878   -8.0223 N.ar    1  UNL1       -0.1651
     14 C         -19.3711   -9.1399   -8.4197 C.ar    1  UNL1        0.1515
     15 C         -19.9544   -8.0896   -7.6006 C.2     1  UNL1        0.2650
     16 O         -19.7645   -8.0459   -6.3564 O.2     1  UNL1       -0.2684
     17 N         -20.7381   -7.0861   -8.2658 N.am    1  UNL1       -0.3023
     18 H         -21.1171   -6.2981   -7.6926 H       1  UNL1        0.1497
     19 C         -22.7634  -13.4151  -14.5451 C.ar    1  UNL1        0.2249
     20 C         -24.0990  -13.8263  -14.4955 C.ar    1  UNL1        0.0577
     21 C         -25.0943  -12.9022  -14.1693 C.ar    1  UNL1        0.0063
     22 C         -24.7478  -11.5728  -13.8952 C.ar    1  UNL1        0.0183
     23 C         -25.7188  -10.6201  -13.5614 C.ar    1  UNL1        0.0074
     24 C         -25.3492   -9.2967  -13.2879 C.ar    1  UNL1        0.0345
     25 I         -26.8916   -7.9581  -12.7089 I       1  UNL1       -0.0424
     26 C         -23.9892   -8.9168  -13.3487 C.ar    1  UNL1        0.0604
     27 C         -23.0206   -9.8775  -13.6858 C.ar    1  UNL1        0.0241
     28 C         -23.3910  -11.1964  -13.9551 C.ar    1  UNL1        0.0846
     29 N         -22.4440  -12.1181  -14.2758 N.ar    1  UNL1       -0.2117
     30 C         -21.2990  -14.5280  -16.2001 C.3     1  UNL1        0.2542
     31 O         -21.7699  -14.3430  -14.8704 O.3     1  UNL1       -0.4561
     32 C         -17.4110  -12.0413   -9.1411 C.3     1  UNL1        0.0867
     33 C         -17.9421  -13.0379  -10.1878 C.3     1  UNL1        0.0244
     34 C         -17.4145  -12.6989   -7.7480 C.3     1  UNL1        0.0244
     35 C         -15.9589  -11.6623   -9.5043 C.3     1  UNL1        0.0244
@<TRIPOS>BOND
     1    30    31    1
     2    31    19    1
     3    19    20   ar
     4    20    21   ar
     5    21    22   ar
     6    22    23   ar
     7    23    24   ar
     8    24    25    1
     9    24    26   ar
    10    26     1    1
    11     1     2    2
    12     1     3   am
    13     3     4    1
    14     4     5    1
    15     5     6    1
    16     6     7    1
    17     7     8    1
    18     6     9    1
    19     9    10    1
    20    10    11   ar
    21    11    12   ar
    22    12    32    1
    23    32    33    1
    24    32    34    1
    25    32    35    1
    26    12    13   ar
    27    13    14   ar
    28    14    15    1
    29    15    16    2
    30    15    17   am
    31    26    27   ar
    32    27    28   ar
    33    28    29   ar
    34    29    19   ar
    35    28    22   ar
    36     8     3    1
    37    14    10   ar
    38    17     6    1
    39    17    18    1
@<TRIPOS>MOLECULE
*****
 35 39 0 0 0
SMALL
GASTEIGER

@<TRIPOS>ATOM
      1 C         -22.9598   -8.0209  -13.8592 C.2     1  UNL1        0.2495
      2 O         -22.8989   -7.1494  -14.7687 O.2     1  UNL1       -0.2699
      3 N         -22.8115   -7.6215  -12.4819 N.am    1  UNL1       -0.2760
      4 C         -23.5035   -8.3362  -11.4014 C.3     1  UNL1        0.0954
      5 C         -22.5323   -8.6740  -10.2568 C.3     1  UNL1        0.0399
      6 C         -21.4099   -7.6073  -10.0278 C.3     1  UNL1        0.0645
      7 C         -21.8198   -6.2507  -10.6595 C.3     1  UNL1        0.0399
      8 C         -22.0920   -6.3795  -12.1682 C.3     1  UNL1        0.0954
      9 C         -20.0619   -8.0942  -10.6756 C.3     1  UNL1        0.0477
     10 C         -19.4209   -9.1578   -9.8377 C.ar    1  UNL1        0.0220
     11 C         -18.4637  -10.0954  -10.1473 C.ar    1  UNL1        0.0923
     12 N         -18.0950  -10.7082   -8.9940 N.ar    1  UNL1       -0.2534
     13 N         -18.7575  -10.1730   -7.9717 N.ar    1  UNL1       -0.1651
     14 C         -19.5633   -9.2289   -8.4872 C.ar    1  UNL1        0.1515
     15 C         -20.4527   -8.3221   -7.7791 C.2     1  UNL1        0.2650
     16 O         -20.5176   -8.3154   -6.5215 O.2     1  UNL1       -0.2684
     17 N         -21.2399   -7.4141   -8.5662 N.am    1  UNL1       -0.3023
     18 H         -21.8423   -6.7228   -8.0638 H       1  UNL1        0.1497
     19 C         -25.5102  -13.5778  -13.6641 C.ar    1  UNL1        0.2249
     20 C         -24.6689  -14.2284  -14.5719 C.ar    1  UNL1        0.0577
     21 C         -23.6308  -13.5198  -15.1813 C.ar    1  UNL1        0.0063
     22 C         -23.4405  -12.1652  -14.8787 C.ar    1  UNL1        0.0183
     23 C         -22.4122  -11.4228  -15.4732 C.ar    1  UNL1        0.0074
     24 C         -22.2422  -10.0683  -15.1582 C.ar    1  UNL1        0.0345
     25 I         -20.7072   -9.0189  -16.1822 I       1  UNL1       -0.0424
     26 C         -23.1114   -9.4439  -14.2349 C.ar    1  UNL1        0.0604
     27 C         -24.1398  -10.1953  -13.6412 C.ar    1  UNL1        0.0241
     28 C         -24.3090  -11.5443  -13.9589 C.ar    1  UNL1        0.0846
     29 N         -25.3108  -12.2599  -13.3810 N.ar    1  UNL1       -0.2117
     30 C         -26.5969  -14.5314  -11.6562 C.3     1  UNL1        0.2542
     31 O         -26.5489  -14.2897  -13.0573 O.3     1  UNL1       -0.4561
     32 C         -17.0690  -11.7621   -8.8633 C.3     1  UNL1        0.0867
     33 C         -17.5713  -13.0511   -9.5393 C.3     1  UNL1        0.0244
     34 C         -16.7918  -12.0307   -7.3720 C.3     1  UNL1        0.0244
     35 C         -15.7514  -11.3247   -9.5391 C.3     1  UNL1        0.0244
@<TRIPOS>BOND
     1    30    31    1
     2    31    19    1
     3    19    20   ar
     4    20    21   ar
     5    21    22   ar
     6    22    23   ar
     7    23    24   ar
     8    24    25    1
     9    24    26   ar
    10    26     1    1
    11     1     2    2
    12     1     3   am
    13     3     4    1
    14     4     5    1
    15     5     6    1
    16     6     7    1
    17     7     8    1
    18     6     9    1
    19     9    10    1
    20    10    11   ar
    21    11    12   ar
    22    12    32    1
    23    32    33    1
    24    32    34    1
    25    32    35    1
    26    12    13   ar
    27    13    14   ar
    28    14    15    1
    29    15    16    2
    30    15    17   am
    31    26    27   ar
    32    27    28   ar
    33    28    29   ar
    34    29    19   ar
    35    28    22   ar
    36     8     3    1
    37    14    10   ar
    38    17     6    1
    39    17    18    1
@<TRIPOS>MOLECULE
*****
 35 39 0 0 0
SMALL
GASTEIGER

@<TRIPOS>ATOM
      1 C         -21.6107   -8.9801   -9.8789 C.2     1  UNL1        0.2495
      2 O         -22.3015   -8.8619   -8.8306 O.2     1  UNL1       -0.2699
      3 N         -21.8570   -8.1008  -10.9946 N.am    1  UNL1       -0.2760
      4 C         -20.7736   -7.6927  -11.8982 C.3     1  UNL1        0.0954
      5 C         -21.1887   -7.8717  -13.3690 C.3     1  UNL1        0.0399
      6 C         -22.7079   -7.6158  -13.6456 C.3     1  UNL1        0.0645
      7 C         -23.3300   -6.7768  -12.4983 C.3     1  UNL1        0.0399
      8 C         -23.1763   -7.4692  -11.1330 C.3     1  UNL1        0.0954
      9 C         -23.4739   -8.9847  -13.7606 C.3     1  UNL1        0.0477
     10 C         -23.1977   -9.6417  -15.0783 C.ar    1  UNL1        0.0220
     11 C         -23.3458  -10.9473  -15.4840 C.ar    1  UNL1        0.0923
     12 N         -23.1258  -10.9933  -16.8222 N.ar    1  UNL1       -0.2534
     13 N         -22.8770   -9.7679  -17.2769 N.ar    1  UNL1       -0.1651
     14 C         -22.9221   -8.9464  -16.2140 C.ar    1  UNL1        0.1515
     15 C         -22.7696   -7.5005  -16.1886 C.2     1  UNL1        0.2650
     16 O         -22.6114   -6.8386  -17.2482 O.2     1  UNL1       -0.2684
     17 N         -22.8299   -6.8485  -14.9100 N.am    1  UNL1       -0.3023
     18 H         -22.7744   -5.8046  -14.8873 H       1  UNL1        0.1497
     19 C         -16.3567  -11.8126   -8.5398 C.ar    1  UNL1        0.2249
     20 C         -16.5074  -12.9357   -9.3591 C.ar    1  UNL1        0.0577
     21 C         -17.6576  -13.0716  -10.1398 C.ar    1  UNL1        0.0063
     22 C         -18.6495  -12.0833  -10.0967 C.ar    1  UNL1        0.0183
     23 C         -19.8171  -12.1882  -10.8633 C.ar    1  UNL1        0.0074
     24 C         -20.7977  -11.1893  -10.8020 C.ar    1  UNL1        0.0345
     25 I         -22.5643  -11.4925  -11.9392 I       1  UNL1       -0.0424
     26 C         -20.6107  -10.0673   -9.9632 C.ar    1  UNL1        0.0604
     27 C         -19.4362   -9.9679   -9.1982 C.ar    1  UNL1        0.0241
     28 C         -18.4618  -10.9660   -9.2586 C.ar    1  UNL1        0.0846
     29 N         -17.3313  -10.8607   -8.5101 N.ar    1  UNL1       -0.2117
     30 C         -14.0462  -12.4812   -7.9597 C.3     1  UNL1        0.2542
     31 O         -15.2050  -11.6808   -7.7587 O.3     1  UNL1       -0.4561
     32 C         -23.2114  -12.1974  -17.6728 C.3     1  UNL1        0.0867
     33 C         -24.3202  -13.1227  -17.1386 C.3     1  UNL1        0.0244
     34 C         -21.8614  -12.9391  -17.6552 C.3     1  UNL1        0.0244
     35 C         -23.5431  -11.8107  -19.1304 C.3     1  UNL1        0.0244
@<TRIPOS>BOND
     1    30    31    1
     2    31    19    1
     3    19    20   ar
     4    20    21   ar
     5    21    22   ar
     6    22    23   ar
     7    23    24   ar
     8    24    25    1
     9    24    26   ar
    10    26     1    1
    11     1     2    2
    12     1     3   am
    13     3     4    1
    14     4     5    1
    15     5     6    1
    16     6     7    1
    17     7     8    1
    18     6     9    1
    19     9    10    1
    20    10    11   ar
    21    11    12   ar
    22    12    32    1
    23    32    33    1
    24    32    34    1
    25    32    35    1
    26    12    13   ar
    27    13    14   ar
    28    14    15    1
    29    15    16    2
    30    15    17   am
    31    26    27   ar
    32    27    28   ar
    33    28    29   ar
    34    29    19   ar
    35    28    22   ar
    36     8     3    1
    37    14    10   ar
    38    17     6    1
    39    17    18    1
@<TRIPOS>MOLECULE
*****
 35 39 0 0 0
SMALL
GASTEIGER

@<TRIPOS>ATOM
      1 C         -20.9183   -7.8035   -9.0833 C.2     1  UNL1        0.2495
      2 O         -21.3936   -7.3098   -8.0247 O.2     1  UNL1       -0.2699
      3 N         -21.3513   -7.2949  -10.3609 N.am    1  UNL1       -0.2760
      4 C         -20.4503   -7.2781  -11.5206 C.3     1  UNL1        0.0954
      5 C         -21.1423   -7.8677  -12.7620 C.3     1  UNL1        0.0399
      6 C         -22.6797   -7.5841  -12.8386 C.3     1  UNL1        0.0645
      7 C         -23.0513   -6.3826  -11.9299 C.3     1  UNL1        0.0399
      8 C         -22.6571   -6.6293  -10.4633 C.3     1  UNL1        0.0954
      9 C         -23.4866   -8.8525  -12.3761 C.3     1  UNL1        0.0477
     10 C         -23.4825   -9.9053  -13.4418 C.ar    1  UNL1        0.0220
     11 C         -23.7370  -11.2552  -13.3773 C.ar    1  UNL1        0.0923
     12 N         -23.7771  -11.7309  -14.6475 N.ar    1  UNL1       -0.2534
     13 N         -23.5899  -10.7313  -15.5055 N.ar    1  UNL1       -0.1651
     14 C         -23.4117   -9.6207  -14.7697 C.ar    1  UNL1        0.1515
     15 C         -23.2221   -8.2559  -15.2341 C.2     1  UNL1        0.2650
     16 O         -23.2527   -7.9696  -16.4601 O.2     1  UNL1       -0.2684
     17 N         -23.0218   -7.2378  -14.2406 N.am    1  UNL1       -0.3023
     18 H         -22.9376   -6.2465  -14.5623 H       1  UNL1        0.1497
     19 C         -18.4412  -13.1222  -10.8145 C.ar    1  UNL1        0.2249
     20 C         -17.4921  -13.2546   -9.7962 C.ar    1  UNL1        0.0577
     21 C         -17.3936  -12.2687   -8.8117 C.ar    1  UNL1        0.0063
     22 C         -18.2450  -11.1569   -8.8514 C.ar    1  UNL1        0.0183
     23 C         -18.1720  -10.1476   -7.8830 C.ar    1  UNL1        0.0074
     24 C         -19.0314   -9.0428   -7.9442 C.ar    1  UNL1        0.0345
     25 I         -18.7756   -7.5318   -6.4753 I       1  UNL1       -0.0424
     26 C         -19.9794   -8.9430   -8.9877 C.ar    1  UNL1        0.0604
     27 C         -20.0480   -9.9601   -9.9549 C.ar    1  UNL1        0.0241
     28 C         -19.1886  -11.0587   -9.8935 C.ar    1  UNL1        0.0846
     29 N         -19.2616  -12.0345  -10.8380 N.ar    1  UNL1       -0.2117
     30 C         -19.5289  -14.0850  -12.8175 C.3     1  UNL1        0.2542
     31 O         -18.5360  -14.1100  -11.7989 O.3     1  UNL1       -0.4561
     32 C         -24.0525  -13.1273  -15.0408 C.3     1  UNL1        0.0867
     33 C         -22.7763  -13.9700  -14.8612 C.3     1  UNL1        0.0244
     34 C         -24.5010  -13.1701  -16.5139 C.3     1  UNL1        0.0244
     35 C         -25.1743  -13.7274  -14.1658 C.3     1  UNL1        0.0244
@<TRIPOS>BOND
     1    30    31    1
     2    31    19    1
     3    19    20   ar
     4    20    21   ar
     5    21    22   ar
     6    22    23   ar
     7    23    24   ar
     8    24    25    1
     9    24    26   ar
    10    26     1    1
    11     1     2    2
    12     1     3   am
    13     3     4    1
    14     4     5    1
    15     5     6    1
    16     6     7    1
    17     7     8    1
    18     6     9    1
    19     9    10    1
    20    10    11   ar
    21    11    12   ar
    22    12    32    1
    23    32    33    1
    24    32    34    1
    25    32    35    1
    26    12    13   ar
    27    13    14   ar
    28    14    15    1
    29    15    16    2
    30    15    17   am
    31    26    27   ar
    32    27    28   ar
    33    28    29   ar
    34    29    19   ar
    35    28    22   ar
    36     8     3    1
    37    14    10   ar
    38    17     6    1
    39    17    18    1
@<TRIPOS>MOLECULE
*****
 35 39 0 0 0
SMALL
GASTEIGER

@<TRIPOS>ATOM
      1 C         -23.4770   -6.2996  -11.7228 C.2     1  UNL1        0.2495
      2 O         -24.2585   -5.3412  -11.4759 O.2     1  UNL1       -0.2699
      3 N         -23.1868   -6.6446  -13.0922 N.am    1  UNL1       -0.2760
      4 C         -21.8842   -7.2019  -13.4791 C.3     1  UNL1        0.0954
      5 C         -22.0612   -8.4509  -14.3599 C.3     1  UNL1        0.0399
      6 C         -23.3122   -8.4050  -15.2996 C.3     1  UNL1        0.0645
      7 C         -23.7918   -6.9412  -15.4859 C.3     1  UNL1        0.0399
      8 C         -24.1457   -6.2784  -14.1433 C.3     1  UNL1        0.0954
      9 C         -24.4812   -9.2589  -14.6847 C.3     1  UNL1        0.0477
     10 C         -24.2227  -10.7237  -14.8629 C.ar    1  UNL1        0.0220
     11 C         -24.7501  -11.8178  -14.2179 C.ar    1  UNL1        0.0923
     12 N         -24.3217  -12.9291  -14.8684 N.ar    1  UNL1       -0.2534
     13 N         -23.5744  -12.5767  -15.9113 N.ar    1  UNL1       -0.1651
     14 C         -23.5160  -11.2339  -15.9068 C.ar    1  UNL1        0.1515
     15 C         -22.8656  -10.3594  -16.8695 C.2     1  UNL1        0.2650
     16 O         -22.2923  -10.8200  -17.8918 O.2     1  UNL1       -0.2684
     17 N         -22.9208   -8.9448  -16.6254 N.am    1  UNL1       -0.3023
     18 H         -22.5021   -8.3059  -17.3393 H       1  UNL1        0.1497
     19 C         -19.5060   -7.6096   -7.2577 C.ar    1  UNL1        0.2249
     20 C         -20.0863   -8.7968   -6.8005 C.ar    1  UNL1        0.0577
     21 C         -21.2482   -9.2766   -7.4094 C.ar    1  UNL1        0.0063
     22 C         -21.8222   -8.5665   -8.4718 C.ar    1  UNL1        0.0183
     23 C         -22.9887   -9.0160   -9.1035 C.ar    1  UNL1        0.0074
     24 C         -23.5474   -8.2880  -10.1622 C.ar    1  UNL1        0.0345
     25 I         -25.3624   -9.0150  -10.9888 I       1  UNL1       -0.0424
     26 C         -22.9326   -7.0924  -10.5984 C.ar    1  UNL1        0.0604
     27 C         -21.7617   -6.6482   -9.9609 C.ar    1  UNL1        0.0241
     28 C         -21.2085   -7.3739   -8.9043 C.ar    1  UNL1        0.0846
     29 N         -20.0774   -6.9315   -8.2924 N.ar    1  UNL1       -0.2117
     30 C         -17.9292   -7.5550   -5.3518 C.3     1  UNL1        0.2542
     31 O         -18.3441   -7.1316   -6.6451 O.3     1  UNL1       -0.4561
     32 C         -24.6747  -14.3219  -14.5276 C.3     1  UNL1        0.0867
     33 C         -25.5828  -14.3294  -13.2842 C.3     1  UNL1        0.0244
     34 C         -23.3916  -15.1241  -14.2395 C.3     1  UNL1        0.0244
     35 C         -25.4249  -14.9943  -15.6978 C.3     1  UNL1        0.0244
@<TRIPOS>BOND
     1    30    31    1
     2    31    19    1
     3    19    20   ar
     4    20    21   ar
     5    21    22   ar
     6    22    23   ar
     7    23    24   ar
     8    24    25    1
     9    24    26   ar
    10    26     1    1
    11     1     2    2
    12     1     3   am
    13     3     4    1
    14     4     5    1
    15     5     6    1
    16     6     7    1
    17     7     8    1
    18     6     9    1
    19     9    10    1
    20    10    11   ar
    21    11    12   ar
    22    12    32    1
    23    32    33    1
    24    32    34    1
    25    32    35    1
    26    12    13   ar
    27    13    14   ar
    28    14    15    1
    29    15    16    2
    30    15    17   am
    31    26    27   ar
    32    27    28   ar
    33    28    29   ar
    34    29    19   ar
    35    28    22   ar
    36     8     3    1
    37    14    10   ar
    38    17     6    1
    39    17    18    1
@<TRIPOS>MOLECULE
*****
 35 39 0 0 0
SMALL
GASTEIGER

@<TRIPOS>ATOM
      1 C         -19.4532  -10.2797   -9.4408 C.2     1  UNL1        0.2495
      2 O         -19.0910  -10.6855   -8.3032 O.2     1  UNL1       -0.2699
      3 N         -19.6737   -8.8712   -9.6554 N.am    1  UNL1       -0.2760
      4 C         -19.4219   -8.2498  -10.9621 C.3     1  UNL1        0.0954
      5 C         -20.6128   -7.3759  -11.3930 C.3     1  UNL1        0.0399
      6 C         -21.3534   -6.6671  -10.2102 C.3     1  UNL1        0.0645
      7 C         -20.4376   -6.6094   -8.9591 C.3     1  UNL1        0.0399
      8 C         -19.9943   -8.0118   -8.5077 C.3     1  UNL1        0.0954
      9 C         -22.6708   -7.4482   -9.8523 C.3     1  UNL1        0.0477
     10 C         -23.7398   -7.1850  -10.8682 C.ar    1  UNL1        0.0220
     11 C         -24.8887   -7.8784  -11.1692 C.ar    1  UNL1        0.0923
     12 N         -25.6064   -7.1315  -12.0458 N.ar    1  UNL1       -0.2534
     13 N         -24.9713   -5.9865  -12.2824 N.ar    1  UNL1       -0.1651
     14 C         -23.8358   -6.0206  -11.5640 C.ar    1  UNL1        0.1515
     15 C         -22.8211   -4.9867  -11.4373 C.2     1  UNL1        0.2650
     16 O         -22.9503   -3.8679  -12.0008 O.2     1  UNL1       -0.2684
     17 N         -21.6733   -5.2783  -10.6243 N.am    1  UNL1       -0.3023
     18 H         -20.9647   -4.5223  -10.4846 H       1  UNL1        0.1497
     19 C         -22.4027  -12.5956  -14.2739 C.ar    1  UNL1        0.2249
     20 C         -21.6523  -13.7638  -14.4395 C.ar    1  UNL1        0.0577
     21 C         -20.5888  -14.0298  -13.5739 C.ar    1  UNL1        0.0063
     22 C         -20.2827  -13.1262  -12.5481 C.ar    1  UNL1        0.0183
     23 C         -19.2214  -13.3588  -11.6641 C.ar    1  UNL1        0.0074
     24 C         -18.9311  -12.4397  -10.6473 C.ar    1  UNL1        0.0345
     25 I         -17.2485  -12.8497   -9.4198 I       1  UNL1       -0.0424
     26 C         -19.7120  -11.2698  -10.5094 C.ar    1  UNL1        0.0604
     27 C         -20.7761  -11.0437  -11.3989 C.ar    1  UNL1        0.0241
     28 C         -21.0617  -11.9596  -12.4132 C.ar    1  UNL1        0.0846
     29 N         -22.0914  -11.7275  -13.2707 N.ar    1  UNL1       -0.2117
     30 C         -24.7935  -12.1083  -14.6846 C.3     1  UNL1        0.2542
     31 O         -23.4653  -12.3319  -15.1429 O.3     1  UNL1       -0.4561
     32 C         -26.9242   -7.4865  -12.6097 C.3     1  UNL1        0.0867
     33 C         -26.7794   -8.7336  -13.5012 C.3     1  UNL1        0.0244
     34 C         -27.4624   -6.3094  -13.4451 C.3     1  UNL1        0.0244
     35 C         -27.9332   -7.7933  -11.4819 C.3     1  UNL1        0.0244
@<TRIPOS>BOND
     1    30    31    1
     2    31    19    1
     3    19    20   ar
     4    20    21   ar
     5    21    22   ar
     6    22    23   ar
     7    23    24   ar
     8    24    25    1
     9    24    26   ar
    10    26     1    1
    11     1     2    2
    12     1     3   am
    13     3     4    1
    14     4     5    1
    15     5     6    1
    16     6     7    1
    17     7     8    1
    18     6     9    1
    19     9    10    1
    20    10    11   ar
    21    11    12   ar
    22    12    32    1
    23    32    33    1
    24    32    34    1
    25    32    35    1
    26    12    13   ar
    27    13    14   ar
    28    14    15    1
    29    15    16    2
    30    15    17   am
    31    26    27   ar
    32    27    28   ar
    33    28    29   ar
    34    29    19   ar
    35    28    22   ar
    36     8     3    1
    37    14    10   ar
    38    17     6    1
    39    17    18    1
@<TRIPOS>MOLECULE
*****
 35 39 0 0 0
SMALL
GASTEIGER

@<TRIPOS>ATOM
      1 C         -22.9123   -7.3178  -11.2546 C.2     1  UNL1        0.2495
      2 O         -23.7593   -6.7760  -10.4934 O.2     1  UNL1       -0.2699
      3 N         -23.1332   -7.3145  -12.6793 N.am    1  UNL1       -0.2760
      4 C         -22.0107   -7.2714  -13.6254 C.3     1  UNL1        0.0954
      5 C         -22.1707   -8.3448  -14.7161 C.3     1  UNL1        0.0399
      6 C         -23.6541   -8.6332  -15.1241 C.3     1  UNL1        0.0645
      7 C         -24.5667   -7.4499  -14.7067 C.3     1  UNL1        0.0399
      8 C         -24.5034   -7.1829  -13.1929 C.3     1  UNL1        0.0954
      9 C         -24.1601   -9.9488  -14.4263 C.3     1  UNL1        0.0477
     10 C         -23.5897  -11.1613  -15.0962 C.ar    1  UNL1        0.0220
     11 C         -23.4607  -12.4580  -14.6567 C.ar    1  UNL1        0.0923
     12 N         -23.0423  -13.2115  -15.7049 N.ar    1  UNL1       -0.2534
     13 N         -22.9339  -12.4482  -16.7893 N.ar    1  UNL1       -0.1651
     14 C         -23.2683  -11.2008  -16.4170 C.ar    1  UNL1        0.1515
     15 C         -23.3603  -10.0097  -17.2460 C.2     1  UNL1        0.2650
     16 O         -23.1592  -10.0576  -18.4883 O.2     1  UNL1       -0.2684
     17 N         -23.7136   -8.7762  -16.6000 N.am    1  UNL1       -0.3023
     18 H         -23.8338   -7.9257  -17.1962 H       1  UNL1        0.1497
     19 C         -19.0881  -12.0089  -10.3659 C.ar    1  UNL1        0.2249
     20 C         -18.2438  -11.4172   -9.4213 C.ar    1  UNL1        0.0577
     21 C         -18.4816  -10.1039   -9.0093 C.ar    1  UNL1        0.0063
     22 C         -19.5623   -9.3909   -9.5442 C.ar    1  UNL1        0.0183
     23 C         -19.8287   -8.0714   -9.1568 C.ar    1  UNL1        0.0074
     24 C         -20.9133   -7.3760   -9.7073 C.ar    1  UNL1        0.0345
     25 I         -21.1724   -5.3546   -9.1134 I       1  UNL1       -0.0424
     26 C         -21.7462   -8.0067  -10.6591 C.ar    1  UNL1        0.0604
     27 C         -21.4739   -9.3311  -11.0419 C.ar    1  UNL1        0.0241
     28 C         -20.3908  -10.0211  -10.4941 C.ar    1  UNL1        0.0846
     29 N         -20.1349  -11.3010  -10.8758 N.ar    1  UNL1       -0.2117
     30 C         -19.3649  -13.8546  -11.9903 C.3     1  UNL1        0.2542
     31 O         -18.8462  -13.3228  -10.7770 O.3     1  UNL1       -0.4561
     32 C         -22.8037  -14.6686  -15.6831 C.3     1  UNL1        0.0867
     33 C         -21.6116  -15.0051  -16.5978 C.3     1  UNL1        0.0244
     34 C         -24.0630  -15.4055  -16.1774 C.3     1  UNL1        0.0244
     35 C         -22.4835  -15.1456  -14.2499 C.3     1  UNL1        0.0244
@<TRIPOS>BOND
     1    30    31    1
     2    31    19    1
     3    19    20   ar
     4    20    21   ar
     5    21    22   ar
     6    22    23   ar
     7    23    24   ar
     8    24    25    1
     9    24    26   ar
    10    26     1    1
    11     1     2    2
    12     1     3   am
    13     3     4    1
    14     4     5    1
    15     5     6    1
    16     6     7    1
    17     7     8    1
    18     6     9    1
    19     9    10    1
    20    10    11   ar
    21    11    12   ar
    22    12    32    1
    23    32    33    1
    24    32    34    1
    25    32    35    1
    26    12    13   ar
    27    13    14   ar
    28    14    15    1
    29    15    16    2
    30    15    17   am
    31    26    27   ar
    32    27    28   ar
    33    28    29   ar
    34    29    19   ar
    35    28    22   ar
    36     8     3    1
    37    14    10   ar
    38    17     6    1
    39    17    18    1
@<TRIPOS>MOLECULE
*****
 35 39 0 0 0
SMALL
GASTEIGER

@<TRIPOS>ATOM
      1 C         -23.6756   -7.4298  -10.3256 C.2     1  UNL1        0.2495
      2 O         -24.6783   -7.1398   -9.6180 O.2     1  UNL1       -0.2699
      3 N         -23.7159   -7.1900  -11.7467 N.am    1  UNL1       -0.2760
      4 C         -22.5018   -6.8432  -12.4968 C.3     1  UNL1        0.0954
      5 C         -22.3725   -7.7087  -13.7624 C.3     1  UNL1        0.0399
      6 C         -23.7383   -8.0877  -14.4264 C.3     1  UNL1        0.0645
      7 C         -24.8530   -7.1159  -13.9570 C.3     1  UNL1        0.0399
      8 C         -25.0165   -7.1267  -12.4272 C.3     1  UNL1        0.0954
      9 C         -24.1371   -9.5591  -14.0394 C.3     1  UNL1        0.0477
     10 C         -23.3231  -10.5528  -14.8103 C.ar    1  UNL1        0.0220
     11 C         -23.0687  -11.8842  -14.5785 C.ar    1  UNL1        0.0923
     12 N         -22.4215  -12.3780  -15.6642 N.ar    1  UNL1       -0.2534
     13 N         -22.2875  -11.4208  -16.5786 N.ar    1  UNL1       -0.1651
     14 C         -22.8377  -10.3108  -16.0574 C.ar    1  UNL1        0.1515
     15 C         -22.9925   -9.0064  -16.6811 C.2     1  UNL1        0.2650
     16 O         -22.6339   -8.8011  -17.8707 O.2     1  UNL1       -0.2684
     17 N         -23.5932   -7.9625  -15.8981 N.am    1  UNL1       -0.3023
     18 H         -23.7568   -7.0367  -16.3556 H       1  UNL1        0.1497
     19 C         -18.6718   -7.6388   -6.8129 C.ar    1  UNL1        0.2249
     20 C         -18.3296   -8.9799   -7.0121 C.ar    1  UNL1        0.0577
     21 C         -19.1210   -9.7786   -7.8409 C.ar    1  UNL1        0.0063
     22 C         -20.2492   -9.2312   -8.4653 C.ar    1  UNL1        0.0183
     23 C         -21.0673  -10.0032   -9.2999 C.ar    1  UNL1        0.0074
     24 C         -22.1928   -9.4358   -9.9116 C.ar    1  UNL1        0.0345
     25 I         -23.4094  -10.7187  -11.0863 I       1  UNL1       -0.0424
     26 C         -22.5073   -8.0761   -9.6880 C.ar    1  UNL1        0.0604
     27 C         -21.6812   -7.3072   -8.8507 C.ar    1  UNL1        0.0241
     28 C         -20.5619   -7.8756   -8.2399 C.ar    1  UNL1        0.0846
     29 N         -19.7725   -7.1224   -7.4281 N.ar    1  UNL1       -0.2117
     30 C         -16.9953   -7.3908   -5.0101 C.3     1  UNL1        0.2542
     31 O         -17.8784   -6.8429   -5.9817 O.3     1  UNL1       -0.4561
     32 C         -21.9850  -13.7764  -15.8502 C.3     1  UNL1        0.0867
     33 C         -23.2060  -14.7097  -15.7559 C.3     1  UNL1        0.0244
     34 C         -20.9614  -14.1471  -14.7604 C.3     1  UNL1        0.0244
     35 C         -21.3221  -13.9596  -17.2327 C.3     1  UNL1        0.0244
@<TRIPOS>BOND
     1    30    31    1
     2    31    19    1
     3    19    20   ar
     4    20    21   ar
     5    21    22   ar
     6    22    23   ar
     7    23    24   ar
     8    24    25    1
     9    24    26   ar
    10    26     1    1
    11     1     2    2
    12     1     3   am
    13     3     4    1
    14     4     5    1
    15     5     6    1
    16     6     7    1
    17     7     8    1
    18     6     9    1
    19     9    10    1
    20    10    11   ar
    21    11    12   ar
    22    12    32    1
    23    32    33    1
    24    32    34    1
    25    32    35    1
    26    12    13   ar
    27    13    14   ar
    28    14    15    1
    29    15    16    2
    30    15    17   am
    31    26    27   ar
    32    27    28   ar
    33    28    29   ar
    34    29    19   ar
    35    28    22   ar
    36     8     3    1
    37    14    10   ar
    38    17     6    1
    39    17    18    1
