@<TRIPOS>MOLECULE
*****
 39 42 0 0 0
SMALL
GASTEIGER

@<TRIPOS>ATOM
      1 C         -25.0037   -9.8836  -10.6767 C.ar    1  UNL1        0.0568
      2 C         -25.0629   -8.6444  -11.3336 C.ar    1  UNL1        0.0420
      3 C         -24.9378   -8.5694  -12.7314 C.ar    1  UNL1        0.1455
      4 C         -24.7791   -9.7454  -13.4706 C.ar    1  UNL1        0.0390
      5 C         -24.7147  -10.9905  -12.8271 C.ar    1  UNL1        0.0205
      6 C         -24.7910  -11.0496  -11.4290 C.ar    1  UNL1        0.0062
      7 C         -24.5405  -12.2350  -13.6031 C.ar    1  UNL1        0.0774
      8 N         -25.6551  -12.9333  -13.9574 N.ar    1  UNL1       -0.2442
      9 C         -25.5921  -14.0917  -14.6635 C.ar    1  UNL1        0.0988
     10 C         -24.3564  -14.6068  -15.0494 C.ar    1  UNL1        0.0204
     11 C         -23.1935  -13.9119  -14.7199 C.ar    1  UNL1       -0.0012
     12 C         -23.2668  -12.7030  -14.0107 C.ar    1  UNL1       -0.0042
     13 C         -21.9955  -11.9566  -13.7022 C.3     1  UNL1        0.0326
     14 N         -24.2450   -9.2926   -8.3116 N.am    1  UNL1       -0.2644
     15 C         -25.1571   -9.9495   -9.2058 C.2     1  UNL1        0.2507
     16 O         -26.1308  -10.5854   -8.7195 O.2     1  UNL1       -0.2698
     17 H         -24.5975   -9.0348   -7.3622 H       1  UNL1        0.1566
     18 N         -20.8111   -8.4777   -8.4375 N.ar    1  UNL1       -0.2188
     19 C         -20.8461   -9.4133   -9.4065 C.ar    1  UNL1        0.1008
     20 C         -22.1351   -9.8952   -9.5039 C.ar    1  UNL1        0.0565
     21 C         -22.8341   -9.1826   -8.5490 C.ar    1  UNL1        0.1558
     22 N         -22.0176   -8.3161   -7.9193 N.ar    1  UNL1       -0.1518
     23 C         -19.6492   -7.6770   -8.0600 C.3     1  UNL1        0.2734
     24 O         -19.7100   -7.3263   -6.6910 O.3     1  UNL1       -0.3284
     25 C         -18.7737   -8.0629   -5.9221 C.3     1  UNL1        0.1764
     26 C         -19.3262   -8.2825   -4.5125 C.3     1  UNL1        0.1743
     27 C         -21.1841   -9.2153   -3.4823 C.3     1  UNL1        0.1742
     28 O         -20.7356   -8.4073   -4.5489 O.3     1  UNL1       -0.3484
     29 O         -25.0201   -7.3494  -13.4191 O.3     1  UNL1       -0.4535
     30 C         -26.2039   -6.7517  -13.8753 C.ar    1  UNL1        0.1454
     31 C         -27.4654   -7.3291  -13.6444 C.ar    1  UNL1        0.0388
     32 C         -28.6242   -6.6970  -14.1046 C.ar    1  UNL1        0.0215
     33 C         -28.5373   -5.4797  -14.7929 C.ar    1  UNL1        0.1059
     34 C         -27.2834   -4.8891  -14.9981 C.ar    1  UNL1        0.0215
     35 C         -26.1246   -5.5213  -14.5376 C.ar    1  UNL1        0.0388
     36 S         -29.9980   -4.6758  -15.3573 S.O2    1  UNL1        0.0105
     37 C         -29.5932   -3.5996  -16.7136 C.3     1  UNL1        0.1816
     38 O         -30.6008   -3.8716  -14.2397 O.2     1  UNL1       -0.1686
     39 O         -31.0008   -5.6999  -15.8097 O.2     1  UNL1       -0.1686
@<TRIPOS>BOND
     1    27    28    1
     2    28    26    1
     3    26    25    1
     4    25    24    1
     5    24    23    1
     6    23    18    1
     7    18    19   ar
     8    19    20   ar
     9    20    21   ar
    10    21    14    1
    11    14    15   am
    12    15    16    2
    13    15     1    1
    14     1     2   ar
    15     2     3   ar
    16     3    29    1
    17    29    30    1
    18    30    31   ar
    19    31    32   ar
    20    32    33   ar
    21    33    36    1
    22    36    37    1
    23    36    38    2
    24    36    39    2
    25    33    34   ar
    26    34    35   ar
    27     3     4   ar
    28     4     5   ar
    29     5     7    1
    30     7     8   ar
    31     8     9   ar
    32     9    10   ar
    33    10    11   ar
    34    11    12   ar
    35    12    13    1
    36     5     6   ar
    37    21    22   ar
    38    22    18   ar
    39     6     1   ar
    40    35    30   ar
    41    12     7   ar
    42    14    17    1
@<TRIPOS>MOLECULE
*****
 39 42 0 0 0
SMALL
GASTEIGER

@<TRIPOS>ATOM
      1 C         -24.8877  -10.0745  -10.6549 C.ar    1  UNL1        0.0568
      2 C         -24.9592   -8.8111  -11.2625 C.ar    1  UNL1        0.0420
      3 C         -24.8857   -8.6849  -12.6604 C.ar    1  UNL1        0.1455
      4 C         -24.7666   -9.8336  -13.4482 C.ar    1  UNL1        0.0390
      5 C         -24.6906  -11.1025  -12.8544 C.ar    1  UNL1        0.0205
      6 C         -24.7151  -11.2134  -11.4575 C.ar    1  UNL1        0.0062
      7 C         -24.5580  -12.3184  -13.6821 C.ar    1  UNL1        0.0774
      8 N         -25.6925  -12.9905  -14.0241 N.ar    1  UNL1       -0.2442
      9 C         -25.6676  -14.1218  -14.7749 C.ar    1  UNL1        0.0988
     10 C         -24.4521  -14.6355  -15.2220 C.ar    1  UNL1        0.0204
     11 C         -23.2703  -13.9665  -14.9064 C.ar    1  UNL1       -0.0012
     12 C         -23.3047  -12.7847  -14.1502 C.ar    1  UNL1       -0.0042
     13 C         -22.0146  -12.0647  -13.8575 C.3     1  UNL1        0.0326
     14 N         -24.3739   -9.2454   -8.2954 N.am    1  UNL1       -0.2644
     15 C         -24.9867  -10.1943   -9.1827 C.2     1  UNL1        0.2507
     16 O         -25.6466  -11.1479   -8.6887 O.2     1  UNL1       -0.2698
     17 H         -24.7849   -9.1385   -7.3406 H       1  UNL1        0.1566
     18 N         -21.6424   -7.0970   -8.9242 N.ar    1  UNL1       -0.2188
     19 C         -21.0169   -8.2836   -9.0515 C.ar    1  UNL1        0.1008
     20 C         -21.9308   -9.2887   -8.8109 C.ar    1  UNL1        0.0565
     21 C         -23.1090   -8.6170   -8.5485 C.ar    1  UNL1        0.1558
     22 N         -22.9194   -7.2863   -8.6346 N.ar    1  UNL1       -0.1518
     23 C         -21.0470   -5.7840   -9.1593 C.3     1  UNL1        0.2734
     24 O         -21.9277   -4.9643   -9.9033 O.3     1  UNL1       -0.3284
     25 C         -21.5539   -4.9033  -11.2697 C.3     1  UNL1        0.1764
     26 C         -22.0023   -6.1806  -11.9824 C.3     1  UNL1        0.1743
     27 C         -21.2884   -8.1755  -12.9280 C.3     1  UNL1        0.1742
     28 O         -20.8785   -6.9312  -12.4031 O.3     1  UNL1       -0.3484
     29 O         -24.9815   -7.4393  -13.2986 O.3     1  UNL1       -0.4535
     30 C         -26.1671   -6.8553  -13.7677 C.ar    1  UNL1        0.1454
     31 C         -27.4182   -7.4760  -13.6015 C.ar    1  UNL1        0.0388
     32 C         -28.5797   -6.8567  -14.0723 C.ar    1  UNL1        0.0215
     33 C         -28.5063   -5.6097  -14.7068 C.ar    1  UNL1        0.1059
     34 C         -27.2639   -4.9772  -14.8470 C.ar    1  UNL1        0.0215
     35 C         -26.1024   -5.5965  -14.3759 C.ar    1  UNL1        0.0388
     36 S         -29.9710   -4.8227  -15.2843 S.O2    1  UNL1        0.0105
     37 C         -29.5646   -3.7320  -16.6284 C.3     1  UNL1        0.1816
     38 O         -30.5991   -4.0345  -14.1691 O.2     1  UNL1       -0.1686
     39 O         -30.9535   -5.8579  -15.7558 O.2     1  UNL1       -0.1686
@<TRIPOS>BOND
     1    27    28    1
     2    28    26    1
     3    26    25    1
     4    25    24    1
     5    24    23    1
     6    23    18    1
     7    18    19   ar
     8    19    20   ar
     9    20    21   ar
    10    21    14    1
    11    14    15   am
    12    15    16    2
    13    15     1    1
    14     1     2   ar
    15     2     3   ar
    16     3    29    1
    17    29    30    1
    18    30    31   ar
    19    31    32   ar
    20    32    33   ar
    21    33    36    1
    22    36    37    1
    23    36    38    2
    24    36    39    2
    25    33    34   ar
    26    34    35   ar
    27     3     4   ar
    28     4     5   ar
    29     5     7    1
    30     7     8   ar
    31     8     9   ar
    32     9    10   ar
    33    10    11   ar
    34    11    12   ar
    35    12    13    1
    36     5     6   ar
    37    21    22   ar
    38    22    18   ar
    39     6     1   ar
    40    35    30   ar
    41    12     7   ar
    42    14    17    1
@<TRIPOS>MOLECULE
*****
 39 42 0 0 0
SMALL
GASTEIGER

@<TRIPOS>ATOM
      1 C         -22.8380   -8.6138  -14.4225 C.ar    1  UNL1        0.0568
      2 C         -23.8311   -7.7828  -13.8806 C.ar    1  UNL1        0.0420
      3 C         -25.1043   -8.2946  -13.5769 C.ar    1  UNL1        0.1455
      4 C         -25.3694   -9.6499  -13.7947 C.ar    1  UNL1        0.0390
      5 C         -24.3875  -10.4914  -14.3391 C.ar    1  UNL1        0.0205
      6 C         -23.1374   -9.9603  -14.6842 C.ar    1  UNL1        0.0062
      7 C         -24.6649  -11.9223  -14.5772 C.ar    1  UNL1        0.0774
      8 N         -25.2648  -12.6352  -13.5834 N.ar    1  UNL1       -0.2442
      9 C         -25.5510  -13.9568  -13.7092 C.ar    1  UNL1        0.0988
     10 C         -25.2281  -14.6315  -14.8846 C.ar    1  UNL1        0.0204
     11 C         -24.6282  -13.9321  -15.9311 C.ar    1  UNL1       -0.0012
     12 C         -24.3568  -12.5611  -15.8038 C.ar    1  UNL1       -0.0042
     13 C         -23.7425  -11.8252  -16.9655 C.3     1  UNL1        0.0326
     14 N         -20.5201   -7.8332  -13.6900 N.am    1  UNL1       -0.2644
     15 C         -21.4951   -8.0658  -14.7188 C.2     1  UNL1        0.2507
     16 O         -21.1869   -7.8130  -15.9146 O.2     1  UNL1       -0.2698
     17 H         -19.5125   -7.8362  -13.9670 H       1  UNL1        0.1566
     18 N         -21.0758   -7.3266  -10.2394 N.ar    1  UNL1       -0.2188
     19 C         -21.6625   -6.2120  -10.7180 C.ar    1  UNL1        0.1008
     20 C         -21.5293   -6.2017  -12.0911 C.ar    1  UNL1        0.0565
     21 C         -20.8455   -7.3688  -12.3719 C.ar    1  UNL1        0.1558
     22 N         -20.5895   -8.0470  -11.2368 N.ar    1  UNL1       -0.1518
     23 C         -21.0497   -7.7494   -8.8415 C.3     1  UNL1        0.2734
     24 O         -22.3536   -7.7358   -8.2932 O.3     1  UNL1       -0.3284
     25 C         -22.9797   -9.0030   -8.4056 C.3     1  UNL1        0.1764
     26 C         -24.1615   -8.9081   -9.3723 C.3     1  UNL1        0.1743
     27 C         -23.1314  -10.3833  -10.8373 C.3     1  UNL1        0.1742
     28 O         -23.7270   -9.1108  -10.7041 O.3     1  UNL1       -0.3484
     29 O         -26.1086   -7.4962  -13.0093 O.3     1  UNL1       -0.4535
     30 C         -26.9518   -6.6262  -13.7155 C.ar    1  UNL1        0.1454
     31 C         -26.4823   -5.4208  -14.2677 C.ar    1  UNL1        0.0388
     32 C         -27.3509   -4.5851  -14.9757 C.ar    1  UNL1        0.0215
     33 C         -28.6939   -4.9462  -15.1465 C.ar    1  UNL1        0.1059
     34 C         -29.1556   -6.1606  -14.6218 C.ar    1  UNL1        0.0215
     35 C         -28.2868   -6.9964  -13.9139 C.ar    1  UNL1        0.0388
     36 S         -29.7830   -3.9016  -16.0526 S.O2    1  UNL1        0.0105
     37 C         -31.2042   -3.5220  -15.0537 C.3     1  UNL1        0.1816
     38 O         -30.2235   -4.5949  -17.3114 O.2     1  UNL1       -0.1686
     39 O         -29.0756   -2.6289  -16.4253 O.2     1  UNL1       -0.1686
@<TRIPOS>BOND
     1    27    28    1
     2    28    26    1
     3    26    25    1
     4    25    24    1
     5    24    23    1
     6    23    18    1
     7    18    19   ar
     8    19    20   ar
     9    20    21   ar
    10    21    14    1
    11    14    15   am
    12    15    16    2
    13    15     1    1
    14     1     2   ar
    15     2     3   ar
    16     3    29    1
    17    29    30    1
    18    30    31   ar
    19    31    32   ar
    20    32    33   ar
    21    33    36    1
    22    36    37    1
    23    36    38    2
    24    36    39    2
    25    33    34   ar
    26    34    35   ar
    27     3     4   ar
    28     4     5   ar
    29     5     7    1
    30     7     8   ar
    31     8     9   ar
    32     9    10   ar
    33    10    11   ar
    34    11    12   ar
    35    12    13    1
    36     5     6   ar
    37    21    22   ar
    38    22    18   ar
    39     6     1   ar
    40    35    30   ar
    41    12     7   ar
    42    14    17    1
@<TRIPOS>MOLECULE
*****
 39 42 0 0 0
SMALL
GASTEIGER

@<TRIPOS>ATOM
      1 C         -22.8554   -8.6001  -14.3423 C.ar    1  UNL1        0.0568
      2 C         -23.8583   -7.7639  -13.8272 C.ar    1  UNL1        0.0420
      3 C         -25.1386   -8.2718  -13.5473 C.ar    1  UNL1        0.1455
      4 C         -25.4012   -9.6281  -13.7616 C.ar    1  UNL1        0.0390
      5 C         -24.4094  -10.4747  -14.2794 C.ar    1  UNL1        0.0205
      6 C         -23.1513   -9.9478  -14.6014 C.ar    1  UNL1        0.0062
      7 C         -24.6840  -11.9068  -14.5138 C.ar    1  UNL1        0.0774
      8 N         -25.2733  -12.6206  -13.5144 N.ar    1  UNL1       -0.2442
      9 C         -25.5561  -13.9433  -13.6365 C.ar    1  UNL1        0.0988
     10 C         -25.2407  -14.6181  -14.8138 C.ar    1  UNL1        0.0204
     11 C         -24.6518  -13.9178  -15.8659 C.ar    1  UNL1       -0.0012
     12 C         -24.3839  -12.5457  -15.7422 C.ar    1  UNL1       -0.0042
     13 C         -23.7817  -11.8090  -16.9097 C.3     1  UNL1        0.0326
     14 N         -20.5666   -7.7805  -13.5621 N.am    1  UNL1       -0.2644
     15 C         -21.5055   -8.0561  -14.6136 C.2     1  UNL1        0.2507
     16 O         -21.1584   -7.8457  -15.8070 O.2     1  UNL1       -0.2698
     17 H         -19.5503   -7.7883  -13.8050 H       1  UNL1        0.1566
     18 N         -21.4329   -7.2046  -10.1873 N.ar    1  UNL1       -0.2188
     19 C         -21.6518   -5.9696  -10.6797 C.ar    1  UNL1        0.1008
     20 C         -21.3382   -5.9715  -12.0231 C.ar    1  UNL1        0.0565
     21 C         -20.9380   -7.2697  -12.2736 C.ar    1  UNL1        0.1558
     22 N         -21.0142   -8.0091  -11.1504 N.ar    1  UNL1       -0.1518
     23 C         -21.7006   -7.6425   -8.8197 C.3     1  UNL1        0.2734
     24 O         -20.6631   -7.2276   -7.9523 O.3     1  UNL1       -0.3284
     25 C         -19.5707   -8.1313   -7.9765 C.3     1  UNL1        0.1764
     26 C         -19.2315   -8.5655   -6.5493 C.3     1  UNL1        0.1743
     27 C         -18.7730   -7.4474   -4.5686 C.3     1  UNL1        0.1742
     28 O         -19.7029   -7.6098   -5.6177 O.3     1  UNL1       -0.3484
     29 O         -26.1534   -7.4681  -13.0065 O.3     1  UNL1       -0.4535
     30 C         -26.9770   -6.5983  -13.7357 C.ar    1  UNL1        0.1454
     31 C         -26.4766   -5.4293  -14.3367 C.ar    1  UNL1        0.0388
     32 C         -27.3267   -4.5931  -15.0662 C.ar    1  UNL1        0.0215
     33 C         -28.6821   -4.9177  -15.2098 C.ar    1  UNL1        0.1059
     34 C         -29.1754   -6.0969  -14.6359 C.ar    1  UNL1        0.0215
     35 C         -28.3251   -6.9332  -13.9066 C.ar    1  UNL1        0.0388
     36 S         -29.7484   -3.8731  -16.1426 S.O2    1  UNL1        0.0105
     37 C         -31.1994   -3.5031  -15.1839 C.3     1  UNL1        0.1816
     38 O         -30.1495   -4.5623  -17.4167 O.2     1  UNL1       -0.1686
     39 O         -29.0354   -2.5961  -16.4891 O.2     1  UNL1       -0.1686
@<TRIPOS>BOND
     1    27    28    1
     2    28    26    1
     3    26    25    1
     4    25    24    1
     5    24    23    1
     6    23    18    1
     7    18    19   ar
     8    19    20   ar
     9    20    21   ar
    10    21    14    1
    11    14    15   am
    12    15    16    2
    13    15     1    1
    14     1     2   ar
    15     2     3   ar
    16     3    29    1
    17    29    30    1
    18    30    31   ar
    19    31    32   ar
    20    32    33   ar
    21    33    36    1
    22    36    37    1
    23    36    38    2
    24    36    39    2
    25    33    34   ar
    26    34    35   ar
    27     3     4   ar
    28     4     5   ar
    29     5     7    1
    30     7     8   ar
    31     8     9   ar
    32     9    10   ar
    33    10    11   ar
    34    11    12   ar
    35    12    13    1
    36     5     6   ar
    37    21    22   ar
    38    22    18   ar
    39     6     1   ar
    40    35    30   ar
    41    12     7   ar
    42    14    17    1
@<TRIPOS>MOLECULE
*****
 39 42 0 0 0
SMALL
GASTEIGER

@<TRIPOS>ATOM
      1 C         -22.3869  -10.6784  -16.2732 C.ar    1  UNL1        0.0568
      2 C         -21.6600   -9.8276  -15.4258 C.ar    1  UNL1        0.0420
      3 C         -21.6632   -8.4376  -15.6341 C.ar    1  UNL1        0.1455
      4 C         -22.4200   -7.9020  -16.6805 C.ar    1  UNL1        0.0390
      5 C         -23.1486   -8.7406  -17.5374 C.ar    1  UNL1        0.0205
      6 C         -23.0990  -10.1287  -17.3511 C.ar    1  UNL1        0.0062
      7 C         -23.9442   -8.1800  -18.6482 C.ar    1  UNL1        0.0774
      8 N         -24.1481   -8.9561  -19.7490 N.ar    1  UNL1       -0.2442
      9 C         -24.8593   -8.5222  -20.8215 C.ar    1  UNL1        0.0988
     10 C         -25.4084   -7.2417  -20.8224 C.ar    1  UNL1        0.0204
     11 C         -25.2354   -6.4234  -19.7068 C.ar    1  UNL1       -0.0012
     12 C         -24.5196   -6.8864  -18.5920 C.ar    1  UNL1       -0.0042
     13 C         -24.3819   -5.9930  -17.3873 C.3     1  UNL1        0.0326
     14 N         -22.8780  -12.7084  -14.8047 N.am    1  UNL1       -0.2644
     15 C         -22.3906  -12.1386  -16.0298 C.2     1  UNL1        0.2507
     16 O         -21.9716  -12.9112  -16.9334 O.2     1  UNL1       -0.2698
     17 H         -23.2246  -13.6939  -14.8323 H       1  UNL1        0.1566
     18 N         -23.1037  -10.9664  -11.7410 N.ar    1  UNL1       -0.2188
     19 C         -21.8116  -11.3436  -11.6797 C.ar    1  UNL1        0.1008
     20 C         -21.5170  -12.0831  -12.8064 C.ar    1  UNL1        0.0565
     21 C         -22.7019  -12.1017  -13.5163 C.ar    1  UNL1        0.1558
     22 N         -23.6521  -11.4073  -12.8614 N.ar    1  UNL1       -0.1518
     23 C         -23.7958  -10.1165  -10.7755 C.3     1  UNL1        0.2734
     24 O         -25.1189   -9.8545  -11.2018 O.3     1  UNL1       -0.3284
     25 C         -25.2648   -8.5201  -11.6587 C.3     1  UNL1        0.1764
     26 C         -25.6591   -8.5235  -13.1368 C.3     1  UNL1        0.1743
     27 C         -26.0106   -6.3264  -13.7943 C.3     1  UNL1        0.1742
     28 O         -25.1000   -7.4045  -13.7991 O.3     1  UNL1       -0.3484
     29 O         -20.9693   -7.5593  -14.7885 O.3     1  UNL1       -0.4535
     30 C         -21.0640   -7.5329  -13.3895 C.ar    1  UNL1        0.1454
     31 C         -20.1801   -8.2583  -12.5706 C.ar    1  UNL1        0.0388
     32 C         -20.2986   -8.1972  -11.1790 C.ar    1  UNL1        0.0215
     33 C         -21.2945   -7.4069  -10.5903 C.ar    1  UNL1        0.1059
     34 C         -22.1570   -6.6611  -11.4046 C.ar    1  UNL1        0.0215
     35 C         -22.0382   -6.7221  -12.7962 C.ar    1  UNL1        0.0388
     36 S         -21.4325   -7.3171   -8.8378 S.O2    1  UNL1        0.0105
     37 C         -20.1562   -8.3064   -8.0936 C.3     1  UNL1        0.1816
     38 O         -22.7794   -7.8261   -8.4063 O.2     1  UNL1       -0.1686
     39 O         -21.2895   -5.8901   -8.3879 O.2     1  UNL1       -0.1686
@<TRIPOS>BOND
     1    27    28    1
     2    28    26    1
     3    26    25    1
     4    25    24    1
     5    24    23    1
     6    23    18    1
     7    18    19   ar
     8    19    20   ar
     9    20    21   ar
    10    21    14    1
    11    14    15   am
    12    15    16    2
    13    15     1    1
    14     1     2   ar
    15     2     3   ar
    16     3    29    1
    17    29    30    1
    18    30    31   ar
    19    31    32   ar
    20    32    33   ar
    21    33    36    1
    22    36    37    1
    23    36    38    2
    24    36    39    2
    25    33    34   ar
    26    34    35   ar
    27     3     4   ar
    28     4     5   ar
    29     5     7    1
    30     7     8   ar
    31     8     9   ar
    32     9    10   ar
    33    10    11   ar
    34    11    12   ar
    35    12    13    1
    36     5     6   ar
    37    21    22   ar
    38    22    18   ar
    39     6     1   ar
    40    35    30   ar
    41    12     7   ar
    42    14    17    1
@<TRIPOS>MOLECULE
*****
 39 42 0 0 0
SMALL
GASTEIGER

@<TRIPOS>ATOM
      1 C         -22.7696   -8.3519  -14.8381 C.ar    1  UNL1        0.0568
      2 C         -23.9887   -7.8861  -14.3212 C.ar    1  UNL1        0.0420
      3 C         -24.2438   -7.9320  -12.9399 C.ar    1  UNL1        0.1455
      4 C         -23.2604   -8.4230  -12.0760 C.ar    1  UNL1        0.0390
      5 C         -22.0387   -8.8951  -12.5790 C.ar    1  UNL1        0.0205
      6 C         -21.8138   -8.8906  -13.9622 C.ar    1  UNL1        0.0062
      7 C         -20.9993   -9.4209  -11.6710 C.ar    1  UNL1        0.0774
      8 N         -20.2887   -8.5313  -10.9231 N.ar    1  UNL1       -0.2442
      9 C         -19.3089   -8.9217  -10.0676 C.ar    1  UNL1        0.0988
     10 C         -18.9982  -10.2731   -9.9331 C.ar    1  UNL1        0.0204
     11 C         -19.7148  -11.2155  -10.6695 C.ar    1  UNL1       -0.0012
     12 C         -20.7423  -10.8076  -11.5340 C.ar    1  UNL1       -0.0042
     13 C         -21.5233  -11.8519  -12.2875 C.3     1  UNL1        0.0326
     14 N         -22.8786   -9.3361  -17.1914 N.am    1  UNL1       -0.2644
     15 C         -22.5066   -8.2789  -16.2932 C.2     1  UNL1        0.2507
     16 O         -21.9566   -7.2476  -16.7651 O.2     1  UNL1       -0.2698
     17 H         -23.0400   -9.0870  -18.1934 H       1  UNL1        0.1566
     18 N         -23.4135  -12.7591  -16.5068 N.ar    1  UNL1       -0.2188
     19 C         -22.1299  -12.6580  -16.1096 C.ar    1  UNL1        0.1008
     20 C         -21.7055  -11.3631  -16.3245 C.ar    1  UNL1        0.0565
     21 C         -22.8122  -10.7296  -16.8556 C.ar    1  UNL1        0.1558
     22 N         -23.8454  -11.5888  -16.9473 N.ar    1  UNL1       -0.1518
     23 C         -24.2562  -13.9466  -16.3908 C.3     1  UNL1        0.2734
     24 O         -24.3055  -14.3926  -15.0493 O.3     1  UNL1       -0.3284
     25 C         -25.5210  -14.0209  -14.4208 C.3     1  UNL1        0.1764
     26 C         -25.2209  -13.1748  -13.1821 C.3     1  UNL1        0.1743
     27 C         -25.5534  -11.0896  -14.1438 C.3     1  UNL1        0.1742
     28 O         -24.6070  -11.9550  -13.5547 O.3     1  UNL1       -0.3484
     29 O         -25.4408   -7.4490  -12.3902 O.3     1  UNL1       -0.4535
     30 C         -26.4428   -6.7676  -13.0961 C.ar    1  UNL1        0.1454
     31 C         -26.2836   -5.4333  -13.5114 C.ar    1  UNL1        0.0388
     32 C         -27.3007   -4.7913  -14.2239 C.ar    1  UNL1        0.0215
     33 C         -28.4831   -5.4754  -14.5357 C.ar    1  UNL1        0.1059
     34 C         -28.6307   -6.8136  -14.1478 C.ar    1  UNL1        0.0215
     35 C         -27.6134   -7.4555  -13.4354 C.ar    1  UNL1        0.0388
     36 S         -29.7563   -4.6718  -15.4475 S.O2    1  UNL1        0.0105
     37 C         -29.0276   -3.6789  -16.7299 C.3     1  UNL1        0.1816
     38 O         -30.5640   -3.7961  -14.5310 O.2     1  UNL1       -0.1686
     39 O         -30.6677   -5.6971  -16.0619 O.2     1  UNL1       -0.1686
@<TRIPOS>BOND
     1    27    28    1
     2    28    26    1
     3    26    25    1
     4    25    24    1
     5    24    23    1
     6    23    18    1
     7    18    19   ar
     8    19    20   ar
     9    20    21   ar
    10    21    14    1
    11    14    15   am
    12    15    16    2
    13    15     1    1
    14     1     2   ar
    15     2     3   ar
    16     3    29    1
    17    29    30    1
    18    30    31   ar
    19    31    32   ar
    20    32    33   ar
    21    33    36    1
    22    36    37    1
    23    36    38    2
    24    36    39    2
    25    33    34   ar
    26    34    35   ar
    27     3     4   ar
    28     4     5   ar
    29     5     7    1
    30     7     8   ar
    31     8     9   ar
    32     9    10   ar
    33    10    11   ar
    34    11    12   ar
    35    12    13    1
    36     5     6   ar
    37    21    22   ar
    38    22    18   ar
    39     6     1   ar
    40    35    30   ar
    41    12     7   ar
    42    14    17    1
@<TRIPOS>MOLECULE
*****
 39 42 0 0 0
SMALL
GASTEIGER

@<TRIPOS>ATOM
      1 C         -25.1413   -9.6852  -10.4097 C.ar    1  UNL1        0.0568
      2 C         -26.1615   -8.7782  -10.7368 C.ar    1  UNL1        0.0420
      3 C         -26.3922   -8.4136  -12.0744 C.ar    1  UNL1        0.1455
      4 C         -25.6121   -8.9826  -13.0855 C.ar    1  UNL1        0.0390
      5 C         -24.5867   -9.8878  -12.7728 C.ar    1  UNL1        0.0205
      6 C         -24.3328  -10.2068  -11.4320 C.ar    1  UNL1        0.0062
      7 C         -23.7557  -10.4865  -13.8368 C.ar    1  UNL1        0.0774
      8 N         -24.1286  -11.6961  -14.3402 N.ar    1  UNL1       -0.2442
      9 C         -23.4219  -12.3264  -15.3136 C.ar    1  UNL1        0.0988
     10 C         -22.2700  -11.7380  -15.8312 C.ar    1  UNL1        0.0204
     11 C         -21.8652  -10.4923  -15.3533 C.ar    1  UNL1       -0.0012
     12 C         -22.6132   -9.8352  -14.3642 C.ar    1  UNL1       -0.0042
     13 C         -22.1713   -8.4739  -13.8951 C.3     1  UNL1        0.0326
     14 N         -24.1321   -9.2823   -8.0993 N.am    1  UNL1       -0.2644
     15 C         -24.9227  -10.0755   -8.9985 C.2     1  UNL1        0.2507
     16 O         -25.4637  -11.1277   -8.5633 O.2     1  UNL1       -0.2698
     17 H         -24.3287   -9.3673   -7.0765 H       1  UNL1        0.1566
     18 N         -20.9297   -7.8474   -8.4967 N.ar    1  UNL1       -0.2188
     19 C         -21.5896   -7.1710   -9.4573 C.ar    1  UNL1        0.1008
     20 C         -22.8955   -7.6147   -9.4873 C.ar    1  UNL1        0.0565
     21 C         -22.9494   -8.5707   -8.4916 C.ar    1  UNL1        0.1558
     22 N         -21.7499   -8.6902   -7.8907 N.ar    1  UNL1       -0.1518
     23 C         -19.5408   -7.6344   -8.0979 C.3     1  UNL1        0.2734
     24 O         -19.4682   -7.2301   -6.7442 O.3     1  UNL1       -0.3284
     25 C         -18.9309   -8.2533   -5.9227 C.3     1  UNL1        0.1764
     26 C         -17.9162   -7.6506   -4.9493 C.3     1  UNL1        0.1743
     27 C         -15.8413   -8.4174   -4.2488 C.3     1  UNL1        0.1742
     28 O         -16.5970   -7.9678   -5.3527 O.3     1  UNL1       -0.3484
     29 O         -27.4212   -7.5312  -12.4358 O.3     1  UNL1       -0.4535
     30 C         -27.3533   -6.5809  -13.4649 C.ar    1  UNL1        0.1454
     31 C         -26.1516   -5.9307  -13.7985 C.ar    1  UNL1        0.0388
     32 C         -26.1210   -4.9978  -14.8391 C.ar    1  UNL1        0.0215
     33 C         -27.2862   -4.7093  -15.5619 C.ar    1  UNL1        0.1059
     34 C         -28.4772   -5.3778  -15.2493 C.ar    1  UNL1        0.0215
     35 C         -28.5076   -6.3110  -14.2088 C.ar    1  UNL1        0.0388
     36 S         -27.2432   -3.5469  -16.8830 S.O2    1  UNL1        0.0105
     37 C         -28.8939   -2.9819  -17.2262 C.3     1  UNL1        0.1816
     38 O         -26.6672   -4.1936  -18.1116 O.2     1  UNL1       -0.1686
     39 O         -26.3796   -2.3766  -16.5041 O.2     1  UNL1       -0.1686
@<TRIPOS>BOND
     1    27    28    1
     2    28    26    1
     3    26    25    1
     4    25    24    1
     5    24    23    1
     6    23    18    1
     7    18    19   ar
     8    19    20   ar
     9    20    21   ar
    10    21    14    1
    11    14    15   am
    12    15    16    2
    13    15     1    1
    14     1     2   ar
    15     2     3   ar
    16     3    29    1
    17    29    30    1
    18    30    31   ar
    19    31    32   ar
    20    32    33   ar
    21    33    36    1
    22    36    37    1
    23    36    38    2
    24    36    39    2
    25    33    34   ar
    26    34    35   ar
    27     3     4   ar
    28     4     5   ar
    29     5     7    1
    30     7     8   ar
    31     8     9   ar
    32     9    10   ar
    33    10    11   ar
    34    11    12   ar
    35    12    13    1
    36     5     6   ar
    37    21    22   ar
    38    22    18   ar
    39     6     1   ar
    40    35    30   ar
    41    12     7   ar
    42    14    17    1
@<TRIPOS>MOLECULE
*****
 39 42 0 0 0
SMALL
GASTEIGER

@<TRIPOS>ATOM
      1 C         -22.6959   -7.9963  -14.9361 C.ar    1  UNL1        0.0568
      2 C         -21.4545   -8.1538  -14.3001 C.ar    1  UNL1        0.0420
      3 C         -21.3728   -8.2237  -12.8988 C.ar    1  UNL1        0.1455
      4 C         -22.5446   -8.1613  -12.1387 C.ar    1  UNL1        0.0390
      5 C         -23.7919   -8.0005  -12.7608 C.ar    1  UNL1        0.0205
      6 C         -23.8574   -7.8823  -14.1557 C.ar    1  UNL1        0.0062
      7 C         -25.0318   -7.9274  -11.9618 C.ar    1  UNL1        0.0774
      8 N         -25.2239   -8.8580  -10.9858 N.ar    1  UNL1       -0.2442
      9 C         -26.3364   -8.8744  -10.2072 C.ar    1  UNL1        0.0988
     10 C         -27.3326   -7.9185  -10.3941 C.ar    1  UNL1        0.0204
     11 C         -27.1648   -6.9392  -11.3723 C.ar    1  UNL1       -0.0012
     12 C         -26.0019   -6.9134  -12.1576 C.ar    1  UNL1       -0.0042
     13 C         -25.8329   -5.8208  -13.1804 C.3     1  UNL1        0.0326
     14 N         -23.3008   -9.0285  -17.1917 N.am    1  UNL1       -0.2644
     15 C         -22.7690   -7.9444  -16.4138 C.2     1  UNL1        0.2507
     16 O         -22.3710   -6.9079  -17.0106 O.2     1  UNL1       -0.2698
     17 H         -23.6908   -8.8033  -18.1346 H       1  UNL1        0.1566
     18 N         -23.5508  -12.4223  -16.2474 N.ar    1  UNL1       -0.2188
     19 C         -22.2119  -12.3301  -16.3675 C.ar    1  UNL1        0.1008
     20 C         -21.8950  -11.0485  -16.7677 C.ar    1  UNL1        0.0565
     21 C         -23.1179  -10.4129  -16.8616 C.ar    1  UNL1        0.1558
     22 N         -24.1125  -11.2581  -16.5292 N.ar    1  UNL1       -0.1518
     23 C         -24.2919  -13.5927  -15.7843 C.3     1  UNL1        0.2734
     24 O         -24.2590  -13.6760  -14.3726 O.3     1  UNL1       -0.3284
     25 C         -25.0669  -12.6771  -13.7725 C.3     1  UNL1        0.1764
     26 C         -24.2543  -11.9247  -12.7171 C.3     1  UNL1        0.1743
     27 C         -21.9391  -11.8058  -12.6206 C.3     1  UNL1        0.1742
     28 O         -23.0939  -11.3597  -13.2983 O.3     1  UNL1       -0.3484
     29 O         -20.1506   -8.4081  -12.2353 O.3     1  UNL1       -0.4535
     30 C         -19.9764   -8.4328  -10.8440 C.ar    1  UNL1        0.1454
     31 C         -19.2893   -9.4769  -10.1990 C.ar    1  UNL1        0.0388
     32 C         -19.1255   -9.4603   -8.8108 C.ar    1  UNL1        0.0215
     33 C         -19.6387   -8.3993   -8.0530 C.ar    1  UNL1        0.1059
     34 C         -20.2980   -7.3444   -8.6977 C.ar    1  UNL1        0.0215
     35 C         -20.4615   -7.3610  -10.0860 C.ar    1  UNL1        0.0388
     36 S         -19.4174   -8.3706   -6.3070 S.O2    1  UNL1        0.0105
     37 C         -18.2314   -9.6109   -5.8416 C.3     1  UNL1        0.1816
     38 O         -20.7274   -8.6454   -5.6231 O.2     1  UNL1       -0.1686
     39 O         -18.9242   -7.0170   -5.8782 O.2     1  UNL1       -0.1686
@<TRIPOS>BOND
     1    27    28    1
     2    28    26    1
     3    26    25    1
     4    25    24    1
     5    24    23    1
     6    23    18    1
     7    18    19   ar
     8    19    20   ar
     9    20    21   ar
    10    21    14    1
    11    14    15   am
    12    15    16    2
    13    15     1    1
    14     1     2   ar
    15     2     3   ar
    16     3    29    1
    17    29    30    1
    18    30    31   ar
    19    31    32   ar
    20    32    33   ar
    21    33    36    1
    22    36    37    1
    23    36    38    2
    24    36    39    2
    25    33    34   ar
    26    34    35   ar
    27     3     4   ar
    28     4     5   ar
    29     5     7    1
    30     7     8   ar
    31     8     9   ar
    32     9    10   ar
    33    10    11   ar
    34    11    12   ar
    35    12    13    1
    36     5     6   ar
    37    21    22   ar
    38    22    18   ar
    39     6     1   ar
    40    35    30   ar
    41    12     7   ar
    42    14    17    1
@<TRIPOS>MOLECULE
*****
 39 42 0 0 0
SMALL
GASTEIGER

@<TRIPOS>ATOM
      1 C         -24.8526   -9.8731  -10.5827 C.ar    1  UNL1        0.0568
      2 C         -24.9310   -8.6285  -11.2273 C.ar    1  UNL1        0.0420
      3 C         -24.8723   -8.5443  -12.6290 C.ar    1  UNL1        0.1455
      4 C         -24.7608   -9.7162  -13.3832 C.ar    1  UNL1        0.0390
      5 C         -24.6779  -10.9666  -12.7523 C.ar    1  UNL1        0.0205
      6 C         -24.6877  -11.0355  -11.3526 C.ar    1  UNL1        0.0062
      7 C         -24.5533  -12.2068  -13.5444 C.ar    1  UNL1        0.0774
      8 N         -25.6891  -12.8993  -13.8378 N.ar    1  UNL1       -0.2442
      9 C         -25.6712  -14.0536  -14.5532 C.ar    1  UNL1        0.0988
     10 C         -24.4618  -14.5703  -15.0131 C.ar    1  UNL1        0.0204
     11 C         -23.2792  -13.8812  -14.7471 C.ar    1  UNL1       -0.0012
     12 C         -23.3070  -12.6765  -14.0277 C.ar    1  UNL1       -0.0042
     13 C         -22.0173  -11.9362  -13.7888 C.3     1  UNL1        0.0326
     14 N         -24.0241   -9.2408   -8.2520 N.am    1  UNL1       -0.2644
     15 C         -24.9361   -9.9485   -9.1066 C.2     1  UNL1        0.2507
     16 O         -25.8489  -10.6396   -8.5794 O.2     1  UNL1       -0.2698
     17 H         -24.3479   -9.0042   -7.2870 H       1  UNL1        0.1566
     18 N         -20.7434   -9.1775   -9.5577 N.ar    1  UNL1       -0.2188
     19 C         -20.5216   -8.5479   -8.3872 C.ar    1  UNL1        0.1008
     20 C         -21.7202   -8.4423   -7.7124 C.ar    1  UNL1        0.0565
     21 C         -22.6338   -9.0498   -8.5518 C.ar    1  UNL1        0.1558
     22 N         -22.0214   -9.5028   -9.6626 N.ar    1  UNL1       -0.1518
     23 C         -19.7267   -9.5446  -10.5402 C.3     1  UNL1        0.2734
     24 O         -19.5035  -10.9413  -10.5271 O.3     1  UNL1       -0.3284
     25 C         -18.4358  -11.2905   -9.6619 C.3     1  UNL1        0.1764
     26 C         -18.0445  -12.7513   -9.8926 C.3     1  UNL1        0.1743
     27 C         -16.6426  -12.0813   -8.1693 C.3     1  UNL1        0.1742
     28 O         -16.8957  -13.0801   -9.1337 O.3     1  UNL1       -0.3484
     29 O         -24.9754   -7.3184  -13.3033 O.3     1  UNL1       -0.4535
     30 C         -26.1660   -6.7499  -13.7788 C.ar    1  UNL1        0.1454
     31 C         -27.4121   -7.3781  -13.6032 C.ar    1  UNL1        0.0388
     32 C         -28.5788   -6.7741  -14.0808 C.ar    1  UNL1        0.0215
     33 C         -28.5156   -5.5348  -14.7315 C.ar    1  UNL1        0.1059
     34 C         -27.2783   -4.8946  -14.8812 C.ar    1  UNL1        0.0215
     35 C         -26.1117   -5.4986  -14.4033 C.ar    1  UNL1        0.0388
     36 S         -29.9870   -4.7669  -15.3177 S.O2    1  UNL1        0.0105
     37 C         -29.5876   -3.6752  -16.6632 C.3     1  UNL1        0.1816
     38 O         -30.6293   -3.9830  -14.2076 O.2     1  UNL1       -0.1686
     39 O         -30.9551   -5.8149  -15.7907 O.2     1  UNL1       -0.1686
@<TRIPOS>BOND
     1    27    28    1
     2    28    26    1
     3    26    25    1
     4    25    24    1
     5    24    23    1
     6    23    18    1
     7    18    19   ar
     8    19    20   ar
     9    20    21   ar
    10    21    14    1
    11    14    15   am
    12    15    16    2
    13    15     1    1
    14     1     2   ar
    15     2     3   ar
    16     3    29    1
    17    29    30    1
    18    30    31   ar
    19    31    32   ar
    20    32    33   ar
    21    33    36    1
    22    36    37    1
    23    36    38    2
    24    36    39    2
    25    33    34   ar
    26    34    35   ar
    27     3     4   ar
    28     4     5   ar
    29     5     7    1
    30     7     8   ar
    31     8     9   ar
    32     9    10   ar
    33    10    11   ar
    34    11    12   ar
    35    12    13    1
    36     5     6   ar
    37    21    22   ar
    38    22    18   ar
    39     6     1   ar
    40    35    30   ar
    41    12     7   ar
    42    14    17    1
