@<TRIPOS>MOLECULE
*****
 39 43 0 0 0
SMALL
GASTEIGER

@<TRIPOS>ATOM
      1 N         -23.1508   -7.9763  -14.1345 N.3     1  UNL1       -0.2679
      2 N         -22.2861   -7.6386   -9.2575 N.3     1  UNL1       -0.3188
      3 C         -21.2102   -7.6405  -10.2540 C.3     1  UNL1        0.0749
      4 C         -21.2807   -6.4048  -11.1754 C.3     1  UNL1        0.0218
      5 C         -22.3536   -6.5683  -12.2510 C.3     1  UNL1        0.0238
      6 C         -22.0384   -7.7692  -13.1628 C.3     1  UNL1        0.0979
      7 C         -21.6803   -9.0200  -12.3693 C.ar    1  UNL1        0.0707
      8 N         -21.6775  -10.2278  -12.9998 N.ar    1  UNL1       -0.2471
      9 C         -21.3075  -11.3762  -12.3772 C.ar    1  UNL1        0.0985
     10 C         -20.8923  -11.3453  -11.0485 C.ar    1  UNL1        0.0204
     11 C         -20.8556  -10.1263  -10.3742 C.ar    1  UNL1       -0.0002
     12 C         -21.2338   -8.9428  -11.0270 C.ar    1  UNL1        0.0067
     13 H         -22.2401   -6.7524   -8.7040 H       1  UNL1        0.1191
     14 H         -23.2172   -7.6727   -9.7312 H       1  UNL1        0.1191
     15 C         -22.7590   -7.8539  -15.5623 C.3     1  UNL1        0.0725
     16 C         -21.3140   -8.3366  -15.7446 C.3     1  UNL1        0.0188
     17 C         -21.2712   -9.7154  -16.4212 C.3     1  UNL1        0.0185
     18 C         -22.6430  -10.4208  -16.4514 C.3     1  UNL1        0.0686
     19 N         -22.9167  -11.3123  -15.3046 N.3     1  UNL1       -0.2985
     20 H         -22.0151  -11.5004  -14.8074 H       1  UNL1        0.1232
     21 C         -23.5774  -12.5954  -15.6276 C.3     1  UNL1        0.0568
     22 C         -22.5124  -13.7135  -15.7070 C.3     1  UNL1        0.0328
     23 C         -23.0935  -15.1192  -15.4532 C.3     1  UNL1        0.0699
     24 N         -24.5183  -15.1876  -15.7964 N.3     1  UNL1       -0.2974
     25 C         -25.3300  -14.3133  -14.9298 C.3     1  UNL1        0.0699
     26 C         -24.6454  -12.9702  -14.5835 C.3     1  UNL1        0.0328
     27 H         -24.6409  -14.8965  -16.7952 H       1  UNL1        0.1232
     28 C         -24.3844   -7.2267  -13.7944 C.3     1  UNL1        0.0886
     29 C         -25.6207   -8.1609  -13.8121 C.3     1  UNL1        0.0748
     30 C         -25.3088   -9.5635  -13.2654 C.3     1  UNL1        0.0432
     31 C         -25.2131   -9.5712  -11.7642 C.ar    1  UNL1       -0.0234
     32 C         -24.5624  -10.6347  -11.1190 C.ar    1  UNL1       -0.0045
     33 C         -24.5101  -10.6879   -9.7242 C.ar    1  UNL1       -0.0003
     34 C         -25.1149   -9.6861   -8.9629 C.ar    1  UNL1       -0.0003
     35 C         -25.7768   -8.6301   -9.5941 C.ar    1  UNL1       -0.0032
     36 C         -25.8464   -8.5714  -10.9952 C.ar    1  UNL1       -0.0103
     37 C         -26.5114   -7.3833  -11.6500 C.3     1  UNL1        0.0953
     38 N         -26.7694   -7.5923  -13.0842 N.3     1  UNL1       -0.2934
     39 H         -27.0236   -6.6715  -13.5128 H       1  UNL1        0.1236
@<TRIPOS>BOND
     1     2     3    1
     2     3     4    1
     3     4     5    1
     4     5     6    1
     5     6     1    1
     6     1    15    1
     7    15    16    1
     8    16    17    1
     9    17    18    1
    10    18    19    1
    11    19    21    1
    12    21    22    1
    13    22    23    1
    14    23    24    1
    15    24    25    1
    16    25    26    1
    17     1    28    1
    18    28    29    1
    19    29    30    1
    20    30    31    1
    21    31    32   ar
    22    32    33   ar
    23    33    34   ar
    24    34    35   ar
    25    35    36   ar
    26    36    37    1
    27    37    38    1
    28     6     7    1
    29     7     8   ar
    30     8     9   ar
    31     9    10   ar
    32    10    11   ar
    33    11    12   ar
    34    12     3    1
    35    26    21    1
    36    38    29    1
    37    12     7   ar
    38    36    31   ar
    39     2    13    1
    40     2    14    1
    41    19    20    1
    42    24    27    1
    43    38    39    1
@<TRIPOS>MOLECULE
*****
 39 43 0 0 0
SMALL
GASTEIGER

@<TRIPOS>ATOM
      1 N         -22.0551  -10.1405  -11.1486 N.3     1  UNL1       -0.2679
      2 N         -25.7138  -10.4088  -14.4937 N.3     1  UNL1       -0.3188
      3 C         -24.4071  -11.0429  -14.6969 C.3     1  UNL1        0.0749
      4 C         -24.1426  -12.1547  -13.6603 C.3     1  UNL1        0.0218
      5 C         -23.7143  -11.5745  -12.3132 C.3     1  UNL1        0.0238
      6 C         -22.3968  -10.7878  -12.4481 C.3     1  UNL1        0.0979
      7 C         -22.4187   -9.8199  -13.6250 C.ar    1  UNL1        0.0707
      8 N         -21.4714   -8.8435  -13.6989 N.ar    1  UNL1       -0.2471
      9 C         -21.3867   -7.9855  -14.7478 C.ar    1  UNL1        0.0985
     10 C         -22.2778   -8.0967  -15.8120 C.ar    1  UNL1        0.0204
     11 C         -23.2461   -9.0986  -15.7882 C.ar    1  UNL1       -0.0002
     12 C         -23.3228   -9.9853  -14.7031 C.ar    1  UNL1        0.0067
     13 H         -26.4598  -11.1409  -14.5273 H       1  UNL1        0.1191
     14 H         -25.7524   -9.9547  -13.5530 H       1  UNL1        0.1191
     15 C         -20.7496  -10.5545  -10.5729 C.3     1  UNL1        0.0725
     16 C         -19.8376   -9.3293  -10.4270 C.3     1  UNL1        0.0188
     17 C         -19.2511   -9.2403   -9.0096 C.3     1  UNL1        0.0185
     18 C         -19.8455   -8.0853   -8.1771 C.3     1  UNL1        0.0686
     19 N         -18.9051   -7.4394   -7.2372 N.3     1  UNL1       -0.2985
     20 H         -18.0460   -7.1602   -7.7660 H       1  UNL1        0.1232
     21 C         -18.5173   -8.2428   -6.0577 C.3     1  UNL1        0.0568
     22 C         -17.3890   -7.5147   -5.2911 C.3     1  UNL1        0.0328
     23 C         -17.3137   -7.9159   -3.8040 C.3     1  UNL1        0.0699
     24 N         -17.8527   -9.2614   -3.5769 N.3     1  UNL1       -0.2974
     25 C         -19.2932   -9.3303   -3.8839 C.3     1  UNL1        0.0699
     26 C         -19.7089   -8.4900   -5.1142 C.3     1  UNL1        0.0328
     27 H         -17.3357   -9.9407   -4.1841 H       1  UNL1        0.1232
     28 C         -23.1658  -10.1573  -10.1659 C.3     1  UNL1        0.0886
     29 C         -23.4357   -8.7349   -9.6135 C.3     1  UNL1        0.0748
     30 C         -23.3175   -7.6490  -10.6953 C.3     1  UNL1        0.0432
     31 C         -24.5207   -7.6237  -11.5977 C.ar    1  UNL1       -0.0234
     32 C         -24.4318   -6.9956  -12.8500 C.ar    1  UNL1       -0.0045
     33 C         -25.5527   -6.9140  -13.6796 C.ar    1  UNL1       -0.0003
     34 C         -26.7723   -7.4495  -13.2620 C.ar    1  UNL1       -0.0003
     35 C         -26.8758   -8.0650  -12.0121 C.ar    1  UNL1       -0.0032
     36 C         -25.7595   -8.1431  -11.1642 C.ar    1  UNL1       -0.0103
     37 C         -25.8851   -8.8726   -9.8472 C.3     1  UNL1        0.0953
     38 N         -24.7462   -8.6265   -8.9474 N.3     1  UNL1       -0.2934
     39 H         -24.7886   -9.3180   -8.1623 H       1  UNL1        0.1236
@<TRIPOS>BOND
     1     2     3    1
     2     3     4    1
     3     4     5    1
     4     5     6    1
     5     6     1    1
     6     1    15    1
     7    15    16    1
     8    16    17    1
     9    17    18    1
    10    18    19    1
    11    19    21    1
    12    21    22    1
    13    22    23    1
    14    23    24    1
    15    24    25    1
    16    25    26    1
    17     1    28    1
    18    28    29    1
    19    29    30    1
    20    30    31    1
    21    31    32   ar
    22    32    33   ar
    23    33    34   ar
    24    34    35   ar
    25    35    36   ar
    26    36    37    1
    27    37    38    1
    28     6     7    1
    29     7     8   ar
    30     8     9   ar
    31     9    10   ar
    32    10    11   ar
    33    11    12   ar
    34    12     3    1
    35    26    21    1
    36    38    29    1
    37    12     7   ar
    38    36    31   ar
    39     2    13    1
    40     2    14    1
    41    19    20    1
    42    24    27    1
    43    38    39    1
@<TRIPOS>MOLECULE
*****
 39 43 0 0 0
SMALL
GASTEIGER

@<TRIPOS>ATOM
      1 N         -21.0427  -10.8636  -11.6572 N.3     1  UNL1       -0.2679
      2 N         -24.6182   -7.4347  -11.3324 N.3     1  UNL1       -0.3188
      3 C         -24.7751   -8.6714  -12.1048 C.3     1  UNL1        0.0749
      4 C         -24.7340   -9.9208  -11.2003 C.3     1  UNL1        0.0218
      5 C         -23.3020  -10.2813  -10.8075 C.3     1  UNL1        0.0238
      6 C         -22.4604  -10.6216  -12.0520 C.3     1  UNL1        0.0979
      7 C         -22.6176   -9.5850  -13.1580 C.ar    1  UNL1        0.0707
      8 N         -21.7225   -9.5694  -14.1850 N.ar    1  UNL1       -0.2471
      9 C         -21.8334   -8.7196  -15.2381 C.ar    1  UNL1        0.0985
     10 C         -22.9038   -7.8316  -15.3065 C.ar    1  UNL1        0.0204
     11 C         -23.8563   -7.8328  -14.2892 C.ar    1  UNL1       -0.0002
     12 C         -23.7376   -8.7188  -13.2073 C.ar    1  UNL1        0.0067
     13 H         -25.3607   -7.3924  -10.5971 H       1  UNL1        0.1191
     14 H         -23.6900   -7.4244  -10.8518 H       1  UNL1        0.1191
     15 C         -20.5527  -12.2421  -11.9158 C.3     1  UNL1        0.0725
     16 C         -21.5218  -12.9662  -12.8596 C.3     1  UNL1        0.0188
     17 C         -20.8180  -13.3914  -14.1575 C.3     1  UNL1        0.0185
     18 C         -21.5770  -12.9610  -15.4299 C.3     1  UNL1        0.0686
     19 N         -22.5834  -13.9271  -15.9184 N.3     1  UNL1       -0.2985
     20 H         -22.4476  -14.0562  -16.9483 H       1  UNL1        0.1232
     21 C         -23.9954  -13.5807  -15.6481 C.3     1  UNL1        0.0568
     22 C         -24.5291  -14.4681  -14.4997 C.3     1  UNL1        0.0328
     23 C         -25.7228  -13.8371  -13.7546 C.3     1  UNL1        0.0699
     24 N         -26.4650  -12.9046  -14.6101 N.3     1  UNL1       -0.2974
     25 C         -25.6410  -11.7437  -14.9942 C.3     1  UNL1        0.0699
     26 C         -24.1613  -12.0959  -15.2755 C.3     1  UNL1        0.0328
     27 H         -26.7757  -13.4104  -15.4733 H       1  UNL1        0.1232
     28 C         -20.7095  -10.3631  -10.3015 C.3     1  UNL1        0.0886
     29 C         -19.4922   -9.4055  -10.3503 C.3     1  UNL1        0.0748
     30 C         -19.6296   -8.3309  -11.4410 C.3     1  UNL1        0.0432
     31 C         -20.5840   -7.2408  -11.0366 C.ar    1  UNL1       -0.0234
     32 C         -21.1351   -6.4049  -12.0207 C.ar    1  UNL1       -0.0045
     33 C         -21.9807   -5.3531  -11.6603 C.ar    1  UNL1       -0.0003
     34 C         -22.2747   -5.1215  -10.3155 C.ar    1  UNL1       -0.0003
     35 C         -21.7212   -5.9386   -9.3267 C.ar    1  UNL1       -0.0032
     36 C         -20.8607   -6.9918   -9.6751 C.ar    1  UNL1       -0.0103
     37 C         -20.3305   -7.8990   -8.5895 C.3     1  UNL1        0.0953
     38 N         -19.2289   -8.7592   -9.0519 N.3     1  UNL1       -0.2934
     39 H         -19.0605   -9.4987   -8.3301 H       1  UNL1        0.1236
@<TRIPOS>BOND
     1     2     3    1
     2     3     4    1
     3     4     5    1
     4     5     6    1
     5     6     1    1
     6     1    15    1
     7    15    16    1
     8    16    17    1
     9    17    18    1
    10    18    19    1
    11    19    21    1
    12    21    22    1
    13    22    23    1
    14    23    24    1
    15    24    25    1
    16    25    26    1
    17     1    28    1
    18    28    29    1
    19    29    30    1
    20    30    31    1
    21    31    32   ar
    22    32    33   ar
    23    33    34   ar
    24    34    35   ar
    25    35    36   ar
    26    36    37    1
    27    37    38    1
    28     6     7    1
    29     7     8   ar
    30     8     9   ar
    31     9    10   ar
    32    10    11   ar
    33    11    12   ar
    34    12     3    1
    35    26    21    1
    36    38    29    1
    37    12     7   ar
    38    36    31   ar
    39     2    13    1
    40     2    14    1
    41    19    20    1
    42    24    27    1
    43    38    39    1
@<TRIPOS>MOLECULE
*****
 39 43 0 0 0
SMALL
GASTEIGER

@<TRIPOS>ATOM
      1 N         -24.4130   -7.8557  -13.0950 N.3     1  UNL1       -0.2679
      2 N         -22.3552   -9.4747   -8.8771 N.3     1  UNL1       -0.3188
      3 C         -23.3832   -8.4292   -8.9061 C.3     1  UNL1        0.0749
      4 C         -24.7300   -8.9646   -9.4354 C.3     1  UNL1        0.0218
      5 C         -24.7265   -9.0821  -10.9589 C.3     1  UNL1        0.0238
      6 C         -24.5220   -7.7036  -11.6154 C.3     1  UNL1        0.0979
      7 C         -23.3636   -6.9329  -10.9940 C.ar    1  UNL1        0.0707
      8 N         -22.8597   -5.8497  -11.6491 N.ar    1  UNL1       -0.2471
      9 C         -21.8727   -5.0756  -11.1297 C.ar    1  UNL1        0.0985
     10 C         -21.3494   -5.3653   -9.8723 C.ar    1  UNL1        0.0204
     11 C         -21.8546   -6.4494   -9.1571 C.ar    1  UNL1       -0.0002
     12 C         -22.8793   -7.2409   -9.6987 C.ar    1  UNL1        0.0067
     13 H         -22.6964  -10.2759   -8.2978 H       1  UNL1        0.1191
     14 H         -22.1755   -9.8313   -9.8430 H       1  UNL1        0.1191
     15 C         -25.3519   -7.0106  -13.8770 C.3     1  UNL1        0.0725
     16 C         -26.5715   -6.6596  -13.0147 C.3     1  UNL1        0.0188
     17 C         -27.8798   -7.0483  -13.7202 C.3     1  UNL1        0.0185
     18 C         -28.5198   -5.8813  -14.5006 C.3     1  UNL1        0.0686
     19 N         -29.9501   -6.0554  -14.8306 N.3     1  UNL1       -0.2985
     20 H         -30.0593   -6.9403  -15.3790 H       1  UNL1        0.1232
     21 C         -30.5835   -4.9396  -15.5659 C.3     1  UNL1        0.0568
     22 C         -31.5604   -4.1963  -14.6256 C.3     1  UNL1        0.0328
     23 C         -31.8172   -2.7373  -15.0537 C.3     1  UNL1        0.0699
     24 N         -31.6156   -2.5510  -16.4949 N.3     1  UNL1       -0.2974
     25 C         -30.2129   -2.7865  -16.8837 C.3     1  UNL1        0.0699
     26 C         -29.5407   -3.9497  -16.1170 C.3     1  UNL1        0.0328
     27 H         -32.2358   -3.2176  -17.0130 H       1  UNL1        0.1232
     28 C         -24.3741   -9.2679  -13.5462 C.3     1  UNL1        0.0886
     29 C         -23.1462   -9.5230  -14.4566 C.3     1  UNL1        0.0748
     30 C         -21.9321   -8.6653  -14.0645 C.3     1  UNL1        0.0432
     31 C         -21.2441   -9.1960  -12.8366 C.ar    1  UNL1       -0.0234
     32 C         -20.3856   -8.3571  -12.1087 C.ar    1  UNL1       -0.0045
     33 C         -19.6956   -8.8467  -10.9973 C.ar    1  UNL1       -0.0003
     34 C         -19.8494  -10.1790  -10.6098 C.ar    1  UNL1       -0.0003
     35 C         -20.6907  -11.0266  -11.3347 C.ar    1  UNL1       -0.0032
     36 C         -21.3808  -10.5496  -12.4606 C.ar    1  UNL1       -0.0103
     37 C         -22.3341  -11.4712  -13.1847 C.3     1  UNL1        0.0953
     38 N         -22.7550  -10.9437  -14.4931 N.3     1  UNL1       -0.2934
     39 H         -23.5649  -11.5124  -14.8347 H       1  UNL1        0.1236
@<TRIPOS>BOND
     1     2     3    1
     2     3     4    1
     3     4     5    1
     4     5     6    1
     5     6     1    1
     6     1    15    1
     7    15    16    1
     8    16    17    1
     9    17    18    1
    10    18    19    1
    11    19    21    1
    12    21    22    1
    13    22    23    1
    14    23    24    1
    15    24    25    1
    16    25    26    1
    17     1    28    1
    18    28    29    1
    19    29    30    1
    20    30    31    1
    21    31    32   ar
    22    32    33   ar
    23    33    34   ar
    24    34    35   ar
    25    35    36   ar
    26    36    37    1
    27    37    38    1
    28     6     7    1
    29     7     8   ar
    30     8     9   ar
    31     9    10   ar
    32    10    11   ar
    33    11    12   ar
    34    12     3    1
    35    26    21    1
    36    38    29    1
    37    12     7   ar
    38    36    31   ar
    39     2    13    1
    40     2    14    1
    41    19    20    1
    42    24    27    1
    43    38    39    1
@<TRIPOS>MOLECULE
*****
 39 43 0 0 0
SMALL
GASTEIGER

@<TRIPOS>ATOM
      1 N         -25.2560   -7.9011  -11.4790 N.3     1  UNL1       -0.2679
      2 N         -20.3100   -7.5741  -11.7556 N.3     1  UNL1       -0.3188
      3 C         -21.2050   -6.7335  -12.5574 C.3     1  UNL1        0.0749
      4 C         -22.0541   -5.7956  -11.6741 C.3     1  UNL1        0.0218
      5 C         -23.2288   -6.5369  -11.0373 C.3     1  UNL1        0.0238
      6 C         -24.1786   -7.0905  -12.1165 C.3     1  UNL1        0.0979
      7 C         -23.4319   -7.8286  -13.2210 C.ar    1  UNL1        0.0707
      8 N         -24.1302   -8.6307  -14.0727 N.ar    1  UNL1       -0.2471
      9 C         -23.5463   -9.2691  -15.1191 C.ar    1  UNL1        0.0985
     10 C         -22.1864   -9.1008  -15.3664 C.ar    1  UNL1        0.0204
     11 C         -21.4404   -8.2681  -14.5345 C.ar    1  UNL1       -0.0002
     12 C         -22.0530   -7.6069  -13.4587 C.ar    1  UNL1        0.0067
     13 H         -19.7030   -6.9621  -11.1634 H       1  UNL1        0.1191
     14 H         -20.8660   -8.1877  -11.1178 H       1  UNL1        0.1191
     15 C         -26.6322   -7.5686  -11.9294 C.3     1  UNL1        0.0725
     16 C         -26.6550   -6.1516  -12.5174 C.3     1  UNL1        0.0188
     17 C         -27.3125   -6.1380  -13.9060 C.3     1  UNL1        0.0185
     18 C         -26.4337   -5.4776  -14.9885 C.3     1  UNL1        0.0686
     19 N         -26.5466   -4.0065  -15.0784 N.3     1  UNL1       -0.2985
     20 H         -27.2943   -3.6896  -14.4179 H       1  UNL1        0.1232
     21 C         -26.8170   -3.4608  -16.4260 C.3     1  UNL1        0.0568
     22 C         -26.0666   -4.3067  -17.4806 C.3     1  UNL1        0.0328
     23 C         -26.7036   -4.2265  -18.8827 C.3     1  UNL1        0.0699
     24 N         -27.4413   -2.9726  -19.0728 N.3     1  UNL1       -0.2974
     25 C         -28.5951   -2.8755  -18.1597 C.3     1  UNL1        0.0699
     26 C         -28.3227   -3.4472  -16.7485 C.3     1  UNL1        0.0328
     27 H         -26.7930   -2.1682  -18.8995 H       1  UNL1        0.1232
     28 C         -25.1266   -8.0078  -10.0055 C.3     1  UNL1        0.0886
     29 C         -25.1995   -9.4875   -9.5507 C.3     1  UNL1        0.0748
     30 C         -24.7496  -10.4654  -10.6483 C.3     1  UNL1        0.0432
     31 C         -23.2528  -10.4915  -10.7964 C.ar    1  UNL1       -0.0234
     32 C         -22.6840  -11.0015  -11.9741 C.ar    1  UNL1       -0.0045
     33 C         -21.2962  -11.0845  -12.1089 C.ar    1  UNL1       -0.0003
     34 C         -20.4662  -10.6685  -11.0665 C.ar    1  UNL1       -0.0003
     35 C         -21.0214  -10.1719   -9.8846 C.ar    1  UNL1       -0.0032
     36 C         -22.4150  -10.0943   -9.7322 C.ar    1  UNL1       -0.0103
     37 C         -22.9850   -9.4914   -8.4696 C.3     1  UNL1        0.0953
     38 N         -24.4284   -9.7392   -8.3199 N.3     1  UNL1       -0.2934
     39 H         -24.7930   -9.1226   -7.5562 H       1  UNL1        0.1236
@<TRIPOS>BOND
     1     2     3    1
     2     3     4    1
     3     4     5    1
     4     5     6    1
     5     6     1    1
     6     1    15    1
     7    15    16    1
     8    16    17    1
     9    17    18    1
    10    18    19    1
    11    19    21    1
    12    21    22    1
    13    22    23    1
    14    23    24    1
    15    24    25    1
    16    25    26    1
    17     1    28    1
    18    28    29    1
    19    29    30    1
    20    30    31    1
    21    31    32   ar
    22    32    33   ar
    23    33    34   ar
    24    34    35   ar
    25    35    36   ar
    26    36    37    1
    27    37    38    1
    28     6     7    1
    29     7     8   ar
    30     8     9   ar
    31     9    10   ar
    32    10    11   ar
    33    11    12   ar
    34    12     3    1
    35    26    21    1
    36    38    29    1
    37    12     7   ar
    38    36    31   ar
    39     2    13    1
    40     2    14    1
    41    19    20    1
    42    24    27    1
    43    38    39    1
@<TRIPOS>MOLECULE
*****
 39 43 0 0 0
SMALL
GASTEIGER

@<TRIPOS>ATOM
      1 N         -22.9170   -7.6206  -12.5247 N.3     1  UNL1       -0.2679
      2 N         -27.8456   -8.2039  -12.6503 N.3     1  UNL1       -0.3188
      3 C         -27.1794   -7.2978  -11.7091 C.3     1  UNL1        0.0749
      4 C         -26.4579   -6.1447  -12.4375 C.3     1  UNL1        0.0218
      5 C         -25.1249   -6.6020  -13.0282 C.3     1  UNL1        0.0238
      6 C         -24.1675   -7.0782  -11.9193 C.3     1  UNL1        0.0979
      7 C         -24.8410   -8.0385  -10.9463 C.ar    1  UNL1        0.0707
      8 N         -24.0683   -8.7811  -10.1050 N.ar    1  UNL1       -0.2471
      9 C         -24.5965   -9.6094   -9.1678 C.ar    1  UNL1        0.0985
     10 C         -25.9781   -9.7092   -9.0259 C.ar    1  UNL1        0.0204
     11 C         -26.8045   -8.9469   -9.8492 C.ar    1  UNL1       -0.0002
     12 C         -26.2503   -8.0885  -10.8114 C.ar    1  UNL1        0.0067
     13 H         -28.5119   -7.6558  -13.2414 H       1  UNL1        0.1191
     14 H         -27.1427   -8.6458  -13.2851 H       1  UNL1        0.1191
     15 C         -21.7422   -6.7154  -12.4388 C.3     1  UNL1        0.0725
     16 C         -22.0883   -5.5011  -11.5672 C.3     1  UNL1        0.0188
     17 C         -21.1666   -5.4180  -10.3407 C.3     1  UNL1        0.0185
     18 C         -21.8604   -5.8402   -9.0289 C.3     1  UNL1        0.0686
     19 N         -21.8431   -7.2913   -8.7477 N.3     1  UNL1       -0.2985
     20 H         -22.1069   -7.4387   -7.7455 H       1  UNL1        0.1232
     21 C         -20.5695   -7.9883   -9.0289 C.3     1  UNL1        0.0568
     22 C         -19.8293   -8.2581   -7.6983 C.3     1  UNL1        0.0328
     23 C         -18.8420   -9.4395   -7.7860 C.3     1  UNL1        0.0699
     24 N         -18.3624   -9.6453   -9.1571 N.3     1  UNL1       -0.2974
     25 C         -19.4568  -10.0377  -10.0641 C.3     1  UNL1        0.0699
     26 C         -20.7942   -9.3163   -9.7753 C.3     1  UNL1        0.0328
     27 H         -17.9282   -8.7563   -9.5016 H       1  UNL1        0.1232
     28 C         -23.1146   -8.2053  -13.8732 C.3     1  UNL1        0.0886
     29 C         -22.1517   -9.3971  -14.1047 C.3     1  UNL1        0.0748
     30 C         -22.4472  -10.5844  -13.1739 C.3     1  UNL1        0.0432
     31 C         -23.6567  -11.3592  -13.6207 C.ar    1  UNL1       -0.0234
     32 C         -24.3066  -12.2097  -12.7124 C.ar    1  UNL1       -0.0045
     33 C         -25.3981  -12.9786  -13.1228 C.ar    1  UNL1       -0.0003
     34 C         -25.8430  -12.9121  -14.4443 C.ar    1  UNL1       -0.0003
     35 C         -25.1955  -12.0794  -15.3603 C.ar    1  UNL1       -0.0032
     36 C         -24.0900  -11.3104  -14.9631 C.ar    1  UNL1       -0.0103
     37 C         -23.4519  -10.3698  -15.9584 C.3     1  UNL1        0.0953
     38 N         -22.1484   -9.8575  -15.5050 N.3     1  UNL1       -0.2934
     39 H         -21.8711   -9.0612  -16.1257 H       1  UNL1        0.1236
@<TRIPOS>BOND
     1     2     3    1
     2     3     4    1
     3     4     5    1
     4     5     6    1
     5     6     1    1
     6     1    15    1
     7    15    16    1
     8    16    17    1
     9    17    18    1
    10    18    19    1
    11    19    21    1
    12    21    22    1
    13    22    23    1
    14    23    24    1
    15    24    25    1
    16    25    26    1
    17     1    28    1
    18    28    29    1
    19    29    30    1
    20    30    31    1
    21    31    32   ar
    22    32    33   ar
    23    33    34   ar
    24    34    35   ar
    25    35    36   ar
    26    36    37    1
    27    37    38    1
    28     6     7    1
    29     7     8   ar
    30     8     9   ar
    31     9    10   ar
    32    10    11   ar
    33    11    12   ar
    34    12     3    1
    35    26    21    1
    36    38    29    1
    37    12     7   ar
    38    36    31   ar
    39     2    13    1
    40     2    14    1
    41    19    20    1
    42    24    27    1
    43    38    39    1
@<TRIPOS>MOLECULE
*****
 39 43 0 0 0
SMALL
GASTEIGER

@<TRIPOS>ATOM
      1 N         -21.9036  -10.2216  -12.0295 N.3     1  UNL1       -0.2679
      2 N         -24.9619   -7.8405   -8.9272 N.3     1  UNL1       -0.3188
      3 C         -25.4322   -8.8443   -9.8873 C.3     1  UNL1        0.0749
      4 C         -24.8579  -10.2433   -9.5810 C.3     1  UNL1        0.0218
      5 C         -23.4145  -10.3747  -10.0650 C.3     1  UNL1        0.0238
      6 C         -23.3295  -10.1983  -11.5929 C.3     1  UNL1        0.0979
      7 C         -24.0964   -8.9738  -12.0776 C.ar    1  UNL1        0.0707
      8 N         -23.8714   -8.5056  -13.3371 N.ar    1  UNL1       -0.2471
      9 C         -24.5612   -7.4607  -13.8622 C.ar    1  UNL1        0.0985
     10 C         -25.5558   -6.8364  -13.1139 C.ar    1  UNL1        0.0204
     11 C         -25.8355   -7.3009  -11.8302 C.ar    1  UNL1       -0.0002
     12 C         -25.1220   -8.3856  -11.2972 C.ar    1  UNL1        0.0067
     13 H         -25.2124   -8.1473   -7.9592 H       1  UNL1        0.1191
     14 H         -23.9215   -7.7531   -8.9766 H       1  UNL1        0.1191
     15 C         -21.6245  -11.1028  -13.1925 C.3     1  UNL1        0.0725
     16 C         -21.5382  -10.2590  -14.4710 C.3     1  UNL1        0.0188
     17 C         -21.7169  -11.1305  -15.7237 C.3     1  UNL1        0.0185
     18 C         -23.0703  -10.9090  -16.4307 C.3     1  UNL1        0.0686
     19 N         -24.2384  -10.7995  -15.5316 N.3     1  UNL1       -0.2985
     20 H         -23.9099  -10.4512  -14.6008 H       1  UNL1        0.1232
     21 C         -25.0266  -12.0366  -15.3437 C.3     1  UNL1        0.0568
     22 C         -24.4715  -13.1428  -16.2707 C.3     1  UNL1        0.0328
     23 C         -24.7895  -14.5659  -15.7691 C.3     1  UNL1        0.0699
     24 N         -25.9982  -14.5910  -14.9379 N.3     1  UNL1       -0.2974
     25 C         -25.8218  -13.8153  -13.6963 C.3     1  UNL1        0.0699
     26 C         -24.9952  -12.5212  -13.8824 C.3     1  UNL1        0.0328
     27 H         -26.7956  -14.1906  -15.4867 H       1  UNL1        0.1232
     28 C         -20.9429  -10.3953  -10.9130 C.3     1  UNL1        0.0886
     29 C         -19.7473   -9.4201  -11.0567 C.3     1  UNL1        0.0748
     30 C         -20.0752   -8.2112  -11.9481 C.3     1  UNL1        0.0432
     31 C         -20.9281   -7.2010  -11.2307 C.ar    1  UNL1       -0.0234
     32 C         -21.6448   -6.2497  -11.9739 C.ar    1  UNL1       -0.0045
     33 C         -22.3993   -5.2698  -11.3248 C.ar    1  UNL1       -0.0003
     34 C         -22.4366   -5.2254   -9.9300 C.ar    1  UNL1       -0.0003
     35 C         -21.7165   -6.1587   -9.1802 C.ar    1  UNL1       -0.0032
     36 C         -20.9450   -7.1415   -9.8206 C.ar    1  UNL1       -0.0103
     37 C         -20.2307   -8.1773   -8.9844 C.3     1  UNL1        0.0953
     38 N         -19.2418   -8.9496   -9.7544 N.3     1  UNL1       -0.2934
     39 H         -18.9490   -9.7764   -9.1827 H       1  UNL1        0.1236
@<TRIPOS>BOND
     1     2     3    1
     2     3     4    1
     3     4     5    1
     4     5     6    1
     5     6     1    1
     6     1    15    1
     7    15    16    1
     8    16    17    1
     9    17    18    1
    10    18    19    1
    11    19    21    1
    12    21    22    1
    13    22    23    1
    14    23    24    1
    15    24    25    1
    16    25    26    1
    17     1    28    1
    18    28    29    1
    19    29    30    1
    20    30    31    1
    21    31    32   ar
    22    32    33   ar
    23    33    34   ar
    24    34    35   ar
    25    35    36   ar
    26    36    37    1
    27    37    38    1
    28     6     7    1
    29     7     8   ar
    30     8     9   ar
    31     9    10   ar
    32    10    11   ar
    33    11    12   ar
    34    12     3    1
    35    26    21    1
    36    38    29    1
    37    12     7   ar
    38    36    31   ar
    39     2    13    1
    40     2    14    1
    41    19    20    1
    42    24    27    1
    43    38    39    1
@<TRIPOS>MOLECULE
*****
 39 43 0 0 0
SMALL
GASTEIGER

@<TRIPOS>ATOM
      1 N         -22.6500  -10.6292  -12.1285 N.3     1  UNL1       -0.2679
      2 N         -25.1695   -7.7888   -8.9299 N.3     1  UNL1       -0.3188
      3 C         -25.8303   -8.6997   -9.8702 C.3     1  UNL1        0.0749
      4 C         -25.4820  -10.1745   -9.5796 C.3     1  UNL1        0.0218
      5 C         -24.0970  -10.5387  -10.1126 C.3     1  UNL1        0.0238
      6 C         -24.0370  -10.3745  -11.6431 C.3     1  UNL1        0.0979
      7 C         -24.6099   -9.0399  -12.1048 C.ar    1  UNL1        0.0707
      8 N         -24.3551   -8.6114  -13.3728 N.ar    1  UNL1       -0.2471
      9 C         -24.8826   -7.4664  -13.8769 C.ar    1  UNL1        0.0985
     10 C         -25.7354   -6.6901  -13.0967 C.ar    1  UNL1        0.0204
     11 C         -26.0428   -7.1061  -11.8027 C.ar    1  UNL1       -0.0002
     12 C         -25.4982   -8.2941  -11.2913 C.ar    1  UNL1        0.0067
     13 H         -25.4332   -8.0531   -7.9529 H       1  UNL1        0.1191
     14 H         -24.1312   -7.8723   -9.0154 H       1  UNL1        0.1191
     15 C         -22.4947  -11.8589  -12.9475 C.3     1  UNL1        0.0725
     16 C         -23.8438  -12.2367  -13.5730 C.3     1  UNL1        0.0188
     17 C         -23.6489  -13.0317  -14.8733 C.3     1  UNL1        0.0185
     18 C         -22.6779  -12.3527  -15.8615 C.3     1  UNL1        0.0686
     19 N         -23.2720  -11.2844  -16.6925 N.3     1  UNL1       -0.2985
     20 H         -23.0250  -11.4658  -17.6934 H       1  UNL1        0.1232
     21 C         -22.8911   -9.9009  -16.3348 C.3     1  UNL1        0.0568
     22 C         -21.3625   -9.8324  -16.1124 C.3     1  UNL1        0.0328
     23 C         -20.7862   -8.4165  -16.3158 C.3     1  UNL1        0.0699
     24 N         -21.7938   -7.3796  -16.0668 N.3     1  UNL1       -0.2974
     25 C         -22.8992   -7.4490  -17.0403 C.3     1  UNL1        0.0699
     26 C         -23.3022   -8.8924  -17.4234 C.3     1  UNL1        0.0328
     27 H         -22.1755   -7.5030  -15.0991 H       1  UNL1        0.1232
     28 C         -21.6161  -10.4870  -11.0748 C.3     1  UNL1        0.0886
     29 C         -20.4195   -9.6451  -11.5854 C.3     1  UNL1        0.0748
     30 C         -20.8654   -8.3991  -12.3677 C.3     1  UNL1        0.0432
     31 C         -21.3569   -7.3099  -11.4539 C.ar    1  UNL1       -0.0234
     32 C         -22.1557   -6.2795  -11.9745 C.ar    1  UNL1       -0.0045
     33 C         -22.5770   -5.2304  -11.1542 C.ar    1  UNL1       -0.0003
     34 C         -22.1965   -5.1963   -9.8114 C.ar    1  UNL1       -0.0003
     35 C         -21.3907   -6.2092   -9.2859 C.ar    1  UNL1       -0.0032
     36 C         -20.9510   -7.2631  -10.1028 C.ar    1  UNL1       -0.0103
     37 C         -20.1360   -8.3782   -9.4908 C.3     1  UNL1        0.0953
     38 N         -19.5058   -9.2450  -10.5001 N.3     1  UNL1       -0.2934
     39 H         -19.1469  -10.1043  -10.0215 H       1  UNL1        0.1236
@<TRIPOS>BOND
     1     2     3    1
     2     3     4    1
     3     4     5    1
     4     5     6    1
     5     6     1    1
     6     1    15    1
     7    15    16    1
     8    16    17    1
     9    17    18    1
    10    18    19    1
    11    19    21    1
    12    21    22    1
    13    22    23    1
    14    23    24    1
    15    24    25    1
    16    25    26    1
    17     1    28    1
    18    28    29    1
    19    29    30    1
    20    30    31    1
    21    31    32   ar
    22    32    33   ar
    23    33    34   ar
    24    34    35   ar
    25    35    36   ar
    26    36    37    1
    27    37    38    1
    28     6     7    1
    29     7     8   ar
    30     8     9   ar
    31     9    10   ar
    32    10    11   ar
    33    11    12   ar
    34    12     3    1
    35    26    21    1
    36    38    29    1
    37    12     7   ar
    38    36    31   ar
    39     2    13    1
    40     2    14    1
    41    19    20    1
    42    24    27    1
    43    38    39    1
@<TRIPOS>MOLECULE
*****
 39 43 0 0 0
SMALL
GASTEIGER

@<TRIPOS>ATOM
      1 N         -22.5784   -7.5055  -12.0211 N.3     1  UNL1       -0.2679
      2 N         -27.4518   -8.2991  -12.5373 N.3     1  UNL1       -0.3188
      3 C         -26.8929   -7.4829  -11.4547 C.3     1  UNL1        0.0749
      4 C         -26.1929   -6.2179  -11.9938 C.3     1  UNL1        0.0218
      5 C         -24.8043   -6.5380  -12.5454 C.3     1  UNL1        0.0238
      6 C         -23.8902   -7.0990  -11.4396 C.3     1  UNL1        0.0979
      7 C         -24.5674   -8.2000  -10.6323 C.ar    1  UNL1        0.0707
      8 N         -23.8071   -9.0017   -9.8352 N.ar    1  UNL1       -0.2471
      9 C         -24.3445   -9.9606   -9.0382 C.ar    1  UNL1        0.0985
     10 C         -25.7247  -10.1413   -9.0000 C.ar    1  UNL1        0.0204
     11 C         -26.5407   -9.3247   -9.7806 C.ar    1  UNL1       -0.0002
     12 C         -25.9775   -8.3317  -10.5969 C.ar    1  UNL1        0.0067
     13 H         -28.1105   -7.7155  -13.1025 H       1  UNL1        0.1191
     14 H         -26.6894   -8.6279  -13.1722 H       1  UNL1        0.1191
     15 C         -21.4264   -6.6664  -11.6015 C.3     1  UNL1        0.0725
     16 C         -21.2844   -6.7105  -10.0744 C.3     1  UNL1        0.0188
     17 C         -20.3626   -7.8589   -9.6361 C.3     1  UNL1        0.0185
     18 C         -20.2928   -8.0320   -8.1046 C.3     1  UNL1        0.0686
     19 N         -19.0787   -7.4830   -7.4647 N.3     1  UNL1       -0.2985
     20 H         -18.2752   -7.5943   -8.1262 H       1  UNL1        0.1232
     21 C         -18.7206   -8.0653   -6.1533 C.3     1  UNL1        0.0568
     22 C         -18.3542   -9.5560   -6.3383 C.3     1  UNL1        0.0328
     23 C         -17.4358  -10.0944   -5.2226 C.3     1  UNL1        0.0699
     24 N         -17.5995   -9.3412   -3.9743 N.3     1  UNL1       -0.2974
     25 C         -17.1769   -7.9367   -4.1259 C.3     1  UNL1        0.0699
     26 C         -17.5441   -7.3202   -5.4962 C.3     1  UNL1        0.0328
     27 H         -18.6072   -9.3715   -3.6896 H       1  UNL1        0.1232
     28 C         -22.6271   -7.7531  -13.4826 C.3     1  UNL1        0.0886
     29 C         -21.7226   -8.9501  -13.8702 C.3     1  UNL1        0.0748
     30 C         -22.0050  -10.2020  -13.0237 C.3     1  UNL1        0.0432
     31 C         -23.2655  -10.8991  -13.4575 C.ar    1  UNL1       -0.0234
     32 C         -23.8907  -11.8028  -12.5839 C.ar    1  UNL1       -0.0045
     33 C         -25.0312  -12.5006  -12.9881 C.ar    1  UNL1       -0.0003
     34 C         -25.5504  -12.3094  -14.2698 C.ar    1  UNL1       -0.0003
     35 C         -24.9287  -11.4227  -15.1523 C.ar    1  UNL1       -0.0032
     36 C         -23.7750  -10.7240  -14.7620 C.ar    1  UNL1       -0.0103
     37 C         -23.1635   -9.7229  -15.7140 C.3     1  UNL1        0.0953
     38 N         -21.8181   -9.2908  -15.3012 N.3     1  UNL1       -0.2934
     39 H         -21.5496   -8.4538  -15.8702 H       1  UNL1        0.1236
@<TRIPOS>BOND
     1     2     3    1
     2     3     4    1
     3     4     5    1
     4     5     6    1
     5     6     1    1
     6     1    15    1
     7    15    16    1
     8    16    17    1
     9    17    18    1
    10    18    19    1
    11    19    21    1
    12    21    22    1
    13    22    23    1
    14    23    24    1
    15    24    25    1
    16    25    26    1
    17     1    28    1
    18    28    29    1
    19    29    30    1
    20    30    31    1
    21    31    32   ar
    22    32    33   ar
    23    33    34   ar
    24    34    35   ar
    25    35    36   ar
    26    36    37    1
    27    37    38    1
    28     6     7    1
    29     7     8   ar
    30     8     9   ar
    31     9    10   ar
    32    10    11   ar
    33    11    12   ar
    34    12     3    1
    35    26    21    1
    36    38    29    1
    37    12     7   ar
    38    36    31   ar
    39     2    13    1
    40     2    14    1
    41    19    20    1
    42    24    27    1
    43    38    39    1
