@<TRIPOS>MOLECULE
*****
 52 57 0 0 0
SMALL
GASTEIGER

@<TRIPOS>ATOM
      1 N           7.8280   75.0508   25.8108 N.am    1  UNL1       -0.2945
      2 C           8.8103   75.6714   26.6615 C.2     1  UNL1        0.2483
      3 O           9.0111   75.2292   27.8253 O.2     1  UNL1       -0.2701
      4 H           7.6165   75.4925   24.8882 H       1  UNL1        0.1501
      5 C           9.5683   76.8546   26.2020 C.ar    1  UNL1        0.0808
      6 C          10.9461   76.9358   26.4620 C.ar    1  UNL1        0.0080
      7 C          11.6820   78.0488   26.0482 C.ar    1  UNL1        0.0148
      8 C          11.0559   79.0965   25.3549 C.ar    1  UNL1        0.0502
      9 C           9.6828   79.0102   25.0803 C.ar    1  UNL1        0.0443
     10 C           8.9422   77.8988   25.4950 C.ar    1  UNL1        0.1457
     11 F           7.6282   77.8288   25.1634 F       1  UNL1       -0.2040
     12 N          11.8082   80.2479   24.9282 N.pl3   1  UNL1       -0.3040
     13 C          13.2726   80.1978   24.8564 C.3     1  UNL1        0.1123
     14 C          13.8719   81.5301   25.3145 C.3     1  UNL1        0.1136
     15 N          13.1775   82.6560   24.6729 N.pl3   1  UNL1       -0.2897
     16 C          11.7105   82.6886   24.7395 C.3     1  UNL1        0.1136
     17 C          11.1313   81.3612   24.2551 C.3     1  UNL1        0.1123
     18 C          13.8955   83.8326   24.2492 C.ar    1  UNL1        0.1318
     19 C          13.9697   84.9757   25.0620 C.ar    1  UNL1        0.0343
     20 C          14.6725   86.0955   24.6147 C.ar    1  UNL1        0.0083
     21 C          15.2819   86.0896   23.3511 C.ar    1  UNL1        0.0906
     22 C          15.1995   84.9218   22.5771 C.ar    1  UNL1        0.1041
     23 N          14.5119   83.8425   23.0348 N.ar    1  UNL1       -0.2292
     24 C          16.0856   87.2737   22.8773 C.3     1  UNL1        0.4200
     25 F          16.3633   87.1656   21.5255 F       1  UNL1       -0.1658
     26 F          17.2865   87.3538   23.5610 F       1  UNL1       -0.1658
     27 F          15.3633   88.4314   23.0978 F       1  UNL1       -0.1658
     28 C           6.9882   73.9092   26.2070 C.3     1  UNL1        0.1535
     29 C           6.0653   74.2631   27.3497 C.2     1  UNL1        0.2443
     30 O           5.3816   73.3659   27.9151 O.2     1  UNL1       -0.2730
     31 N           5.9028   75.6383   27.7321 N.am    1  UNL1       -0.2825
     32 H           6.1721   76.3719   27.0379 H       1  UNL1        0.1549
     33 C           5.3022   76.0641   28.9671 C.ar    1  UNL1        0.0535
     34 C           5.9689   75.8245   30.1765 C.ar    1  UNL1        0.0353
     35 C           5.3789   76.2154   31.3809 C.ar    1  UNL1        0.1002
     36 N           4.1569   76.8104   31.3802 N.ar    1  UNL1       -0.2422
     37 C           3.4771   77.0385   30.2255 C.ar    1  UNL1        0.1002
     38 C           4.0315   76.6643   28.9988 C.ar    1  UNL1        0.0353
     39 C           6.2030   73.3417   25.0059 C.3     1  UNL1        0.0569
     40 C           4.0535   77.0004   23.1971 C.ar    1  UNL1        0.0074
     41 C           4.5797   77.3618   21.9303 C.ar    1  UNL1       -0.0004
     42 C           5.6695   76.6634   21.3800 C.ar    1  UNL1        0.0167
     43 C           6.2043   75.6064   22.1129 C.ar    1  UNL1        0.0563
     44 N           7.2202   74.8007   21.7575 N.ar    1  UNL1       -0.3523
     45 C           7.3590   73.9080   22.7638 C.ar    1  UNL1        0.0681
     46 C           6.4282   74.1602   23.7675 C.ar    1  UNL1       -0.0017
     47 C           5.6928   75.2444   23.3314 C.ar    1  UNL1        0.0129
     48 C           4.6108   75.9121   23.9038 C.ar    1  UNL1       -0.0007
     49 H           7.7784   74.8401   20.8757 H       1  UNL1        0.1660
     50 C           2.8618   77.7240   23.7529 C.3     1  UNL1        0.1687
     51 C           1.0805   78.2981   22.4125 C.3     1  UNL1        0.1746
     52 O           1.6988   77.2433   23.1142 O.3     1  UNL1       -0.3463
@<TRIPOS>BOND
     1    51    52    1
     2    52    50    1
     3    50    40    1
     4    40    41   ar
     5    41    42   ar
     6    42    43   ar
     7    43    44   ar
     8    44    45   ar
     9    45    46   ar
    10    46    39    1
    11    39    28    1
    12    28     1    1
    13     1     2   am
    14     2     3    2
    15     2     5    1
    16     5     6   ar
    17     6     7   ar
    18     7     8   ar
    19     8    12    1
    20    12    13    1
    21    13    14    1
    22    14    15    1
    23    15    18    1
    24    18    19   ar
    25    19    20   ar
    26    20    21   ar
    27    21    24    1
    28    24    25    1
    29    24    26    1
    30    24    27    1
    31    21    22   ar
    32    22    23   ar
    33    15    16    1
    34    16    17    1
    35     8     9   ar
    36     9    10   ar
    37    10    11    1
    38    28    29    1
    39    29    30    2
    40    29    31   am
    41    31    33    1
    42    33    34   ar
    43    34    35   ar
    44    35    36   ar
    45    36    37   ar
    46    37    38   ar
    47    46    47   ar
    48    47    48   ar
    49    48    40   ar
    50    47    43   ar
    51    10     5   ar
    52    38    33   ar
    53    17    12    1
    54    23    18   ar
    55    44    49    1
    56     1     4    1
    57    31    32    1
@<TRIPOS>MOLECULE
*****
 52 57 0 0 0
SMALL
GASTEIGER

@<TRIPOS>ATOM
      1 N           7.8636   75.1307   25.9098 N.am    1  UNL1       -0.2945
      2 C           8.9562   75.6609   26.6837 C.2     1  UNL1        0.2483
      3 O           9.2736   75.1268   27.7810 O.2     1  UNL1       -0.2701
      4 H           7.5630   75.6462   25.0525 H       1  UNL1        0.1501
      5 C           9.6954   76.8568   26.2266 C.ar    1  UNL1        0.0808
      6 C          11.0110   76.7172   25.7552 C.ar    1  UNL1        0.0080
      7 C          11.7343   77.8336   25.3287 C.ar    1  UNL1        0.0148
      8 C          11.1507   79.1099   25.3534 C.ar    1  UNL1        0.0502
      9 C           9.8311   79.2496   25.8091 C.ar    1  UNL1        0.0443
     10 C           9.1047   78.1347   26.2392 C.ar    1  UNL1        0.1457
     11 F           7.8139   78.3042   26.6223 F       1  UNL1       -0.2040
     12 N          11.8918   80.2652   24.9179 N.pl3   1  UNL1       -0.3040
     13 C          13.3573   80.2333   24.8597 C.3     1  UNL1        0.1123
     14 C          13.9352   81.5794   25.3050 C.3     1  UNL1        0.1136
     15 N          13.2321   82.6874   24.6421 N.pl3   1  UNL1       -0.2897
     16 C          11.7642   82.7018   24.6953 C.3     1  UNL1        0.1136
     17 C          11.2067   81.3604   24.2238 C.3     1  UNL1        0.1123
     18 C          13.9386   83.8675   24.2089 C.ar    1  UNL1        0.1318
     19 C          13.9750   85.0285   24.9984 C.ar    1  UNL1        0.0343
     20 C          14.6678   86.1511   24.5425 C.ar    1  UNL1        0.0083
     21 C          15.3048   86.1295   23.2928 C.ar    1  UNL1        0.0906
     22 C          15.2597   84.9444   22.5423 C.ar    1  UNL1        0.1041
     23 N          14.5811   83.8628   23.0081 N.ar    1  UNL1       -0.2292
     24 C          16.0979   87.3176   22.8111 C.3     1  UNL1        0.4200
     25 F          15.4800   88.4995   23.1815 F       1  UNL1       -0.1658
     26 F          16.2115   87.3021   21.4317 F       1  UNL1       -0.1658
     27 F          17.3624   87.2764   23.3679 F       1  UNL1       -0.1658
     28 C           7.0373   73.9830   26.3166 C.3     1  UNL1        0.1535
     29 C           6.0642   74.3539   27.4113 C.2     1  UNL1        0.2443
     30 O           5.3208   73.4735   27.9254 O.2     1  UNL1       -0.2730
     31 N           5.9259   75.7291   27.8032 N.am    1  UNL1       -0.2825
     32 H           6.2576   76.4615   27.1353 H       1  UNL1        0.1549
     33 C           5.2716   76.1599   29.0088 C.ar    1  UNL1        0.0535
     34 C           5.8752   75.9078   30.2485 C.ar    1  UNL1        0.0353
     35 C           5.2324   76.3037   31.4240 C.ar    1  UNL1        0.1002
     36 N           4.0202   76.9156   31.3656 N.ar    1  UNL1       -0.2422
     37 C           3.4009   77.1562   30.1799 C.ar    1  UNL1        0.1002
     38 C           4.0093   76.7776   28.9805 C.ar    1  UNL1        0.0353
     39 C           6.3113   73.3532   25.1094 C.3     1  UNL1        0.0569
     40 C          10.0702   74.3687   22.6359 C.ar    1  UNL1        0.0074
     41 C           9.7883   75.2621   21.5706 C.ar    1  UNL1       -0.0004
     42 C           8.4739   75.7020   21.3316 C.ar    1  UNL1        0.0167
     43 C           7.4675   75.2404   22.1768 C.ar    1  UNL1        0.0563
     44 N           6.1617   75.5580   22.1374 N.ar    1  UNL1       -0.3523
     45 C           5.5855   74.8990   23.1682 C.ar    1  UNL1        0.0681
     46 C           6.5358   74.1511   23.8574 C.ar    1  UNL1       -0.0017
     47 C           7.7350   74.3872   23.2150 C.ar    1  UNL1        0.0129
     48 C           9.0265   73.9352   23.4828 C.ar    1  UNL1       -0.0007
     49 H           5.6878   76.1984   21.4622 H       1  UNL1        0.1660
     50 C          11.4832   73.9425   22.9087 C.3     1  UNL1        0.1687
     51 C          12.2138   72.2895   21.4827 C.3     1  UNL1        0.1746
     52 O          12.1257   73.6827   21.6793 O.3     1  UNL1       -0.3463
@<TRIPOS>BOND
     1    51    52    1
     2    52    50    1
     3    50    40    1
     4    40    41   ar
     5    41    42   ar
     6    42    43   ar
     7    43    44   ar
     8    44    45   ar
     9    45    46   ar
    10    46    39    1
    11    39    28    1
    12    28     1    1
    13     1     2   am
    14     2     3    2
    15     2     5    1
    16     5     6   ar
    17     6     7   ar
    18     7     8   ar
    19     8    12    1
    20    12    13    1
    21    13    14    1
    22    14    15    1
    23    15    18    1
    24    18    19   ar
    25    19    20   ar
    26    20    21   ar
    27    21    24    1
    28    24    25    1
    29    24    26    1
    30    24    27    1
    31    21    22   ar
    32    22    23   ar
    33    15    16    1
    34    16    17    1
    35     8     9   ar
    36     9    10   ar
    37    10    11    1
    38    28    29    1
    39    29    30    2
    40    29    31   am
    41    31    33    1
    42    33    34   ar
    43    34    35   ar
    44    35    36   ar
    45    36    37   ar
    46    37    38   ar
    47    46    47   ar
    48    47    48   ar
    49    48    40   ar
    50    47    43   ar
    51    10     5   ar
    52    38    33   ar
    53    17    12    1
    54    23    18   ar
    55    44    49    1
    56     1     4    1
    57    31    32    1
@<TRIPOS>MOLECULE
*****
 52 57 0 0 0
SMALL
GASTEIGER

@<TRIPOS>ATOM
      1 N           7.6897   75.2596   25.6943 N.am    1  UNL1       -0.2945
      2 C           8.8367   75.7023   26.4439 C.2     1  UNL1        0.2483
      3 O           9.1857   75.0898   27.4895 O.2     1  UNL1       -0.2701
      4 H           7.3682   75.8379   24.8860 H       1  UNL1        0.1501
      5 C           9.5976   76.8985   26.0245 C.ar    1  UNL1        0.0808
      6 C          10.9367   76.7599   25.6242 C.ar    1  UNL1        0.0080
      7 C          11.6801   77.8767   25.2346 C.ar    1  UNL1        0.0148
      8 C          11.0942   79.1521   25.2257 C.ar    1  UNL1        0.0502
      9 C           9.7520   79.2906   25.6101 C.ar    1  UNL1        0.0443
     10 C           9.0052   78.1755   26.0031 C.ar    1  UNL1        0.1457
     11 F           7.6955   78.3438   26.3164 F       1  UNL1       -0.2040
     12 N          11.8559   80.3077   24.8280 N.pl3   1  UNL1       -0.3040
     13 C          13.3221   80.2661   24.8134 C.3     1  UNL1        0.1123
     14 C          13.8954   81.6021   25.2937 C.3     1  UNL1        0.1136
     15 N          13.2201   82.7237   24.6248 N.pl3   1  UNL1       -0.2897
     16 C          11.7514   82.7478   24.6341 C.3     1  UNL1        0.1136
     17 C          11.1993   81.4168   24.1283 C.3     1  UNL1        0.1123
     18 C          13.9472   83.9043   24.2287 C.ar    1  UNL1        0.1318
     19 C          13.9940   85.0433   25.0491 C.ar    1  UNL1        0.0343
     20 C          14.7068   86.1672   24.6288 C.ar    1  UNL1        0.0083
     21 C          15.3537   86.1693   23.3839 C.ar    1  UNL1        0.0906
     22 C          15.2976   85.0054   22.6019 C.ar    1  UNL1        0.1041
     23 N          14.5995   83.9219   23.0334 N.ar    1  UNL1       -0.2292
     24 C          16.1680   87.3579   22.9403 C.3     1  UNL1        0.4200
     25 F          17.4343   87.3176   23.4980 F       1  UNL1       -0.1658
     26 F          15.5606   88.5389   23.3303 F       1  UNL1       -0.1658
     27 F          16.2816   87.3430   21.5628 F       1  UNL1       -0.1658
     28 C           6.8413   74.1177   26.0709 C.3     1  UNL1        0.1535
     29 C           6.1227   74.3610   27.3775 C.2     1  UNL1        0.2443
     30 O           5.7482   73.3874   28.0873 O.2     1  UNL1       -0.2730
     31 N           5.7894   75.7033   27.7659 N.am    1  UNL1       -0.2825
     32 H           5.7698   76.4354   27.0201 H       1  UNL1        0.1549
     33 C           5.3862   76.0798   29.0937 C.ar    1  UNL1        0.0535
     34 C           6.2630   75.8680   30.1665 C.ar    1  UNL1        0.0353
     35 C           5.8669   76.2105   31.4616 C.ar    1  UNL1        0.1002
     36 N           4.6309   76.7314   31.6814 N.ar    1  UNL1       -0.2422
     37 C           3.7513   76.9304   30.6645 C.ar    1  UNL1        0.1002
     38 C           4.1076   76.6026   29.3538 C.ar    1  UNL1        0.0353
     39 C           5.8511   73.7537   24.9447 C.3     1  UNL1        0.0569
     40 C           4.4900   74.3856   20.5828 C.ar    1  UNL1        0.0074
     41 C           5.4990   74.0376   19.6483 C.ar    1  UNL1       -0.0004
     42 C           6.7639   73.6051   20.0856 C.ar    1  UNL1        0.0167
     43 C           6.9866   73.5224   21.4581 C.ar    1  UNL1        0.0563
     44 N           8.1061   73.1102   22.0781 N.ar    1  UNL1       -0.3523
     45 C           7.8426   73.1683   23.4033 C.ar    1  UNL1        0.0681
     46 C           6.5480   73.6314   23.6203 C.ar    1  UNL1       -0.0017
     47 C           6.0122   73.8452   22.3659 C.ar    1  UNL1        0.0129
     48 C           4.7466   74.2730   21.9669 C.ar    1  UNL1       -0.0007
     49 H           8.9940   72.7903   21.6311 H       1  UNL1        0.1660
     50 C           3.1299   74.8021   20.1038 C.3     1  UNL1        0.1687
     51 C           3.0575   76.3633   18.4136 C.3     1  UNL1        0.1746
     52 O           3.1772   74.9894   18.7059 O.3     1  UNL1       -0.3463
@<TRIPOS>BOND
     1    51    52    1
     2    52    50    1
     3    50    40    1
     4    40    41   ar
     5    41    42   ar
     6    42    43   ar
     7    43    44   ar
     8    44    45   ar
     9    45    46   ar
    10    46    39    1
    11    39    28    1
    12    28     1    1
    13     1     2   am
    14     2     3    2
    15     2     5    1
    16     5     6   ar
    17     6     7   ar
    18     7     8   ar
    19     8    12    1
    20    12    13    1
    21    13    14    1
    22    14    15    1
    23    15    18    1
    24    18    19   ar
    25    19    20   ar
    26    20    21   ar
    27    21    24    1
    28    24    25    1
    29    24    26    1
    30    24    27    1
    31    21    22   ar
    32    22    23   ar
    33    15    16    1
    34    16    17    1
    35     8     9   ar
    36     9    10   ar
    37    10    11    1
    38    28    29    1
    39    29    30    2
    40    29    31   am
    41    31    33    1
    42    33    34   ar
    43    34    35   ar
    44    35    36   ar
    45    36    37   ar
    46    37    38   ar
    47    46    47   ar
    48    47    48   ar
    49    48    40   ar
    50    47    43   ar
    51    10     5   ar
    52    38    33   ar
    53    17    12    1
    54    23    18   ar
    55    44    49    1
    56     1     4    1
    57    31    32    1
@<TRIPOS>MOLECULE
*****
 52 57 0 0 0
SMALL
GASTEIGER

@<TRIPOS>ATOM
      1 N           9.9617   76.7239   26.2491 N.am    1  UNL1       -0.2945
      2 C           9.9288   75.8758   25.0858 C.2     1  UNL1        0.2483
      3 O          10.9965   75.3839   24.6295 O.2     1  UNL1       -0.2701
      4 H           9.0778   77.1916   26.5509 H       1  UNL1        0.1501
      5 C           8.6552   75.6001   24.3877 C.ar    1  UNL1        0.0808
      6 C           8.5614   75.8305   23.0054 C.ar    1  UNL1        0.0080
      7 C           7.3653   75.5887   22.3252 C.ar    1  UNL1        0.0148
      8 C           6.2436   75.0995   23.0127 C.ar    1  UNL1        0.0502
      9 C           6.3398   74.8537   24.3906 C.ar    1  UNL1        0.0443
     10 C           7.5345   75.0968   25.0755 C.ar    1  UNL1        0.1457
     11 F           7.6028   74.7959   26.3970 F       1  UNL1       -0.2040
     12 N           5.0070   74.8510   22.3179 N.pl3   1  UNL1       -0.3040
     13 C           4.8639   73.6812   21.4444 C.3     1  UNL1        0.1123
     14 C           4.0405   74.0423   20.2051 C.3     1  UNL1        0.1136
     15 N           2.8294   74.7826   20.5880 N.pl3   1  UNL1       -0.2897
     16 C           2.9833   75.9441   21.4739 C.3     1  UNL1        0.1136
     17 C           3.7848   75.5576   22.7151 C.3     1  UNL1        0.1123
     18 C           1.5780   74.5730   19.9028 C.ar    1  UNL1        0.1318
     19 C           0.9007   75.6328   19.2775 C.ar    1  UNL1        0.0343
     20 C          -0.3096   75.3892   18.6265 C.ar    1  UNL1        0.0083
     21 C          -0.8596   74.0987   18.6160 C.ar    1  UNL1        0.0906
     22 C          -0.1432   73.0640   19.2371 C.ar    1  UNL1        0.1041
     23 N           1.0351   73.3247   19.8625 N.ar    1  UNL1       -0.2292
     24 C          -2.1404   73.8126   17.8743 C.3     1  UNL1        0.4200
     25 F          -3.1533   74.6501   18.3084 F       1  UNL1       -0.1658
     26 F          -2.5423   72.5042   18.0805 F       1  UNL1       -0.1658
     27 F          -1.9377   74.0139   16.5219 F       1  UNL1       -0.1658
     28 C          11.1889   77.0984   26.9698 C.3     1  UNL1        0.1535
     29 C          12.0798   77.9874   26.1338 C.2     1  UNL1        0.2443
     30 O          11.9295   79.2399   26.1577 O.2     1  UNL1       -0.2730
     31 N          13.0405   77.3959   25.2445 N.am    1  UNL1       -0.2825
     32 H          12.8979   76.3983   24.9672 H       1  UNL1        0.1549
     33 C          14.1253   78.1180   24.6369 C.ar    1  UNL1        0.0535
     34 C          14.8151   77.5469   23.5587 C.ar    1  UNL1        0.0353
     35 C          15.8848   78.2342   22.9798 C.ar    1  UNL1        0.1002
     36 N          16.2644   79.4433   23.4710 N.ar    1  UNL1       -0.2422
     37 C          15.6278   80.0139   24.5277 C.ar    1  UNL1        0.1002
     38 C          14.5523   79.3609   25.1353 C.ar    1  UNL1        0.0353
     39 C          10.8682   77.7469   28.3328 C.3     1  UNL1        0.0569
     40 C           6.7277   76.0790   29.4957 C.ar    1  UNL1        0.0074
     41 C           5.6827   77.0022   29.2344 C.ar    1  UNL1       -0.0004
     42 C           5.9666   78.2821   28.7249 C.ar    1  UNL1        0.0167
     43 C           7.2989   78.6058   28.4791 C.ar    1  UNL1        0.0563
     44 N           7.7775   79.7554   27.9720 N.ar    1  UNL1       -0.3523
     45 C           9.1174   79.5954   27.8830 C.ar    1  UNL1        0.0681
     46 C           9.4874   78.3367   28.3480 C.ar    1  UNL1       -0.0017
     47 C           8.3117   77.7143   28.7176 C.ar    1  UNL1        0.0129
     48 C           8.0654   76.4364   29.2180 C.ar    1  UNL1       -0.0007
     49 H           7.2281   80.5959   27.6852 H       1  UNL1        0.1660
     50 C           6.4083   74.7006   29.9963 C.3     1  UNL1        0.1687
     51 C           4.5936   73.5430   29.1800 C.3     1  UNL1        0.1746
     52 O           5.9251   73.9260   28.9200 O.3     1  UNL1       -0.3463
@<TRIPOS>BOND
     1    51    52    1
     2    52    50    1
     3    50    40    1
     4    40    41   ar
     5    41    42   ar
     6    42    43   ar
     7    43    44   ar
     8    44    45   ar
     9    45    46   ar
    10    46    39    1
    11    39    28    1
    12    28     1    1
    13     1     2   am
    14     2     3    2
    15     2     5    1
    16     5     6   ar
    17     6     7   ar
    18     7     8   ar
    19     8    12    1
    20    12    13    1
    21    13    14    1
    22    14    15    1
    23    15    18    1
    24    18    19   ar
    25    19    20   ar
    26    20    21   ar
    27    21    24    1
    28    24    25    1
    29    24    26    1
    30    24    27    1
    31    21    22   ar
    32    22    23   ar
    33    15    16    1
    34    16    17    1
    35     8     9   ar
    36     9    10   ar
    37    10    11    1
    38    28    29    1
    39    29    30    2
    40    29    31   am
    41    31    33    1
    42    33    34   ar
    43    34    35   ar
    44    35    36   ar
    45    36    37   ar
    46    37    38   ar
    47    46    47   ar
    48    47    48   ar
    49    48    40   ar
    50    47    43   ar
    51    10     5   ar
    52    38    33   ar
    53    17    12    1
    54    23    18   ar
    55    44    49    1
    56     1     4    1
    57    31    32    1
@<TRIPOS>MOLECULE
*****
 52 57 0 0 0
SMALL
GASTEIGER

@<TRIPOS>ATOM
      1 N          12.5931   84.0578   24.1534 N.am    1  UNL1       -0.2945
      2 C          13.1195   82.7500   24.4467 C.2     1  UNL1        0.2483
      3 O          14.3456   82.5077   24.2787 O.2     1  UNL1       -0.2701
      4 H          11.5608   84.2052   24.2131 H       1  UNL1        0.1501
      5 C          12.2298   81.6641   24.9104 C.ar    1  UNL1        0.0808
      6 C          10.9091   81.9646   25.2818 C.ar    1  UNL1        0.0080
      7 C          10.0526   80.9579   25.7341 C.ar    1  UNL1        0.0148
      8 C          10.4972   79.6287   25.8115 C.ar    1  UNL1        0.0502
      9 C          11.8112   79.3238   25.4260 C.ar    1  UNL1        0.0443
     10 C          12.6724   80.3291   24.9750 C.ar    1  UNL1        0.1457
     11 F          13.9182   79.9850   24.5613 F       1  UNL1       -0.2040
     12 N           9.6202   78.5869   26.2797 N.pl3   1  UNL1       -0.3040
     13 C           8.9592   77.6851   25.3301 C.3     1  UNL1        0.1123
     14 C           7.5337   77.3768   25.7959 C.3     1  UNL1        0.1136
     15 N           7.5225   77.0217   27.2225 N.pl3   1  UNL1       -0.2897
     16 C           8.1992   77.9251   28.1625 C.3     1  UNL1        0.1136
     17 C           9.6265   78.2001   27.6943 C.3     1  UNL1        0.1123
     18 C           6.6447   75.9963   27.7301 C.ar    1  UNL1        0.1318
     19 C           5.5354   76.3145   28.5306 C.ar    1  UNL1        0.0343
     20 C           4.7111   75.2928   29.0044 C.ar    1  UNL1        0.0083
     21 C           5.0009   73.9536   28.7034 C.ar    1  UNL1        0.0906
     22 C           6.1083   73.6789   27.8862 C.ar    1  UNL1        0.1041
     23 N           6.8950   74.6908   27.4341 N.ar    1  UNL1       -0.2292
     24 C           4.0909   72.8448   29.1672 C.3     1  UNL1        0.4200
     25 F           4.4977   71.6290   28.6453 F       1  UNL1       -0.1658
     26 F           2.7893   73.0779   28.7578 F       1  UNL1       -0.1658
     27 F           4.1239   72.7764   30.5473 F       1  UNL1       -0.1658
     28 C          13.3932   85.1778   23.6328 C.3     1  UNL1        0.1535
     29 C          13.4961   86.3051   24.6335 C.2     1  UNL1        0.2443
     30 O          12.7362   87.3081   24.5408 O.2     1  UNL1       -0.2730
     31 N          14.5218   86.2714   25.6388 N.am    1  UNL1       -0.2825
     32 H          15.3450   85.6488   25.4739 H       1  UNL1        0.1549
     33 C          14.5331   87.1126   26.8048 C.ar    1  UNL1        0.0535
     34 C          15.1463   88.3713   26.7409 C.ar    1  UNL1        0.0353
     35 C          15.1804   89.1827   27.8776 C.ar    1  UNL1        0.1002
     36 N          14.6357   88.7461   29.0437 N.ar    1  UNL1       -0.2422
     37 C          14.0515   87.5228   29.1423 C.ar    1  UNL1        0.1002
     38 C          13.9949   86.6802   28.0292 C.ar    1  UNL1        0.0353
     39 C          14.7885   84.7085   23.1701 C.3     1  UNL1        0.0569
     40 C          17.5411   88.4081   23.2912 C.ar    1  UNL1        0.0074
     41 C          17.7061   88.9984   22.0118 C.ar    1  UNL1       -0.0004
     42 C          17.1051   88.4278   20.8753 C.ar    1  UNL1        0.0167
     43 C          16.3404   87.2768   21.0500 C.ar    1  UNL1        0.0563
     44 N          15.6657   86.5964   20.1069 N.ar    1  UNL1       -0.3523
     45 C          15.0492   85.5785   20.7494 C.ar    1  UNL1        0.0681
     46 C          15.3468   85.6121   22.1087 C.ar    1  UNL1       -0.0017
     47 C          16.1669   86.7088   22.2849 C.ar    1  UNL1        0.0129
     48 C          16.7445   87.2506   23.4324 C.ar    1  UNL1       -0.0007
     49 H          15.6099   86.8170   19.0877 H       1  UNL1        0.1660
     50 C          18.1497   89.0519   24.5027 C.3     1  UNL1        0.1687
     51 C          18.8591   88.6544   26.6564 C.3     1  UNL1        0.1746
     52 O          18.4363   88.0504   25.4548 O.3     1  UNL1       -0.3463
@<TRIPOS>BOND
     1    51    52    1
     2    52    50    1
     3    50    40    1
     4    40    41   ar
     5    41    42   ar
     6    42    43   ar
     7    43    44   ar
     8    44    45   ar
     9    45    46   ar
    10    46    39    1
    11    39    28    1
    12    28     1    1
    13     1     2   am
    14     2     3    2
    15     2     5    1
    16     5     6   ar
    17     6     7   ar
    18     7     8   ar
    19     8    12    1
    20    12    13    1
    21    13    14    1
    22    14    15    1
    23    15    18    1
    24    18    19   ar
    25    19    20   ar
    26    20    21   ar
    27    21    24    1
    28    24    25    1
    29    24    26    1
    30    24    27    1
    31    21    22   ar
    32    22    23   ar
    33    15    16    1
    34    16    17    1
    35     8     9   ar
    36     9    10   ar
    37    10    11    1
    38    28    29    1
    39    29    30    2
    40    29    31   am
    41    31    33    1
    42    33    34   ar
    43    34    35   ar
    44    35    36   ar
    45    36    37   ar
    46    37    38   ar
    47    46    47   ar
    48    47    48   ar
    49    48    40   ar
    50    47    43   ar
    51    10     5   ar
    52    38    33   ar
    53    17    12    1
    54    23    18   ar
    55    44    49    1
    56     1     4    1
    57    31    32    1
@<TRIPOS>MOLECULE
*****
 52 57 0 0 0
SMALL
GASTEIGER

@<TRIPOS>ATOM
      1 N          10.1494   76.1586   25.8347 N.am    1  UNL1       -0.2945
      2 C          10.1193   75.4973   24.5558 C.2     1  UNL1        0.2483
      3 O          11.1854   75.0617   24.0421 O.2     1  UNL1       -0.2701
      4 H           9.2688   76.5905   26.1941 H       1  UNL1        0.1501
      5 C           8.8512   75.3529   23.8097 C.ar    1  UNL1        0.0808
      6 C           8.8086   75.6931   22.4478 C.ar    1  UNL1        0.0080
      7 C           7.6195   75.5764   21.7240 C.ar    1  UNL1        0.0148
      8 C           6.4528   75.1047   22.3458 C.ar    1  UNL1        0.0502
      9 C           6.4970   74.7493   23.7023 C.ar    1  UNL1        0.0443
     10 C           7.6848   74.8671   24.4309 C.ar    1  UNL1        0.1457
     11 F           7.6994   74.4629   25.7263 F       1  UNL1       -0.2040
     12 N           5.2232   74.9848   21.6060 N.pl3   1  UNL1       -0.3040
     13 C           4.3631   76.1540   21.3935 C.3     1  UNL1        0.1123
     14 C           2.8888   75.7524   21.4903 C.3     1  UNL1        0.1136
     15 N           2.6311   74.5405   20.6990 N.pl3   1  UNL1       -0.2897
     16 C           3.5070   73.3805   20.9104 C.3     1  UNL1        0.1136
     17 C           4.9712   73.7961   20.7849 C.3     1  UNL1        0.1123
     18 C           1.4033   74.3780   19.9603 C.ar    1  UNL1        0.1318
     19 C           0.7617   75.4733   19.3591 C.ar    1  UNL1        0.0343
     20 C          -0.4266   75.2748   18.6545 C.ar    1  UNL1        0.0083
     21 C          -0.9907   73.9934   18.5663 C.ar    1  UNL1        0.0906
     22 C          -0.3096   72.9228   19.1658 C.ar    1  UNL1        0.1041
     23 N           0.8479   73.1400   19.8444 N.ar    1  UNL1       -0.2292
     24 C          -2.2467   73.7573   17.7667 C.3     1  UNL1        0.4200
     25 F          -2.7693   72.5044   18.0373 F       1  UNL1       -0.1658
     26 F          -1.9832   73.8327   16.4099 F       1  UNL1       -0.1658
     27 F          -3.1841   74.7177   18.0977 F       1  UNL1       -0.1658
     28 C          11.3722   76.3982   26.6175 C.3     1  UNL1        0.1535
     29 C          12.2064   77.5107   26.0265 C.2     1  UNL1        0.2443
     30 O          12.0757   78.6937   26.4452 O.2     1  UNL1       -0.2730
     31 N          13.0855   77.2314   24.9251 N.am    1  UNL1       -0.2825
     32 H          12.9077   76.3654   24.3675 H       1  UNL1        0.1549
     33 C          14.1287   78.1171   24.4841 C.ar    1  UNL1        0.0535
     34 C          14.9891   77.7104   23.4551 C.ar    1  UNL1        0.0353
     35 C          16.0187   78.5579   23.0388 C.ar    1  UNL1        0.1002
     36 N          16.1946   79.7639   23.6404 N.ar    1  UNL1       -0.2422
     37 C          15.3890   80.1779   24.6537 C.ar    1  UNL1        0.1002
     38 C          14.3465   79.3617   25.1000 C.ar    1  UNL1        0.0353
     39 C          11.0492   76.6665   28.1024 C.3     1  UNL1        0.0569
     40 C           6.4930   76.3335   28.7417 C.ar    1  UNL1        0.0074
     41 C           6.1313   75.1467   29.4295 C.ar    1  UNL1       -0.0004
     42 C           7.1082   74.2033   29.7956 C.ar    1  UNL1        0.0167
     43 C           8.4344   74.4773   29.4696 C.ar    1  UNL1        0.0563
     44 N           9.5139   73.7265   29.7503 N.ar    1  UNL1       -0.3523
     45 C          10.5786   74.4087   29.2707 C.ar    1  UNL1        0.0681
     46 C          10.1647   75.5957   28.6732 C.ar    1  UNL1       -0.0017
     47 C           8.7918   75.6276   28.8164 C.ar    1  UNL1        0.0129
     48 C           7.8501   76.5855   28.4430 C.ar    1  UNL1       -0.0007
     49 H           9.5330   72.8117   30.2535 H       1  UNL1        0.1660
     50 C           5.4474   77.3536   28.3969 C.3     1  UNL1        0.1687
     51 C           4.4815   76.8739   26.3631 C.3     1  UNL1        0.1746
     52 O           4.3702   76.7033   27.7580 O.3     1  UNL1       -0.3463
@<TRIPOS>BOND
     1    51    52    1
     2    52    50    1
     3    50    40    1
     4    40    41   ar
     5    41    42   ar
     6    42    43   ar
     7    43    44   ar
     8    44    45   ar
     9    45    46   ar
    10    46    39    1
    11    39    28    1
    12    28     1    1
    13     1     2   am
    14     2     3    2
    15     2     5    1
    16     5     6   ar
    17     6     7   ar
    18     7     8   ar
    19     8    12    1
    20    12    13    1
    21    13    14    1
    22    14    15    1
    23    15    18    1
    24    18    19   ar
    25    19    20   ar
    26    20    21   ar
    27    21    24    1
    28    24    25    1
    29    24    26    1
    30    24    27    1
    31    21    22   ar
    32    22    23   ar
    33    15    16    1
    34    16    17    1
    35     8     9   ar
    36     9    10   ar
    37    10    11    1
    38    28    29    1
    39    29    30    2
    40    29    31   am
    41    31    33    1
    42    33    34   ar
    43    34    35   ar
    44    35    36   ar
    45    36    37   ar
    46    37    38   ar
    47    46    47   ar
    48    47    48   ar
    49    48    40   ar
    50    47    43   ar
    51    10     5   ar
    52    38    33   ar
    53    17    12    1
    54    23    18   ar
    55    44    49    1
    56     1     4    1
    57    31    32    1
@<TRIPOS>MOLECULE
*****
 52 57 0 0 0
SMALL
GASTEIGER

@<TRIPOS>ATOM
      1 N          13.1446   83.8444   24.2597 N.am    1  UNL1       -0.2945
      2 C          13.5080   82.4736   24.5099 C.2     1  UNL1        0.2483
      3 O          14.6973   82.0915   24.3376 O.2     1  UNL1       -0.2701
      4 H          12.1370   84.1128   24.3211 H       1  UNL1        0.1501
      5 C          12.4910   81.4878   24.9335 C.ar    1  UNL1        0.0808
      6 C          11.2285   81.9358   25.3555 C.ar    1  UNL1        0.0080
      7 C          10.2547   81.0246   25.7714 C.ar    1  UNL1        0.0148
      8 C          10.5209   79.6464   25.7612 C.ar    1  UNL1        0.0502
      9 C          11.7759   79.1957   25.3251 C.ar    1  UNL1        0.0443
     10 C          12.7542   80.1048   24.9102 C.ar    1  UNL1        0.1457
     11 F          13.9359   79.6261   24.4455 F       1  UNL1       -0.2040
     12 N           9.5224   78.7022   26.1915 N.pl3   1  UNL1       -0.3040
     13 C           8.4757   79.1023   27.1381 C.3     1  UNL1        0.1123
     14 C           8.1834   77.9630   28.1183 C.3     1  UNL1        0.1136
     15 N           8.0274   76.6906   27.3987 N.pl3   1  UNL1       -0.2897
     16 C           9.0749   76.3066   26.4433 C.3     1  UNL1        0.1136
     17 C           9.3339   77.4455   25.4594 C.3     1  UNL1        0.1123
     18 C           7.0506   75.7136   27.8122 C.ar    1  UNL1        0.1318
     19 C           6.7262   74.6152   26.9992 C.ar    1  UNL1        0.0343
     20 C           5.7735   73.6927   27.4342 C.ar    1  UNL1        0.0083
     21 C           5.1256   73.8728   28.6654 C.ar    1  UNL1        0.0906
     22 C           5.4907   74.9735   29.4558 C.ar    1  UNL1        0.1041
     23 N           6.4234   75.8572   29.0124 N.ar    1  UNL1       -0.2292
     24 C           4.1315   72.8576   29.1692 C.3     1  UNL1        0.4200
     25 F           4.4621   71.5889   28.7254 F       1  UNL1       -0.1658
     26 F           2.8575   73.1559   28.7175 F       1  UNL1       -0.1658
     27 F           4.1331   72.8662   30.5514 F       1  UNL1       -0.1658
     28 C          14.0771   84.8768   23.7800 C.3     1  UNL1        0.1535
     29 C          13.8587   85.1933   22.3189 C.2     1  UNL1        0.2443
     30 O          13.0994   86.1428   21.9813 O.2     1  UNL1       -0.2730
     31 N          14.4491   84.3535   21.3140 N.am    1  UNL1       -0.2825
     32 H          14.7481   83.3926   21.5964 H       1  UNL1        0.1549
     33 C          14.5621   84.7164   19.9273 C.ar    1  UNL1        0.0535
     34 C          15.3966   83.9690   19.0850 C.ar    1  UNL1        0.0353
     35 C          15.5279   84.3316   17.7422 C.ar    1  UNL1        0.1002
     36 N          14.8620   85.4138   17.2599 N.ar    1  UNL1       -0.2422
     37 C          14.0609   86.1697   18.0563 C.ar    1  UNL1        0.1002
     38 C          13.9008   85.8413   19.4049 C.ar    1  UNL1        0.0353
     39 C          14.0046   86.1509   24.6476 C.3     1  UNL1        0.0569
     40 C          15.9562   88.9364   27.7637 C.ar    1  UNL1        0.0074
     41 C          17.2141   89.4299   27.3316 C.ar    1  UNL1       -0.0004
     42 C          17.7586   89.0260   26.0992 C.ar    1  UNL1        0.0167
     43 C          17.0209   88.1382   25.3196 C.ar    1  UNL1        0.0563
     44 N          17.3464   87.6536   24.1084 N.ar    1  UNL1       -0.3523
     45 C          16.3160   86.8622   23.7332 C.ar    1  UNL1        0.0681
     46 C          15.3366   86.8400   24.7220 C.ar    1  UNL1       -0.0017
     47 C          15.7997   87.6676   25.7256 C.ar    1  UNL1        0.0129
     48 C          15.2290   88.0507   26.9386 C.ar    1  UNL1       -0.0007
     49 H          18.2091   87.8594   23.5572 H       1  UNL1        0.1660
     50 C          15.3652   89.4101   29.0595 C.3     1  UNL1        0.1687
     51 C          13.2562   88.9065   29.8330 C.3     1  UNL1        0.1746
     52 O          14.5442   88.3897   29.5853 O.3     1  UNL1       -0.3463
@<TRIPOS>BOND
     1    51    52    1
     2    52    50    1
     3    50    40    1
     4    40    41   ar
     5    41    42   ar
     6    42    43   ar
     7    43    44   ar
     8    44    45   ar
     9    45    46   ar
    10    46    39    1
    11    39    28    1
    12    28     1    1
    13     1     2   am
    14     2     3    2
    15     2     5    1
    16     5     6   ar
    17     6     7   ar
    18     7     8   ar
    19     8    12    1
    20    12    13    1
    21    13    14    1
    22    14    15    1
    23    15    18    1
    24    18    19   ar
    25    19    20   ar
    26    20    21   ar
    27    21    24    1
    28    24    25    1
    29    24    26    1
    30    24    27    1
    31    21    22   ar
    32    22    23   ar
    33    15    16    1
    34    16    17    1
    35     8     9   ar
    36     9    10   ar
    37    10    11    1
    38    28    29    1
    39    29    30    2
    40    29    31   am
    41    31    33    1
    42    33    34   ar
    43    34    35   ar
    44    35    36   ar
    45    36    37   ar
    46    37    38   ar
    47    46    47   ar
    48    47    48   ar
    49    48    40   ar
    50    47    43   ar
    51    10     5   ar
    52    38    33   ar
    53    17    12    1
    54    23    18   ar
    55    44    49    1
    56     1     4    1
    57    31    32    1
@<TRIPOS>MOLECULE
*****
 52 57 0 0 0
SMALL
GASTEIGER

@<TRIPOS>ATOM
      1 N          10.1334   75.5628   26.2108 N.am    1  UNL1       -0.2945
      2 C           9.9722   75.8304   24.8050 C.2     1  UNL1        0.2483
      3 O          10.9276   76.3122   24.1377 O.2     1  UNL1       -0.2701
      4 H           9.3002   75.2513   26.7583 H       1  UNL1        0.1501
      5 C           8.6793   75.5826   24.1323 C.ar    1  UNL1        0.0808
      6 C           8.5456   74.4744   23.2799 C.ar    1  UNL1        0.0080
      7 C           7.3377   74.2255   22.6237 C.ar    1  UNL1        0.0148
      8 C           6.2361   75.0735   22.8176 C.ar    1  UNL1        0.0502
      9 C           6.3626   76.1721   23.6809 C.ar    1  UNL1        0.0443
     10 C           7.5708   76.4261   24.3377 C.ar    1  UNL1        0.1457
     11 F           7.6364   77.4676   25.2052 F       1  UNL1       -0.2040
     12 N           4.9891   74.8241   22.1419 N.pl3   1  UNL1       -0.3040
     13 C           4.8538   73.6916   21.2193 C.3     1  UNL1        0.1123
     14 C           3.9908   74.0865   20.0179 C.3     1  UNL1        0.1136
     15 N           2.7713   74.7765   20.4631 N.pl3   1  UNL1       -0.2897
     16 C           2.9180   75.9005   21.3974 C.3     1  UNL1        0.1136
     17 C           3.7598   75.4796   22.6000 C.3     1  UNL1        0.1123
     18 C           1.5089   74.5652   19.7990 C.ar    1  UNL1        0.1318
     19 C           0.8345   75.6180   19.1591 C.ar    1  UNL1        0.0343
     20 C          -0.3868   75.3731   18.5294 C.ar    1  UNL1        0.0083
     21 C          -0.9503   74.0886   18.5549 C.ar    1  UNL1        0.0906
     22 C          -0.2366   73.0603   19.1896 C.ar    1  UNL1        0.1041
     23 N           0.9525   73.3222   19.7937 N.ar    1  UNL1       -0.2292
     24 C          -2.2437   73.7998   17.8364 C.3     1  UNL1        0.4200
     25 F          -2.0797   73.9231   16.4675 F       1  UNL1       -0.1658
     26 F          -3.2317   74.6833   18.2354 F       1  UNL1       -0.1658
     27 F          -2.6478   72.5104   18.1275 F       1  UNL1       -0.1658
     28 C          11.3630   75.8339   26.9724 C.3     1  UNL1        0.1535
     29 C          11.8833   77.2294   26.7175 C.2     1  UNL1        0.2443
     30 O          13.1084   77.4885   26.8721 O.2     1  UNL1       -0.2730
     31 N          10.9630   78.2808   26.3838 N.am    1  UNL1       -0.2825
     32 H           9.9551   78.1395   26.6216 H       1  UNL1        0.1549
     33 C          11.3569   79.5505   25.8360 C.ar    1  UNL1        0.0535
     34 C          10.4466   80.6163   25.8426 C.ar    1  UNL1        0.0353
     35 C          10.8163   81.8452   25.2905 C.ar    1  UNL1        0.1002
     36 N          12.0470   82.0007   24.7353 N.ar    1  UNL1       -0.2422
     37 C          12.9443   80.9806   24.6964 C.ar    1  UNL1        0.1002
     38 C          12.6155   79.7354   25.2383 C.ar    1  UNL1        0.0353
     39 C          11.1620   75.5762   28.4805 C.3     1  UNL1        0.0569
     40 C           8.9508   79.1684   30.3472 C.ar    1  UNL1        0.0074
     41 C           7.6002   78.8663   30.6589 C.ar    1  UNL1       -0.0004
     42 C           7.0582   77.6047   30.3538 C.ar    1  UNL1        0.0167
     43 C           7.8902   76.6664   29.7477 C.ar    1  UNL1        0.0563
     44 N           7.5789   75.4050   29.4016 N.ar    1  UNL1       -0.3523
     45 C           8.7073   74.8708   28.8817 C.ar    1  UNL1        0.0681
     46 C           9.7364   75.8079   28.8910 C.ar    1  UNL1       -0.0017
     47 C           9.1990   76.9477   29.4554 C.ar    1  UNL1        0.0129
     48 C           9.7693   78.1859   29.7482 C.ar    1  UNL1       -0.0007
     49 H           6.6598   74.9250   29.5254 H       1  UNL1        0.1660
     50 C           9.5302   80.5021   30.7190 C.3     1  UNL1        0.1687
     51 C           9.0790   82.2713   32.1211 C.3     1  UNL1        0.1746
     52 O           9.0497   80.8676   31.9946 O.3     1  UNL1       -0.3463
@<TRIPOS>BOND
     1    51    52    1
     2    52    50    1
     3    50    40    1
     4    40    41   ar
     5    41    42   ar
     6    42    43   ar
     7    43    44   ar
     8    44    45   ar
     9    45    46   ar
    10    46    39    1
    11    39    28    1
    12    28     1    1
    13     1     2   am
    14     2     3    2
    15     2     5    1
    16     5     6   ar
    17     6     7   ar
    18     7     8   ar
    19     8    12    1
    20    12    13    1
    21    13    14    1
    22    14    15    1
    23    15    18    1
    24    18    19   ar
    25    19    20   ar
    26    20    21   ar
    27    21    24    1
    28    24    25    1
    29    24    26    1
    30    24    27    1
    31    21    22   ar
    32    22    23   ar
    33    15    16    1
    34    16    17    1
    35     8     9   ar
    36     9    10   ar
    37    10    11    1
    38    28    29    1
    39    29    30    2
    40    29    31   am
    41    31    33    1
    42    33    34   ar
    43    34    35   ar
    44    35    36   ar
    45    36    37   ar
    46    37    38   ar
    47    46    47   ar
    48    47    48   ar
    49    48    40   ar
    50    47    43   ar
    51    10     5   ar
    52    38    33   ar
    53    17    12    1
    54    23    18   ar
    55    44    49    1
    56     1     4    1
    57    31    32    1
@<TRIPOS>MOLECULE
*****
 52 57 0 0 0
SMALL
GASTEIGER

@<TRIPOS>ATOM
      1 N           9.4663   77.5475   26.8204 N.am    1  UNL1       -0.2945
      2 C           9.5819   77.0130   25.4883 C.2     1  UNL1        0.2483
      3 O          10.7098   76.9434   24.9287 O.2     1  UNL1       -0.2701
      4 H           8.5121   77.6792   27.2243 H       1  UNL1        0.1501
      5 C           8.3823   76.5750   24.7433 C.ar    1  UNL1        0.0808
      6 C           8.0728   77.1812   23.5148 C.ar    1  UNL1        0.0080
      7 C           6.9386   76.7929   22.7977 C.ar    1  UNL1        0.0148
      8 C           6.0988   75.7815   23.2898 C.ar    1  UNL1        0.0502
      9 C           6.4147   75.1637   24.5091 C.ar    1  UNL1        0.0443
     10 C           7.5479   75.5512   25.2312 C.ar    1  UNL1        0.1457
     11 F           7.8478   74.8928   26.3792 F       1  UNL1       -0.2040
     12 N           4.9266   75.3787   22.5569 N.pl3   1  UNL1       -0.3040
     13 C           4.9430   74.1667   21.7305 C.3     1  UNL1        0.1123
     14 C           4.1437   74.3911   20.4440 C.3     1  UNL1        0.1136
     15 N           2.8474   75.0163   20.7444 N.pl3   1  UNL1       -0.2897
     16 C           2.8420   76.2216   21.5839 C.3     1  UNL1        0.1136
     17 C           3.6221   75.9698   22.8725 C.3     1  UNL1        0.1123
     18 C           1.6560   74.6509   20.0187 C.ar    1  UNL1        0.1318
     19 C           0.9611   75.5875   19.2359 C.ar    1  UNL1        0.0343
     20 C          -0.1895   75.1951   18.5505 C.ar    1  UNL1        0.0083
     21 C          -0.6639   73.8794   18.6603 C.ar    1  UNL1        0.0906
     22 C           0.0689   72.9697   19.4382 C.ar    1  UNL1        0.1041
     23 N           1.1883   73.3742   20.0945 N.ar    1  UNL1       -0.2292
     24 C          -1.8766   73.4299   17.8859 C.3     1  UNL1        0.4200
     25 F          -2.0351   72.0581   17.9802 F       1  UNL1       -0.1658
     26 F          -1.7514   73.7603   16.5476 F       1  UNL1       -0.1658
     27 F          -3.0001   74.0498   18.3999 F       1  UNL1       -0.1658
     28 C          10.5968   78.0603   27.6108 C.3     1  UNL1        0.1535
     29 C          10.2552   79.3624   28.2969 C.2     1  UNL1        0.2443
     30 O           9.7590   80.3167   27.6373 O.2     1  UNL1       -0.2730
     31 N          10.5792   79.5404   29.6851 N.am    1  UNL1       -0.2825
     32 H          11.3014   78.9097   30.1014 H       1  UNL1        0.1549
     33 C          10.0459   80.5927   30.5069 C.ar    1  UNL1        0.0535
     34 C           9.2476   80.2669   31.6120 C.ar    1  UNL1        0.0353
     35 C           8.7079   81.2863   32.4001 C.ar    1  UNL1        0.1002
     36 N           8.9428   82.5877   32.0863 N.ar    1  UNL1       -0.2422
     37 C           9.6964   82.9355   31.0100 C.ar    1  UNL1        0.1002
     38 C          10.2560   81.9473   30.1961 C.ar    1  UNL1        0.0353
     39 C          11.1031   77.0092   28.6208 C.3     1  UNL1        0.0569
     40 C           6.9400   76.7168   30.5859 C.ar    1  UNL1        0.0074
     41 C           6.4353   75.3909   30.5829 C.ar    1  UNL1       -0.0004
     42 C           7.1625   74.3476   29.9820 C.ar    1  UNL1        0.0167
     43 C           8.3904   74.6577   29.4023 C.ar    1  UNL1        0.0563
     44 N           9.2465   73.8099   28.8055 N.ar    1  UNL1       -0.3523
     45 C          10.3105   74.5556   28.4303 C.ar    1  UNL1        0.0681
     46 C          10.1182   75.8878   28.7851 C.ar    1  UNL1       -0.0017
     47 C           8.8892   75.9339   29.4127 C.ar    1  UNL1        0.0129
     48 C           8.1970   76.9903   30.0032 C.ar    1  UNL1       -0.0007
     49 H           9.1272   72.7808   28.6740 H       1  UNL1        0.1660
     50 C           6.1762   77.8128   31.2700 C.3     1  UNL1        0.1687
     51 C           4.1457   77.8050   30.1854 C.3     1  UNL1        0.1746
     52 O           4.8207   77.4319   31.3655 O.3     1  UNL1       -0.3463
@<TRIPOS>BOND
     1    51    52    1
     2    52    50    1
     3    50    40    1
     4    40    41   ar
     5    41    42   ar
     6    42    43   ar
     7    43    44   ar
     8    44    45   ar
     9    45    46   ar
    10    46    39    1
    11    39    28    1
    12    28     1    1
    13     1     2   am
    14     2     3    2
    15     2     5    1
    16     5     6   ar
    17     6     7   ar
    18     7     8   ar
    19     8    12    1
    20    12    13    1
    21    13    14    1
    22    14    15    1
    23    15    18    1
    24    18    19   ar
    25    19    20   ar
    26    20    21   ar
    27    21    24    1
    28    24    25    1
    29    24    26    1
    30    24    27    1
    31    21    22   ar
    32    22    23   ar
    33    15    16    1
    34    16    17    1
    35     8     9   ar
    36     9    10   ar
    37    10    11    1
    38    28    29    1
    39    29    30    2
    40    29    31   am
    41    31    33    1
    42    33    34   ar
    43    34    35   ar
    44    35    36   ar
    45    36    37   ar
    46    37    38   ar
    47    46    47   ar
    48    47    48   ar
    49    48    40   ar
    50    47    43   ar
    51    10     5   ar
    52    38    33   ar
    53    17    12    1
    54    23    18   ar
    55    44    49    1
    56     1     4    1
    57    31    32    1
