@<TRIPOS>MOLECULE
*****
 61 65 0 0 0
SMALL
GASTEIGER

@<TRIPOS>ATOM
      1 C         -25.0567   -6.9715  -14.2587 C.ar    1  UNL1        0.0993
      2 C         -25.9217   -5.9737  -14.7382 C.ar    1  UNL1        0.0235
      3 C         -27.2987   -6.0177  -14.4673 C.ar    1  UNL1        0.0548
      4 C         -27.8058   -7.0679  -13.6871 C.ar    1  UNL1        0.0077
      5 C         -26.9546   -8.0613  -13.2003 C.ar    1  UNL1        0.0390
      6 C         -25.5819   -8.0132  -13.4616 C.ar    1  UNL1        0.1598
      7 C         -28.2070   -4.9701  -14.9904 C.2     1  UNL1        0.2458
      8 O         -27.7490   -4.1015  -15.7805 O.2     1  UNL1       -0.2701
      9 N         -29.5913   -4.9281  -14.5877 N.am    1  UNL1       -0.3040
     10 H         -29.8619   -5.4911  -13.7492 H       1  UNL1        0.1496
     11 C         -30.6459   -4.1547  -15.2726 C.3     1  UNL1        0.0572
     12 C         -32.0000   -4.8676  -15.0771 C.3     1  UNL1        0.0196
     13 C         -30.3497   -4.0761  -16.7828 C.3     1  UNL1        0.0196
     14 C         -30.7483   -2.7397  -14.6708 C.3     1  UNL1        0.0196
     15 N         -23.6714   -6.9765  -14.6409 N.pl3   1  UNL1       -0.2120
     16 H         -23.0101   -6.3151  -14.1767 H       1  UNL1        0.1738
     17 S         -23.0768   -7.8610  -16.0105 S.O2    1  UNL1        0.0745
     18 O         -21.6546   -7.4584  -16.2811 O.2     1  UNL1       -0.1499
     19 O         -23.9067   -7.5035  -17.2122 O.2     1  UNL1       -0.1499
     20 C         -22.4054  -11.6064  -14.4873 C.ar    1  UNL1        0.0152
     21 C         -23.3735  -12.3724  -15.1947 C.ar    1  UNL1       -0.0232
     22 C         -24.2121  -11.7324  -16.1199 C.ar    1  UNL1       -0.0031
     23 C         -24.0792  -10.3755  -16.3861 C.ar    1  UNL1        0.0207
     24 C         -23.1344   -9.6043  -15.7045 C.ar    1  UNL1        0.1354
     25 C         -22.2973  -10.2147  -14.7471 C.ar    1  UNL1        0.0746
     26 CL        -21.1424   -9.2249  -13.8412 Cl      1  UNL1       -0.0811
     27 C         -23.6252  -13.8313  -14.8741 C.3     1  UNL1        0.0221
     28 C         -24.9682  -14.1840  -14.2384 C.3     1  UNL1        0.0047
     29 C         -24.7240  -14.4856  -15.7024 C.3     1  UNL1        0.0047
     30 C         -21.5395  -12.2360  -13.4037 C.3     1  UNL1        0.1693
     31 C         -20.5708  -11.8213  -11.3347 C.3     1  UNL1        0.1746
     32 O         -21.6885  -11.5781  -12.1592 O.3     1  UNL1       -0.3463
     33 O         -24.7669   -9.0195  -12.9243 O.3     1  UNL1       -0.4513
     34 C         -24.0908   -8.9309  -11.6966 C.ar    1  UNL1        0.1580
     35 C         -23.5345   -7.7198  -11.2461 C.ar    1  UNL1        0.0677
     36 C         -22.8527   -7.6623  -10.0279 C.ar    1  UNL1        0.1398
     37 F         -22.3275   -6.4796   -9.6184 F       1  UNL1       -0.2044
     38 C         -22.7214   -8.8164   -9.2364 C.ar    1  UNL1        0.0175
     39 C         -23.3078  -10.0160   -9.6693 C.ar    1  UNL1        0.0130
     40 C         -23.9873  -10.0738  -10.8909 C.ar    1  UNL1        0.0919
     41 CL        -24.6924  -11.5961  -11.4119 Cl      1  UNL1       -0.0791
     42 C         -22.0204   -8.7600   -7.9060 C.3     1  UNL1        0.1382
     43 C         -20.5786   -8.4211   -8.1034 C.2     1  UNL1        0.3234
     44 O         -19.9771   -8.8226   -9.1366 O.2     1  UNL1       -0.2497
     45 O         -19.8996   -7.7094   -7.1078 O.3     1  UNL1       -0.4215
     46 C         -19.3924   -8.3052   -5.9143 C.3     1  UNL1        0.3207
     47 O         -20.4350   -8.3331   -4.9586 O.3     1  UNL1       -0.3070
     48 C         -20.0778   -9.1545   -3.8563 C.3     1  UNL1        0.2456
     49 C         -18.6921   -8.7711   -3.2441 C.3     1  UNL1        0.1781
     50 O         -17.7509   -9.7774   -3.5203 O.3     1  UNL1       -0.3790
     51 C         -18.1848   -7.4391   -3.8304 C.3     1  UNL1        0.1733
     52 O         -19.0032   -6.3830   -3.3927 O.3     1  UNL1       -0.3793
     53 C         -18.1941   -7.4806   -5.3771 C.3     1  UNL1        0.2106
     54 O         -16.9977   -8.0468   -5.8491 O.3     1  UNL1       -0.3766
     55 H         -17.9625  -10.5395   -2.9200 H       1  UNL1        0.2106
     56 H         -18.7679   -6.2089   -2.4438 H       1  UNL1        0.2105
     57 H         -16.2980   -7.3457   -5.7776 H       1  UNL1        0.2107
     58 C         -21.1529   -9.0368   -2.8163 C.2     1  UNL1        0.3439
     59 O         -21.6875  -10.0740   -2.3398 O.2     1  UNL1       -0.2475
     60 O         -21.5285   -7.7832   -2.3425 O.3     1  UNL1       -0.4785
     61 H         -22.2401   -7.6897   -1.6278 H       1  UNL1        0.2951
@<TRIPOS>BOND
     1    31    32    1
     2    32    30    1
     3    30    20    1
     4    20    21   ar
     5    21    27    1
     6    27    28    1
     7    28    29    1
     8    21    22   ar
     9    22    23   ar
    10    23    24   ar
    11    24    17    1
    12    17    18    2
    13    17    19    2
    14    17    15    1
    15    15     1    1
    16     1     2   ar
    17     2     3   ar
    18     3     7    1
    19     7     8    2
    20     7     9   am
    21     9    11    1
    22    11    12    1
    23    11    13    1
    24    11    14    1
    25     3     4   ar
    26     4     5   ar
    27     5     6   ar
    28     6    33    1
    29    33    34    1
    30    34    35   ar
    31    35    36   ar
    32    36    37    1
    33    36    38   ar
    34    38    42    1
    35    42    43    1
    36    43    44    2
    37    43    45    1
    38    45    46    1
    39    46    47    1
    40    47    48    1
    41    48    58    1
    42    58    59    2
    43    58    60    1
    44    48    49    1
    45    49    50    1
    46    49    51    1
    47    51    52    1
    48    51    53    1
    49    53    54    1
    50    38    39   ar
    51    39    40   ar
    52    40    41    1
    53    24    25   ar
    54    25    26    1
    55    25    20   ar
    56    29    27    1
    57     6     1   ar
    58    40    34   ar
    59    53    46    1
    60    15    16    1
    61     9    10    1
    62    60    61    1
    63    50    55    1
    64    52    56    1
    65    54    57    1
@<TRIPOS>MOLECULE
*****
 61 65 0 0 0
SMALL
GASTEIGER

@<TRIPOS>ATOM
      1 C         -19.8045   -7.5585   -9.3216 C.ar    1  UNL1        0.0993
      2 C         -19.8771   -7.3880   -7.9290 C.ar    1  UNL1        0.0235
      3 C         -19.5459   -8.4343   -7.0531 C.ar    1  UNL1        0.0548
      4 C         -19.1168   -9.6590   -7.5870 C.ar    1  UNL1        0.0077
      5 C         -19.0350   -9.8374   -8.9690 C.ar    1  UNL1        0.0390
      6 C         -19.3555   -8.7931   -9.8417 C.ar    1  UNL1        0.1598
      7 C         -19.6407   -8.2518   -5.5856 C.2     1  UNL1        0.2458
      8 O         -20.7372   -8.4847   -5.0092 O.2     1  UNL1       -0.2701
      9 N         -18.5035   -7.7942   -4.8258 N.am    1  UNL1       -0.3040
     10 H         -17.7114   -7.3701   -5.3605 H       1  UNL1        0.1496
     11 C         -18.3783   -7.8844   -3.3576 C.3     1  UNL1        0.0572
     12 C         -16.9107   -8.1924   -2.9957 C.3     1  UNL1        0.0196
     13 C         -19.2632   -9.0253   -2.8191 C.3     1  UNL1        0.0196
     14 C         -18.7712   -6.5453   -2.7036 C.3     1  UNL1        0.0196
     15 N         -20.2571   -6.5192  -10.2049 N.pl3   1  UNL1       -0.2120
     16 H         -19.6081   -6.1486  -10.9340 H       1  UNL1        0.1738
     17 S         -21.7535   -5.6720   -9.9711 S.O2    1  UNL1        0.0745
     18 O         -21.6208   -4.2744  -10.5072 O.2     1  UNL1       -0.1499
     19 O         -22.0347   -5.5885   -8.4965 O.2     1  UNL1       -0.1499
     20 C         -24.6149   -8.3819  -11.0971 C.ar    1  UNL1        0.0152
     21 C         -25.2716   -7.6752  -12.1428 C.ar    1  UNL1       -0.0232
     22 C         -24.8309   -6.3871  -12.4825 C.ar    1  UNL1       -0.0031
     23 C         -23.7377   -5.8141  -11.8450 C.ar    1  UNL1        0.0207
     24 C         -23.0767   -6.4907  -10.8167 C.ar    1  UNL1        0.1354
     25 C         -23.5162   -7.7751  -10.4332 C.ar    1  UNL1        0.0746
     26 CL        -22.7160   -8.6054   -9.0900 Cl      1  UNL1       -0.0811
     27 C         -26.5249   -8.2117  -12.8031 C.3     1  UNL1        0.0221
     28 C         -27.8641   -7.8038  -12.1928 C.3     1  UNL1        0.0047
     29 C         -27.3919   -7.1559  -13.4778 C.3     1  UNL1        0.0047
     30 C         -25.1173   -9.7407  -10.6264 C.3     1  UNL1        0.1693
     31 C         -25.6750  -10.7234   -8.5980 C.3     1  UNL1        0.1746
     32 O         -25.9149   -9.6350   -9.4616 O.3     1  UNL1       -0.3463
     33 O         -19.2278   -9.0153  -11.2200 O.3     1  UNL1       -0.4513
     34 C         -20.3038   -9.1232  -12.1160 C.ar    1  UNL1        0.1580
     35 C         -20.6761   -8.0564  -12.9542 C.ar    1  UNL1        0.0677
     36 C         -21.7609   -8.1843  -13.8253 C.ar    1  UNL1        0.1398
     37 F         -22.0962   -7.1385  -14.6230 F       1  UNL1       -0.2044
     38 C         -22.4883   -9.3858  -13.8765 C.ar    1  UNL1        0.0175
     39 C         -22.0941  -10.4620  -13.0662 C.ar    1  UNL1        0.0130
     40 C         -21.0100  -10.3322  -12.1914 C.ar    1  UNL1        0.0919
     41 CL        -20.5555  -11.6925  -11.1769 Cl      1  UNL1       -0.0791
     42 C         -23.6364   -9.5486  -14.8356 C.3     1  UNL1        0.1382
     43 C         -23.1290  -10.0009  -16.1663 C.2     1  UNL1        0.3234
     44 O         -22.0933   -9.4718  -16.6538 O.2     1  UNL1       -0.2497
     45 O         -23.8456  -10.9682  -16.8801 O.3     1  UNL1       -0.4215
     46 C         -23.9157  -12.3422  -16.5006 C.3     1  UNL1        0.3207
     47 O         -24.8138  -12.4535  -15.4133 O.3     1  UNL1       -0.3070
     48 C         -25.1348  -13.8156  -15.1703 C.3     1  UNL1        0.2456
     49 C         -23.8660  -14.7145  -15.0147 C.3     1  UNL1        0.1781
     50 O         -23.7460  -15.5704  -16.1227 O.3     1  UNL1       -0.3790
     51 C         -22.5934  -13.8511  -14.9113 C.3     1  UNL1        0.1733
     52 O         -22.5991  -13.1365  -13.7005 O.3     1  UNL1       -0.3793
     53 C         -22.5100  -12.8519  -16.0897 C.3     1  UNL1        0.2106
     54 O         -21.9015  -13.4661  -17.1975 O.3     1  UNL1       -0.3766
     55 H         -24.4331  -16.2788  -16.0125 H       1  UNL1        0.2106
     56 H         -22.3790  -13.7847  -12.9811 H       1  UNL1        0.2105
     57 H         -20.9249  -13.4828  -17.0186 H       1  UNL1        0.2107
     58 C         -25.9731  -13.8852  -13.9279 C.2     1  UNL1        0.3439
     59 O         -27.2305  -13.8995  -14.0139 O.2     1  UNL1       -0.2475
     60 O         -25.3625  -13.9810  -12.6808 O.3     1  UNL1       -0.4785
     61 H         -25.9159  -14.0466  -11.8350 H       1  UNL1        0.2951
@<TRIPOS>BOND
     1    31    32    1
     2    32    30    1
     3    30    20    1
     4    20    21   ar
     5    21    27    1
     6    27    28    1
     7    28    29    1
     8    21    22   ar
     9    22    23   ar
    10    23    24   ar
    11    24    17    1
    12    17    18    2
    13    17    19    2
    14    17    15    1
    15    15     1    1
    16     1     2   ar
    17     2     3   ar
    18     3     7    1
    19     7     8    2
    20     7     9   am
    21     9    11    1
    22    11    12    1
    23    11    13    1
    24    11    14    1
    25     3     4   ar
    26     4     5   ar
    27     5     6   ar
    28     6    33    1
    29    33    34    1
    30    34    35   ar
    31    35    36   ar
    32    36    37    1
    33    36    38   ar
    34    38    42    1
    35    42    43    1
    36    43    44    2
    37    43    45    1
    38    45    46    1
    39    46    47    1
    40    47    48    1
    41    48    58    1
    42    58    59    2
    43    58    60    1
    44    48    49    1
    45    49    50    1
    46    49    51    1
    47    51    52    1
    48    51    53    1
    49    53    54    1
    50    38    39   ar
    51    39    40   ar
    52    40    41    1
    53    24    25   ar
    54    25    26    1
    55    25    20   ar
    56    29    27    1
    57     6     1   ar
    58    40    34   ar
    59    53    46    1
    60    15    16    1
    61     9    10    1
    62    60    61    1
    63    50    55    1
    64    52    56    1
    65    54    57    1
@<TRIPOS>MOLECULE
*****
 61 65 0 0 0
SMALL
GASTEIGER

@<TRIPOS>ATOM
      1 C         -24.8401   -6.8762  -14.3310 C.ar    1  UNL1        0.0993
      2 C         -25.7564   -5.9658  -14.8834 C.ar    1  UNL1        0.0235
      3 C         -27.1045   -5.9670  -14.4908 C.ar    1  UNL1        0.0548
      4 C         -27.5287   -6.8821  -13.5154 C.ar    1  UNL1        0.0077
      5 C         -26.6255   -7.7871  -12.9553 C.ar    1  UNL1        0.0390
      6 C         -25.2809   -7.7804  -13.3387 C.ar    1  UNL1        0.1598
      7 C         -28.0684   -5.0142  -15.0901 C.2     1  UNL1        0.2458
      8 O         -27.7052   -4.3118  -16.0716 O.2     1  UNL1       -0.2701
      9 N         -29.3977   -4.8735  -14.5485 N.am    1  UNL1       -0.3040
     10 H         -29.5698   -5.2701  -13.5965 H       1  UNL1        0.1496
     11 C         -30.5249   -4.2168  -15.2395 C.3     1  UNL1        0.0572
     12 C         -31.7639   -5.1328  -15.1638 C.3     1  UNL1        0.0196
     13 C         -30.1769   -3.9888  -16.7233 C.3     1  UNL1        0.0196
     14 C         -30.8654   -2.8784  -14.5556 C.3     1  UNL1        0.0196
     15 N         -23.4926   -6.9409  -14.8262 N.pl3   1  UNL1       -0.2120
     16 H         -22.7780   -6.2770  -14.4536 H       1  UNL1        0.1738
     17 S         -23.0384   -7.9093  -16.1927 S.O2    1  UNL1        0.0745
     18 O         -21.6196   -7.5938  -16.5742 O.2     1  UNL1       -0.1499
     19 O         -23.9295   -7.5563  -17.3511 O.2     1  UNL1       -0.1499
     20 C         -22.4740  -11.6154  -14.5359 C.ar    1  UNL1        0.0152
     21 C         -23.5056  -12.3634  -15.1688 C.ar    1  UNL1       -0.0232
     22 C         -24.3531  -11.7236  -16.0859 C.ar    1  UNL1       -0.0031
     23 C         -24.1699  -10.3868  -16.4165 C.ar    1  UNL1        0.0207
     24 C         -23.1623   -9.6337  -15.8087 C.ar    1  UNL1        0.1354
     25 C         -22.3136  -10.2425  -14.8606 C.ar    1  UNL1        0.0746
     26 CL        -21.0768   -9.2717  -14.0470 Cl      1  UNL1       -0.0811
     27 C         -23.8098  -13.7941  -14.7746 C.3     1  UNL1        0.0221
     28 C         -25.2002  -14.0820  -14.2125 C.3     1  UNL1        0.0047
     29 C         -24.8633  -14.4819  -15.6340 C.3     1  UNL1        0.0047
     30 C         -21.5920  -12.2396  -13.4622 C.3     1  UNL1        0.1693
     31 C         -20.7322  -11.7265  -11.3673 C.3     1  UNL1        0.1746
     32 O         -21.8886  -11.7331  -12.1740 O.3     1  UNL1       -0.3463
     33 O         -24.4094   -8.6901  -12.7238 O.3     1  UNL1       -0.4513
     34 C         -23.4525   -8.3503  -11.7536 C.ar    1  UNL1        0.1580
     35 C         -22.6129   -7.2317  -11.9051 C.ar    1  UNL1        0.0677
     36 C         -21.6580   -6.9249  -10.9324 C.ar    1  UNL1        0.1398
     37 F         -20.8626   -5.8386  -11.1050 F       1  UNL1       -0.2044
     38 C         -21.5316   -7.7302   -9.7874 C.ar    1  UNL1        0.0175
     39 C         -22.3938   -8.8250   -9.6195 C.ar    1  UNL1        0.0130
     40 C         -23.3474   -9.1339  -10.5955 C.ar    1  UNL1        0.0919
     41 CL        -24.3975  -10.5229  -10.3631 Cl      1  UNL1       -0.0791
     42 C         -20.5314   -7.3902   -8.7156 C.3     1  UNL1        0.1382
     43 C         -19.7675   -8.6134   -8.3246 C.2     1  UNL1        0.3234
     44 O         -19.0817   -9.2255   -9.1880 O.2     1  UNL1       -0.2497
     45 O         -19.8704   -9.0959   -7.0149 O.3     1  UNL1       -0.4215
     46 C         -19.4546   -8.3602   -5.8649 C.3     1  UNL1        0.3207
     47 O         -18.0487   -8.4724   -5.7549 O.3     1  UNL1       -0.3070
     48 C         -17.5486   -7.5465   -4.8010 C.3     1  UNL1        0.2456
     49 C         -18.2831   -7.6442   -3.4251 C.3     1  UNL1        0.1781
     50 O         -19.0736   -6.5004   -3.2212 O.3     1  UNL1       -0.3790
     51 C         -19.1877   -8.8911   -3.3752 C.3     1  UNL1        0.1733
     52 O         -18.3973  -10.0537   -3.3711 O.3     1  UNL1       -0.3793
     53 C         -20.1391   -8.9288   -4.5949 C.3     1  UNL1        0.2106
     54 O         -21.2975   -8.1813   -4.3231 O.3     1  UNL1       -0.3766
     55 H         -18.4520   -5.7598   -2.9952 H       1  UNL1        0.2106
     56 H         -18.0078  -10.1355   -2.4613 H       1  UNL1        0.2105
     57 H         -21.8722   -8.7410   -3.7378 H       1  UNL1        0.2107
     58 C         -16.0811   -7.8033   -4.6230 C.2     1  UNL1        0.3439
     59 O         -15.6899   -8.7597   -3.9012 O.2     1  UNL1       -0.2475
     60 O         -15.1503   -7.0142   -5.2923 O.3     1  UNL1       -0.4785
     61 H         -14.1570   -7.1874   -5.1956 H       1  UNL1        0.2951
@<TRIPOS>BOND
     1    31    32    1
     2    32    30    1
     3    30    20    1
     4    20    21   ar
     5    21    27    1
     6    27    28    1
     7    28    29    1
     8    21    22   ar
     9    22    23   ar
    10    23    24   ar
    11    24    17    1
    12    17    18    2
    13    17    19    2
    14    17    15    1
    15    15     1    1
    16     1     2   ar
    17     2     3   ar
    18     3     7    1
    19     7     8    2
    20     7     9   am
    21     9    11    1
    22    11    12    1
    23    11    13    1
    24    11    14    1
    25     3     4   ar
    26     4     5   ar
    27     5     6   ar
    28     6    33    1
    29    33    34    1
    30    34    35   ar
    31    35    36   ar
    32    36    37    1
    33    36    38   ar
    34    38    42    1
    35    42    43    1
    36    43    44    2
    37    43    45    1
    38    45    46    1
    39    46    47    1
    40    47    48    1
    41    48    58    1
    42    58    59    2
    43    58    60    1
    44    48    49    1
    45    49    50    1
    46    49    51    1
    47    51    52    1
    48    51    53    1
    49    53    54    1
    50    38    39   ar
    51    39    40   ar
    52    40    41    1
    53    24    25   ar
    54    25    26    1
    55    25    20   ar
    56    29    27    1
    57     6     1   ar
    58    40    34   ar
    59    53    46    1
    60    15    16    1
    61     9    10    1
    62    60    61    1
    63    50    55    1
    64    52    56    1
    65    54    57    1
@<TRIPOS>MOLECULE
*****
 61 65 0 0 0
SMALL
GASTEIGER

@<TRIPOS>ATOM
      1 C         -20.1493   -9.1337  -10.4600 C.ar    1  UNL1        0.0993
      2 C         -19.6412   -9.1264   -9.1502 C.ar    1  UNL1        0.0235
      3 C         -19.7460   -7.9848   -8.3393 C.ar    1  UNL1        0.0548
      4 C         -20.3884   -6.8455   -8.8473 C.ar    1  UNL1        0.0077
      5 C         -20.9024   -6.8438  -10.1451 C.ar    1  UNL1        0.0390
      6 C         -20.8069   -7.9831  -10.9499 C.ar    1  UNL1        0.1598
      7 C         -19.1931   -7.9796   -6.9644 C.2     1  UNL1        0.2458
      8 O         -19.6085   -7.1207   -6.1407 O.2     1  UNL1       -0.2701
      9 N         -18.1787   -8.9281   -6.5754 N.am    1  UNL1       -0.3040
     10 H         -17.6835   -9.4388   -7.3417 H       1  UNL1        0.1496
     11 C         -17.7952   -9.2290   -5.1819 C.3     1  UNL1        0.0572
     12 C         -17.0644  -10.5871   -5.1432 C.3     1  UNL1        0.0196
     13 C         -19.0518   -9.3260   -4.2953 C.3     1  UNL1        0.0196
     14 C         -16.8402   -8.1458   -4.6438 C.3     1  UNL1        0.0196
     15 N         -19.9319  -10.2668  -11.3167 N.pl3   1  UNL1       -0.2120
     16 H         -19.1917  -10.2183  -12.0515 H       1  UNL1        0.1738
     17 S         -20.9995  -11.6343  -11.3563 S.O2    1  UNL1        0.0745
     18 O         -22.0014  -11.5134  -10.2429 O.2     1  UNL1       -0.1499
     19 O         -20.1920  -12.8827  -11.1328 O.2     1  UNL1       -0.1499
     20 C         -23.9092  -11.5328  -14.2412 C.ar    1  UNL1        0.0152
     21 C         -23.1396  -11.7377  -15.4202 C.ar    1  UNL1       -0.0232
     22 C         -21.7502  -11.9009  -15.3128 C.ar    1  UNL1       -0.0031
     23 C         -21.1251  -11.9106  -14.0723 C.ar    1  UNL1        0.0207
     24 C         -21.8613  -11.7130  -12.9014 C.ar    1  UNL1        0.1354
     25 C         -23.2560  -11.5166  -12.9806 C.ar    1  UNL1        0.0746
     26 CL        -24.1781  -11.2062  -11.5016 Cl      1  UNL1       -0.0811
     27 C         -23.7549  -11.6401  -16.8010 C.3     1  UNL1        0.0221
     28 C         -23.3575  -10.4404  -17.6584 C.3     1  UNL1        0.0047
     29 C         -22.7694  -11.8051  -17.9512 C.3     1  UNL1        0.0047
     30 C         -25.4049  -11.2536  -14.3139 C.3     1  UNL1        0.1693
     31 C         -25.9745  -13.4845  -14.0148 C.3     1  UNL1        0.1746
     32 O         -26.1229  -12.3530  -14.8427 O.3     1  UNL1       -0.3463
     33 O         -21.3658   -7.9384  -12.2348 O.3     1  UNL1       -0.4513
     34 C         -22.7403   -7.8414  -12.5064 C.ar    1  UNL1        0.1580
     35 C         -23.6897   -7.7212  -11.4752 C.ar    1  UNL1        0.0677
     36 C         -25.0527   -7.6425  -11.7718 C.ar    1  UNL1        0.1398
     37 F         -25.9456   -7.5259  -10.7562 F       1  UNL1       -0.2044
     38 C         -25.4884   -7.6768  -13.1077 C.ar    1  UNL1        0.0175
     39 C         -24.5383   -7.7603  -14.1376 C.ar    1  UNL1        0.0130
     40 C         -23.1738   -7.8427  -13.8399 C.ar    1  UNL1        0.0919
     41 CL        -22.0128   -7.9661  -15.1525 Cl      1  UNL1       -0.0791
     42 C         -26.9507   -7.5571  -13.4423 C.3     1  UNL1        0.1382
     43 C         -27.3024   -6.1256  -13.6866 C.2     1  UNL1        0.3234
     44 O         -27.0967   -5.2680  -12.7852 O.2     1  UNL1       -0.2497
     45 O         -27.9099   -5.7660  -14.8951 O.3     1  UNL1       -0.4215
     46 C         -28.7765   -4.6417  -15.0421 C.3     1  UNL1        0.3207
     47 O         -30.1090   -5.0888  -14.8812 O.3     1  UNL1       -0.3070
     48 C         -30.9913   -3.9844  -14.7435 C.3     1  UNL1        0.2456
     49 C         -30.8283   -2.9369  -15.8917 C.3     1  UNL1        0.1781
     50 O         -30.2489   -1.7599  -15.3883 O.3     1  UNL1       -0.3790
     51 C         -29.9322   -3.4927  -17.0159 C.3     1  UNL1        0.1733
     52 O         -30.5891   -4.5491  -17.6710 O.3     1  UNL1       -0.3793
     53 C         -28.5893   -4.0070  -16.4445 C.3     1  UNL1        0.2106
     54 O         -27.6706   -2.9478  -16.3510 O.3     1  UNL1       -0.3766
     55 H         -30.9558   -1.2915  -14.8717 H       1  UNL1        0.2106
     56 H         -31.2881   -4.1421  -18.2470 H       1  UNL1        0.2105
     57 H         -27.3260   -2.7821  -17.2675 H       1  UNL1        0.2107
     58 C         -32.3972   -4.5079  -14.7172 C.2     1  UNL1        0.3439
     59 O         -33.3690   -3.7070  -14.6670 O.2     1  UNL1       -0.2475
     60 O         -32.6312   -5.8777  -14.7952 O.3     1  UNL1       -0.4785
     61 H         -33.5754   -6.2443  -14.7965 H       1  UNL1        0.2951
@<TRIPOS>BOND
     1    31    32    1
     2    32    30    1
     3    30    20    1
     4    20    21   ar
     5    21    27    1
     6    27    28    1
     7    28    29    1
     8    21    22   ar
     9    22    23   ar
    10    23    24   ar
    11    24    17    1
    12    17    18    2
    13    17    19    2
    14    17    15    1
    15    15     1    1
    16     1     2   ar
    17     2     3   ar
    18     3     7    1
    19     7     8    2
    20     7     9   am
    21     9    11    1
    22    11    12    1
    23    11    13    1
    24    11    14    1
    25     3     4   ar
    26     4     5   ar
    27     5     6   ar
    28     6    33    1
    29    33    34    1
    30    34    35   ar
    31    35    36   ar
    32    36    37    1
    33    36    38   ar
    34    38    42    1
    35    42    43    1
    36    43    44    2
    37    43    45    1
    38    45    46    1
    39    46    47    1
    40    47    48    1
    41    48    58    1
    42    58    59    2
    43    58    60    1
    44    48    49    1
    45    49    50    1
    46    49    51    1
    47    51    52    1
    48    51    53    1
    49    53    54    1
    50    38    39   ar
    51    39    40   ar
    52    40    41    1
    53    24    25   ar
    54    25    26    1
    55    25    20   ar
    56    29    27    1
    57     6     1   ar
    58    40    34   ar
    59    53    46    1
    60    15    16    1
    61     9    10    1
    62    60    61    1
    63    50    55    1
    64    52    56    1
    65    54    57    1
@<TRIPOS>MOLECULE
*****
 61 65 0 0 0
SMALL
GASTEIGER

@<TRIPOS>ATOM
      1 C         -20.1430   -9.1170  -10.4564 C.ar    1  UNL1        0.0993
      2 C         -19.6476   -9.1104   -9.1417 C.ar    1  UNL1        0.0235
      3 C         -19.7510   -7.9660   -8.3347 C.ar    1  UNL1        0.0548
      4 C         -20.3794   -6.8229   -8.8517 C.ar    1  UNL1        0.0077
      5 C         -20.8808   -6.8204  -10.1544 C.ar    1  UNL1        0.0390
      6 C         -20.7867   -7.9625  -10.9555 C.ar    1  UNL1        0.1598
      7 C         -19.2114   -7.9617   -6.9546 C.2     1  UNL1        0.2458
      8 O         -19.6431   -7.1107   -6.1311 O.2     1  UNL1       -0.2701
      9 N         -18.1915   -8.9020   -6.5601 N.am    1  UNL1       -0.3040
     10 H         -17.6840   -9.4043   -7.3239 H       1  UNL1        0.1496
     11 C         -17.8184   -9.2056   -5.1644 C.3     1  UNL1        0.0572
     12 C         -17.0632  -10.5503   -5.1265 C.3     1  UNL1        0.0196
     13 C         -19.0831   -9.3318   -4.2929 C.3     1  UNL1        0.0196
     14 C         -16.8897   -8.1088   -4.6079 C.3     1  UNL1        0.0196
     15 N         -19.9265  -10.2540  -11.3082 N.pl3   1  UNL1       -0.2120
     16 H         -19.1938  -10.2053  -12.0504 H       1  UNL1        0.1738
     17 S         -20.9854  -11.6288  -11.3289 S.O2    1  UNL1        0.0745
     18 O         -21.9993  -11.4901  -10.2286 O.2     1  UNL1       -0.1499
     19 O         -20.1727  -12.8670  -11.0704 O.2     1  UNL1       -0.1499
     20 C         -23.8628  -11.5911  -14.2475 C.ar    1  UNL1        0.0152
     21 C         -23.0820  -11.8346  -15.4116 C.ar    1  UNL1       -0.0232
     22 C         -21.6949  -12.0037  -15.2843 C.ar    1  UNL1       -0.0031
     23 C         -21.0834  -11.9819  -14.0371 C.ar    1  UNL1        0.0207
     24 C         -21.8309  -11.7460  -12.8806 C.ar    1  UNL1        0.1354
     25 C         -23.2233  -11.5429  -12.9807 C.ar    1  UNL1        0.0746
     26 CL        -24.1593  -11.1843  -11.5215 Cl      1  UNL1       -0.0811
     27 C         -23.6816  -11.7726  -16.8013 C.3     1  UNL1        0.0221
     28 C         -23.3748  -10.5328  -17.6385 C.3     1  UNL1        0.0047
     29 C         -22.6676  -11.8386  -17.9366 C.3     1  UNL1        0.0047
     30 C         -25.3557  -11.3043  -14.3446 C.3     1  UNL1        0.1693
     31 C         -26.0308  -13.4964  -13.9840 C.3     1  UNL1        0.1746
     32 O         -26.0720  -12.4042  -14.8748 O.3     1  UNL1       -0.3463
     33 O         -21.3328   -7.9166  -12.2458 O.3     1  UNL1       -0.4513
     34 C         -22.7058   -7.8391  -12.5312 C.ar    1  UNL1        0.1580
     35 C         -23.6654   -7.7087  -11.5108 C.ar    1  UNL1        0.0677
     36 C         -25.0265   -7.6497  -11.8207 C.ar    1  UNL1        0.1398
     37 F         -25.9294   -7.5227  -10.8152 F       1  UNL1       -0.2044
     38 C         -25.4499   -7.7145  -13.1593 C.ar    1  UNL1        0.0175
     39 C         -24.4900   -7.8082  -14.1792 C.ar    1  UNL1        0.0130
     40 C         -23.1274   -7.8708  -13.8681 C.ar    1  UNL1        0.0919
     41 CL        -21.9536   -8.0077  -15.1679 Cl      1  UNL1       -0.0791
     42 C         -26.9103   -7.6165  -13.5089 C.3     1  UNL1        0.1382
     43 C         -27.2914   -6.1858  -13.7107 C.2     1  UNL1        0.3234
     44 O         -26.4168   -5.2839  -13.6017 O.2     1  UNL1       -0.2497
     45 O         -28.6296   -5.8622  -13.9622 O.3     1  UNL1       -0.4215
     46 C         -29.1073   -5.3913  -15.2220 C.3     1  UNL1        0.3207
     47 O         -28.2073   -4.4075  -15.6944 O.3     1  UNL1       -0.3070
     48 C         -28.4742   -4.1012  -17.0554 C.3     1  UNL1        0.2456
     49 C         -29.9726   -3.7359  -17.3073 C.3     1  UNL1        0.1781
     50 O         -30.5974   -4.7559  -18.0448 O.3     1  UNL1       -0.3790
     51 C         -30.7230   -3.5538  -15.9733 C.3     1  UNL1        0.1733
     52 O         -30.2472   -2.4085  -15.3112 O.3     1  UNL1       -0.3793
     53 C         -30.5260   -4.7867  -15.0593 C.3     1  UNL1        0.2106
     54 O         -31.4826   -5.7692  -15.3662 O.3     1  UNL1       -0.3766
     55 H         -30.2742   -4.6716  -18.9800 H       1  UNL1        0.2106
     56 H         -30.6258   -1.6222  -15.7852 H       1  UNL1        0.2105
     57 H         -32.3374   -5.4801  -14.9518 H       1  UNL1        0.2107
     58 C         -27.5887   -2.9601  -17.4615 C.2     1  UNL1        0.3439
     59 O         -27.8758   -2.2667  -18.4740 O.2     1  UNL1       -0.2475
     60 O         -26.4739   -2.6368  -16.6933 O.3     1  UNL1       -0.4785
     61 H         -25.8773   -1.8581  -16.9455 H       1  UNL1        0.2951
@<TRIPOS>BOND
     1    31    32    1
     2    32    30    1
     3    30    20    1
     4    20    21   ar
     5    21    27    1
     6    27    28    1
     7    28    29    1
     8    21    22   ar
     9    22    23   ar
    10    23    24   ar
    11    24    17    1
    12    17    18    2
    13    17    19    2
    14    17    15    1
    15    15     1    1
    16     1     2   ar
    17     2     3   ar
    18     3     7    1
    19     7     8    2
    20     7     9   am
    21     9    11    1
    22    11    12    1
    23    11    13    1
    24    11    14    1
    25     3     4   ar
    26     4     5   ar
    27     5     6   ar
    28     6    33    1
    29    33    34    1
    30    34    35   ar
    31    35    36   ar
    32    36    37    1
    33    36    38   ar
    34    38    42    1
    35    42    43    1
    36    43    44    2
    37    43    45    1
    38    45    46    1
    39    46    47    1
    40    47    48    1
    41    48    58    1
    42    58    59    2
    43    58    60    1
    44    48    49    1
    45    49    50    1
    46    49    51    1
    47    51    52    1
    48    51    53    1
    49    53    54    1
    50    38    39   ar
    51    39    40   ar
    52    40    41    1
    53    24    25   ar
    54    25    26    1
    55    25    20   ar
    56    29    27    1
    57     6     1   ar
    58    40    34   ar
    59    53    46    1
    60    15    16    1
    61     9    10    1
    62    60    61    1
    63    50    55    1
    64    52    56    1
    65    54    57    1
@<TRIPOS>MOLECULE
*****
 61 65 0 0 0
SMALL
GASTEIGER

@<TRIPOS>ATOM
      1 C         -20.2016   -7.7462  -10.2352 C.ar    1  UNL1        0.0993
      2 C         -19.8771   -7.4916   -8.8922 C.ar    1  UNL1        0.0235
      3 C         -19.5660   -8.5397   -8.0111 C.ar    1  UNL1        0.0548
      4 C         -19.5618   -9.8569   -8.4947 C.ar    1  UNL1        0.0077
      5 C         -19.8766  -10.1209   -9.8287 C.ar    1  UNL1        0.0390
      6 C         -20.1773   -9.0770  -10.7091 C.ar    1  UNL1        0.1598
      7 C         -19.2406   -8.2643   -6.5919 C.2     1  UNL1        0.2458
      8 O         -20.1810   -8.1147   -5.7661 O.2     1  UNL1       -0.2701
      9 N         -17.8694   -8.1472   -6.1605 N.am    1  UNL1       -0.3040
     10 H         -17.1446   -8.0184   -6.9030 H       1  UNL1        0.1496
     11 C         -17.4199   -8.1992   -4.7553 C.3     1  UNL1        0.0572
     12 C         -17.7531   -9.5876   -4.1714 C.3     1  UNL1        0.0196
     13 C         -18.1557   -7.1309   -3.9234 C.3     1  UNL1        0.0196
     14 C         -15.8955   -7.9884   -4.6729 C.3     1  UNL1        0.0196
     15 N         -20.6306   -6.6766  -11.0938 N.pl3   1  UNL1       -0.2120
     16 H         -20.0138   -6.3723  -11.8794 H       1  UNL1        0.1738
     17 S         -22.0196   -5.6946  -10.7506 S.O2    1  UNL1        0.0745
     18 O         -21.9216   -4.4098  -11.5237 O.2     1  UNL1       -0.1499
     19 O         -22.0260   -5.3649   -9.2837 O.2     1  UNL1       -0.1499
     20 C         -25.3051   -8.1449  -10.7651 C.ar    1  UNL1        0.0152
     21 C         -25.9521   -7.7361  -11.9643 C.ar    1  UNL1       -0.0232
     22 C         -25.3757   -6.7213  -12.7433 C.ar    1  UNL1       -0.0031
     23 C         -24.1636   -6.1454  -12.3841 C.ar    1  UNL1        0.0207
     24 C         -23.5099   -6.5327  -11.2116 C.ar    1  UNL1        0.1354
     25 C         -24.0807   -7.5297  -10.3929 C.ar    1  UNL1        0.0746
     26 CL        -23.2820   -7.9761   -8.8774 Cl      1  UNL1       -0.0811
     27 C         -27.3194   -8.2608  -12.3515 C.3     1  UNL1        0.0221
     28 C         -28.5167   -7.3512  -12.0845 C.3     1  UNL1        0.0047
     29 C         -27.9897   -7.5104  -13.4956 C.3     1  UNL1        0.0047
     30 C         -25.9402   -9.1720   -9.8365 C.3     1  UNL1        0.1693
     31 C         -25.5324  -10.9865   -8.4464 C.3     1  UNL1        0.1746
     32 O         -25.0547  -10.2359   -9.5402 O.3     1  UNL1       -0.3463
     33 O         -20.4574   -9.3941  -12.0456 O.3     1  UNL1       -0.4513
     34 C         -21.7312   -9.7171  -12.5412 C.ar    1  UNL1        0.1580
     35 C         -22.5404  -10.6864  -11.9210 C.ar    1  UNL1        0.0677
     36 C         -23.7974  -11.0006  -12.4437 C.ar    1  UNL1        0.1398
     37 F         -24.5565  -11.9394  -11.8233 F       1  UNL1       -0.2044
     38 C         -24.2685  -10.3446  -13.5939 C.ar    1  UNL1        0.0175
     39 C         -23.4759   -9.3519  -14.1912 C.ar    1  UNL1        0.0130
     40 C         -22.2158   -9.0402  -13.6695 C.ar    1  UNL1        0.0919
     41 CL        -21.2414   -7.8064  -14.4533 Cl      1  UNL1       -0.0791
     42 C         -25.6350  -10.6483  -14.1463 C.3     1  UNL1        0.1382
     43 C         -25.6294  -11.9849  -14.8143 C.2     1  UNL1        0.3234
     44 O         -25.9387  -13.0149  -14.1557 O.2     1  UNL1       -0.2497
     45 O         -25.2243  -12.0814  -16.1504 O.3     1  UNL1       -0.4215
     46 C         -23.9490  -12.5758  -16.5577 C.3     1  UNL1        0.3207
     47 O         -23.1664  -12.7837  -15.3978 O.3     1  UNL1       -0.3070
     48 C         -21.9976  -13.5267  -15.7125 C.3     1  UNL1        0.2456
     49 C         -21.1894  -12.9043  -16.8964 C.3     1  UNL1        0.1781
     50 O         -21.2855  -13.7304  -18.0292 O.3     1  UNL1       -0.3790
     51 C         -21.7300  -11.5054  -17.2521 C.3     1  UNL1        0.1733
     52 O         -21.4571  -10.6083  -16.2045 O.3     1  UNL1       -0.3793
     53 C         -23.2575  -11.5521  -17.4950 C.3     1  UNL1        0.2106
     54 O         -23.5204  -11.9007  -18.8306 O.3     1  UNL1       -0.3766
     55 H         -20.7024  -14.5162  -17.8602 H       1  UNL1        0.2106
     56 H         -20.4889  -10.3931  -16.2530 H       1  UNL1        0.2105
     57 H         -23.3625  -11.0875  -19.3782 H       1  UNL1        0.2107
     58 C         -21.1412  -13.5968  -14.4825 C.2     1  UNL1        0.3439
     59 O         -21.6451  -13.3770  -13.3483 O.2     1  UNL1       -0.2475
     60 O         -19.7992  -13.9504  -14.5881 O.3     1  UNL1       -0.4785
     61 H         -19.2137  -14.0190  -13.7644 H       1  UNL1        0.2951
@<TRIPOS>BOND
     1    31    32    1
     2    32    30    1
     3    30    20    1
     4    20    21   ar
     5    21    27    1
     6    27    28    1
     7    28    29    1
     8    21    22   ar
     9    22    23   ar
    10    23    24   ar
    11    24    17    1
    12    17    18    2
    13    17    19    2
    14    17    15    1
    15    15     1    1
    16     1     2   ar
    17     2     3   ar
    18     3     7    1
    19     7     8    2
    20     7     9   am
    21     9    11    1
    22    11    12    1
    23    11    13    1
    24    11    14    1
    25     3     4   ar
    26     4     5   ar
    27     5     6   ar
    28     6    33    1
    29    33    34    1
    30    34    35   ar
    31    35    36   ar
    32    36    37    1
    33    36    38   ar
    34    38    42    1
    35    42    43    1
    36    43    44    2
    37    43    45    1
    38    45    46    1
    39    46    47    1
    40    47    48    1
    41    48    58    1
    42    58    59    2
    43    58    60    1
    44    48    49    1
    45    49    50    1
    46    49    51    1
    47    51    52    1
    48    51    53    1
    49    53    54    1
    50    38    39   ar
    51    39    40   ar
    52    40    41    1
    53    24    25   ar
    54    25    26    1
    55    25    20   ar
    56    29    27    1
    57     6     1   ar
    58    40    34   ar
    59    53    46    1
    60    15    16    1
    61     9    10    1
    62    60    61    1
    63    50    55    1
    64    52    56    1
    65    54    57    1
@<TRIPOS>MOLECULE
*****
 61 65 0 0 0
SMALL
GASTEIGER

@<TRIPOS>ATOM
      1 C         -26.9622   -7.0000  -13.4166 C.ar    1  UNL1        0.0993
      2 C         -28.2348   -6.6400  -13.8905 C.ar    1  UNL1        0.0235
      3 C         -28.4417   -5.4206  -14.5553 C.ar    1  UNL1        0.0548
      4 C         -27.3494   -4.5646  -14.7630 C.ar    1  UNL1        0.0077
      5 C         -26.0794   -4.9151  -14.3019 C.ar    1  UNL1        0.0390
      6 C         -25.8706   -6.1333  -13.6482 C.ar    1  UNL1        0.1598
      7 C         -29.7903   -5.0407  -15.0378 C.2     1  UNL1        0.2458
      8 O         -30.4324   -5.8496  -15.7604 O.2     1  UNL1       -0.2701
      9 N         -30.3561   -3.7564  -14.7056 N.am    1  UNL1       -0.3040
     10 H         -29.7033   -3.0283  -14.3356 H       1  UNL1        0.1496
     11 C         -31.7819   -3.4006  -14.8471 C.3     1  UNL1        0.0572
     12 C         -32.1049   -2.2290  -13.8970 C.3     1  UNL1        0.0196
     13 C         -32.6686   -4.6004  -14.4610 C.3     1  UNL1        0.0196
     14 C         -32.0813   -2.9541  -16.2914 C.3     1  UNL1        0.0196
     15 N         -26.7889   -8.1949  -12.6372 N.pl3   1  UNL1       -0.2120
     16 H         -27.0434   -9.1183  -13.0527 H       1  UNL1        0.1738
     17 S         -26.4020   -8.1664  -10.9457 S.O2    1  UNL1        0.0745
     18 O         -27.3810   -9.0277  -10.1988 O.2     1  UNL1       -0.1499
     19 O         -26.5349   -6.7551  -10.4447 O.2     1  UNL1       -0.1499
     20 C         -22.8276  -10.1366  -11.3215 C.ar    1  UNL1        0.0152
     21 C         -22.1048   -9.6163  -10.2120 C.ar    1  UNL1       -0.0232
     22 C         -22.7200   -8.6747   -9.3731 C.ar    1  UNL1       -0.0031
     23 C         -24.0352   -8.2803   -9.5842 C.ar    1  UNL1        0.0207
     24 C         -24.7643   -8.7797  -10.6663 C.ar    1  UNL1        0.1354
     25 C         -24.1620   -9.7053  -11.5441 C.ar    1  UNL1        0.0746
     26 CL        -25.0666  -10.2907  -12.9487 Cl      1  UNL1       -0.0811
     27 C         -20.6409   -9.9379   -9.9924 C.3     1  UNL1        0.0221
     28 C         -19.6178   -9.0245  -10.6641 C.3     1  UNL1        0.0047
     29 C         -19.8763   -8.9028   -9.1767 C.3     1  UNL1        0.0047
     30 C         -22.1711  -11.0855  -12.3160 C.3     1  UNL1        0.1693
     31 C         -20.6830  -12.8636  -12.4382 C.3     1  UNL1        0.1746
     32 O         -21.7292  -12.2787  -11.6956 O.3     1  UNL1       -0.3463
     33 O         -24.5701   -6.4501  -13.2315 O.3     1  UNL1       -0.4513
     34 C         -23.6629   -7.2314  -13.9657 C.ar    1  UNL1        0.1580
     35 C         -24.0313   -7.8503  -15.1741 C.ar    1  UNL1        0.0677
     36 C         -23.1142   -8.6357  -15.8770 C.ar    1  UNL1        0.1398
     37 F         -23.4977   -9.2197  -17.0408 F       1  UNL1       -0.2044
     38 C         -21.8094   -8.8100  -15.3845 C.ar    1  UNL1        0.0175
     39 C         -21.4316   -8.1629  -14.1975 C.ar    1  UNL1        0.0130
     40 C         -22.3514   -7.3795  -13.4922 C.ar    1  UNL1        0.0919
     41 CL        -21.8511   -6.5995  -11.9997 Cl      1  UNL1       -0.0791
     42 C         -20.8016   -9.6243  -16.1499 C.3     1  UNL1        0.1382
     43 C         -21.3545  -10.9828  -16.4353 C.2     1  UNL1        0.3234
     44 O         -21.1608  -11.5129  -17.5630 O.2     1  UNL1       -0.2497
     45 O         -22.1305  -11.6246  -15.4634 O.3     1  UNL1       -0.4215
     46 C         -23.0683  -12.6601  -15.7555 C.3     1  UNL1        0.3207
     47 O         -23.9819  -12.7434  -14.6787 O.3     1  UNL1       -0.3070
     48 C         -25.0914  -13.5578  -15.0292 C.3     1  UNL1        0.2456
     49 C         -24.6616  -14.9554  -15.5808 C.3     1  UNL1        0.1781
     50 O         -24.9422  -15.0352  -16.9554 O.3     1  UNL1       -0.3790
     51 C         -23.1534  -15.1883  -15.3652 C.3     1  UNL1        0.1733
     52 O         -22.8824  -15.3170  -13.9917 O.3     1  UNL1       -0.3793
     53 C         -22.3283  -14.0107  -15.9369 C.3     1  UNL1        0.2106
     54 O         -22.0791  -14.2186  -17.3041 O.3     1  UNL1       -0.3766
     55 H         -25.9250  -15.1480  -17.0406 H       1  UNL1        0.2106
     56 H         -23.1966  -16.2184  -13.7181 H       1  UNL1        0.2105
     57 H         -21.3466  -14.8861  -17.3663 H       1  UNL1        0.2107
     58 C         -25.9531  -13.7251  -13.8124 C.2     1  UNL1        0.3439
     59 O         -27.1959  -13.8945  -13.9365 O.2     1  UNL1       -0.2475
     60 O         -25.3745  -13.7399  -12.5466 O.3     1  UNL1       -0.4785
     61 H         -25.9418  -13.8698  -11.7175 H       1  UNL1        0.2951
@<TRIPOS>BOND
     1    31    32    1
     2    32    30    1
     3    30    20    1
     4    20    21   ar
     5    21    27    1
     6    27    28    1
     7    28    29    1
     8    21    22   ar
     9    22    23   ar
    10    23    24   ar
    11    24    17    1
    12    17    18    2
    13    17    19    2
    14    17    15    1
    15    15     1    1
    16     1     2   ar
    17     2     3   ar
    18     3     7    1
    19     7     8    2
    20     7     9   am
    21     9    11    1
    22    11    12    1
    23    11    13    1
    24    11    14    1
    25     3     4   ar
    26     4     5   ar
    27     5     6   ar
    28     6    33    1
    29    33    34    1
    30    34    35   ar
    31    35    36   ar
    32    36    37    1
    33    36    38   ar
    34    38    42    1
    35    42    43    1
    36    43    44    2
    37    43    45    1
    38    45    46    1
    39    46    47    1
    40    47    48    1
    41    48    58    1
    42    58    59    2
    43    58    60    1
    44    48    49    1
    45    49    50    1
    46    49    51    1
    47    51    52    1
    48    51    53    1
    49    53    54    1
    50    38    39   ar
    51    39    40   ar
    52    40    41    1
    53    24    25   ar
    54    25    26    1
    55    25    20   ar
    56    29    27    1
    57     6     1   ar
    58    40    34   ar
    59    53    46    1
    60    15    16    1
    61     9    10    1
    62    60    61    1
    63    50    55    1
    64    52    56    1
    65    54    57    1
@<TRIPOS>MOLECULE
*****
 61 65 0 0 0
SMALL
GASTEIGER

@<TRIPOS>ATOM
      1 C         -26.0195   -5.0541  -16.1341 C.ar    1  UNL1        0.0993
      2 C         -27.3416   -4.6057  -15.9768 C.ar    1  UNL1        0.0235
      3 C         -28.0657   -4.0906  -17.0639 C.ar    1  UNL1        0.0548
      4 C         -27.4572   -4.0464  -18.3275 C.ar    1  UNL1        0.0077
      5 C         -26.1463   -4.4950  -18.4966 C.ar    1  UNL1        0.0390
      6 C         -25.4277   -5.0169  -17.4166 C.ar    1  UNL1        0.1598
      7 C         -29.4543   -3.6045  -16.8865 C.2     1  UNL1        0.2458
      8 O         -30.1497   -3.3522  -17.9069 O.2     1  UNL1       -0.2701
      9 N         -29.9999   -3.4012  -15.5670 N.am    1  UNL1       -0.3040
     10 H         -29.3236   -3.3697  -14.7703 H       1  UNL1        0.1496
     11 C         -31.4356   -3.2387  -15.2637 C.3     1  UNL1        0.0572
     12 C         -31.5919   -2.2708  -14.0727 C.3     1  UNL1        0.0196
     13 C         -32.0519   -4.5960  -14.8732 C.3     1  UNL1        0.0196
     14 C         -32.1748   -2.6422  -16.4773 C.3     1  UNL1        0.0196
     15 N         -25.2528   -5.4693  -14.9917 N.pl3   1  UNL1       -0.2120
     16 H         -24.2124   -5.5189  -15.0641 H       1  UNL1        0.1738
     17 S         -25.9799   -6.1278  -13.5601 S.O2    1  UNL1        0.0745
     18 O         -26.9669   -7.1918  -13.9499 O.2     1  UNL1       -0.1499
     19 O         -26.7226   -5.0310  -12.8488 O.2     1  UNL1       -0.1499
     20 C         -24.0948   -8.1697  -10.5475 C.ar    1  UNL1        0.0152
     21 C         -22.7322   -8.0461  -10.9374 C.ar    1  UNL1       -0.0232
     22 C         -22.4152   -7.3449  -12.1108 C.ar    1  UNL1       -0.0031
     23 C         -23.4064   -6.7338  -12.8684 C.ar    1  UNL1        0.0207
     24 C         -24.7507   -6.8408  -12.5033 C.ar    1  UNL1        0.1354
     25 C         -25.1021   -7.5648  -11.3447 C.ar    1  UNL1        0.0746
     26 CL        -26.8100   -7.7504  -10.9170 Cl      1  UNL1       -0.0811
     27 C         -21.6236   -8.7719  -10.2032 C.3     1  UNL1        0.0221
     28 C         -21.1998  -10.1333  -10.7503 C.3     1  UNL1        0.0047
     29 C         -20.3273   -8.9187  -10.9903 C.3     1  UNL1        0.0047
     30 C         -24.4966   -9.0027   -9.3371 C.3     1  UNL1        0.1693
     31 C         -25.7843  -10.8023   -8.6338 C.3     1  UNL1        0.1746
     32 O         -25.0752  -10.2385   -9.7142 O.3     1  UNL1       -0.3463
     33 O         -24.1251   -5.4812  -17.6466 O.3     1  UNL1       -0.4513
     34 C         -23.6894   -6.7943  -17.4048 C.ar    1  UNL1        0.1580
     35 C         -22.9850   -7.1346  -16.2356 C.ar    1  UNL1        0.0677
     36 C         -22.5487   -8.4453  -16.0267 C.ar    1  UNL1        0.1398
     37 F         -21.8723   -8.7445  -14.8886 F       1  UNL1       -0.2044
     38 C         -22.8158   -9.4399  -16.9833 C.ar    1  UNL1        0.0175
     39 C         -23.5500   -9.1075  -18.1325 C.ar    1  UNL1        0.0130
     40 C         -23.9835   -7.7941  -18.3429 C.ar    1  UNL1        0.0919
     41 CL        -24.8831   -7.4082  -19.8016 Cl      1  UNL1       -0.0791
     42 C         -22.3824  -10.8626  -16.7540 C.3     1  UNL1        0.1382
     43 C         -22.9797  -11.7518  -17.7958 C.2     1  UNL1        0.3234
     44 O         -22.3106  -12.0500  -18.8223 O.2     1  UNL1       -0.2497
     45 O         -24.2982  -12.1956  -17.6437 O.3     1  UNL1       -0.4215
     46 C         -24.8357  -12.6739  -16.4112 C.3     1  UNL1        0.3207
     47 O         -24.3942  -11.8168  -15.3761 O.3     1  UNL1       -0.3070
     48 C         -25.1105  -12.0745  -14.1770 C.3     1  UNL1        0.2456
     49 C         -25.0893  -13.5848  -13.7761 C.3     1  UNL1        0.1781
     50 O         -26.3676  -14.1435  -13.9441 O.3     1  UNL1       -0.3790
     51 C         -24.0849  -14.3672  -14.6447 C.3     1  UNL1        0.1733
     52 O         -22.7736  -13.9623  -14.3393 O.3     1  UNL1       -0.3793
     53 C         -24.3534  -14.1242  -16.1491 C.3     1  UNL1        0.2106
     54 O         -25.3275  -15.0240  -16.6140 O.3     1  UNL1       -0.3766
     55 H         -26.9269  -13.8083  -13.1952 H       1  UNL1        0.2106
     56 H         -22.5407  -14.3717  -13.4651 H       1  UNL1        0.2105
     57 H         -24.8762  -15.8997  -16.7389 H       1  UNL1        0.2107
     58 C         -24.5096  -11.2410  -13.0836 C.2     1  UNL1        0.3439
     59 O         -24.0611  -10.0912  -13.3394 O.2     1  UNL1       -0.2475
     60 O         -24.4890  -11.7180  -11.7763 O.3     1  UNL1       -0.4785
     61 H         -24.1027  -11.1588  -11.0252 H       1  UNL1        0.2951
@<TRIPOS>BOND
     1    31    32    1
     2    32    30    1
     3    30    20    1
     4    20    21   ar
     5    21    27    1
     6    27    28    1
     7    28    29    1
     8    21    22   ar
     9    22    23   ar
    10    23    24   ar
    11    24    17    1
    12    17    18    2
    13    17    19    2
    14    17    15    1
    15    15     1    1
    16     1     2   ar
    17     2     3   ar
    18     3     7    1
    19     7     8    2
    20     7     9   am
    21     9    11    1
    22    11    12    1
    23    11    13    1
    24    11    14    1
    25     3     4   ar
    26     4     5   ar
    27     5     6   ar
    28     6    33    1
    29    33    34    1
    30    34    35   ar
    31    35    36   ar
    32    36    37    1
    33    36    38   ar
    34    38    42    1
    35    42    43    1
    36    43    44    2
    37    43    45    1
    38    45    46    1
    39    46    47    1
    40    47    48    1
    41    48    58    1
    42    58    59    2
    43    58    60    1
    44    48    49    1
    45    49    50    1
    46    49    51    1
    47    51    52    1
    48    51    53    1
    49    53    54    1
    50    38    39   ar
    51    39    40   ar
    52    40    41    1
    53    24    25   ar
    54    25    26    1
    55    25    20   ar
    56    29    27    1
    57     6     1   ar
    58    40    34   ar
    59    53    46    1
    60    15    16    1
    61     9    10    1
    62    60    61    1
    63    50    55    1
    64    52    56    1
    65    54    57    1
@<TRIPOS>MOLECULE
*****
 61 65 0 0 0
SMALL
GASTEIGER

@<TRIPOS>ATOM
      1 C         -26.8420   -4.3741  -15.9082 C.ar    1  UNL1        0.0993
      2 C         -28.1851   -4.1071  -15.5946 C.ar    1  UNL1        0.0235
      3 C         -29.0654   -3.5917  -16.5595 C.ar    1  UNL1        0.0548
      4 C         -28.5915   -3.3629  -17.8602 C.ar    1  UNL1        0.0077
      5 C         -27.2605   -3.6305  -18.1846 C.ar    1  UNL1        0.0390
      6 C         -26.3856   -4.1525  -17.2270 C.ar    1  UNL1        0.1598
      7 C         -30.4767   -3.2974  -16.2165 C.2     1  UNL1        0.2458
      8 O         -31.2500   -2.8735  -17.1170 O.2     1  UNL1       -0.2701
      9 N         -30.9581   -3.4716  -14.8682 N.am    1  UNL1       -0.3040
     10 H         -30.2407   -3.5692  -14.1139 H       1  UNL1        0.1496
     11 C         -32.3818   -3.5246  -14.4811 C.3     1  UNL1        0.0572
     12 C         -32.7073   -4.9369  -13.9525 C.3     1  UNL1        0.0196
     13 C         -33.2749   -3.2442  -15.7052 C.3     1  UNL1        0.0196
     14 C         -32.6702   -2.5061  -13.3610 C.3     1  UNL1        0.0196
     15 N         -25.9257   -4.7902  -14.8823 N.pl3   1  UNL1       -0.2120
     16 H         -24.9193   -4.5219  -14.9554 H       1  UNL1        0.1738
     17 S         -26.3552   -5.9253  -13.6418 S.O2    1  UNL1        0.0745
     18 O         -27.4744   -6.7984  -14.1348 O.2     1  UNL1       -0.1499
     19 O         -26.8427   -5.1643  -12.4402 O.2     1  UNL1       -0.1499
     20 C         -22.8016   -7.2948  -12.1268 C.ar    1  UNL1        0.0152
     21 C         -22.8591   -8.6711  -12.4826 C.ar    1  UNL1       -0.0232
     22 C         -23.9796   -9.1544  -13.1751 C.ar    1  UNL1       -0.0031
     23 C         -25.0076   -8.3012  -13.5561 C.ar    1  UNL1        0.0207
     24 C         -24.9712   -6.9459  -13.2188 C.ar    1  UNL1        0.1354
     25 C         -23.8711   -6.4373  -12.4968 C.ar    1  UNL1        0.0746
     26 CL        -23.8552   -4.7330  -12.0180 Cl      1  UNL1       -0.0811
     27 C         -21.8148   -9.6612  -12.0097 C.3     1  UNL1        0.0221
     28 C         -22.1841  -10.5520  -10.8255 C.3     1  UNL1        0.0047
     29 C         -22.1788  -11.1246  -12.2277 C.3     1  UNL1        0.0047
     30 C         -21.6538   -6.7432  -11.2909 C.3     1  UNL1        0.1693
     31 C         -21.0921   -7.1768   -9.0801 C.3     1  UNL1        0.1746
     32 O         -22.0259   -6.5597   -9.9375 O.3     1  UNL1       -0.3463
     33 O         -25.0669   -4.4313  -17.6126 O.3     1  UNL1       -0.4513
     34 C         -24.4824   -5.7082  -17.5989 C.ar    1  UNL1        0.1580
     35 C         -23.6473   -6.1264  -16.5469 C.ar    1  UNL1        0.0677
     36 C         -23.0652   -7.3964  -16.5655 C.ar    1  UNL1        0.1398
     37 F         -22.2647   -7.7728  -15.5360 F       1  UNL1       -0.2044
     38 C         -23.3146   -8.2724  -17.6359 C.ar    1  UNL1        0.0175
     39 C         -24.1768   -7.8682  -18.6672 C.ar    1  UNL1        0.0130
     40 C         -24.7564   -6.5951  -18.6499 C.ar    1  UNL1        0.0919
     41 CL        -25.8151   -6.1138  -19.9666 Cl      1  UNL1       -0.0791
     42 C         -22.7225   -9.6558  -17.6505 C.3     1  UNL1        0.1382
     43 C         -23.0267  -10.3543  -16.3651 C.2     1  UNL1        0.3234
     44 O         -22.0839  -10.6963  -15.6005 O.2     1  UNL1       -0.2497
     45 O         -24.3542  -10.6706  -16.0548 O.3     1  UNL1       -0.4215
     46 C         -24.8199  -12.0011  -15.8315 C.3     1  UNL1        0.3207
     47 O         -24.9572  -12.1914  -14.4365 O.3     1  UNL1       -0.3070
     48 C         -25.6714  -13.3887  -14.1654 C.3     1  UNL1        0.2456
     49 C         -25.0671  -14.6292  -14.8989 C.3     1  UNL1        0.1781
     50 O         -25.9381  -15.0565  -15.9155 O.3     1  UNL1       -0.3790
     51 C         -23.7018  -14.2830  -15.5249 C.3     1  UNL1        0.1733
     52 O         -22.7570  -14.0511  -14.5099 O.3     1  UNL1       -0.3793
     53 C         -23.8095  -13.0222  -16.4154 C.3     1  UNL1        0.2106
     54 O         -24.2170  -13.3832  -17.7108 O.3     1  UNL1       -0.3766
     55 H         -26.6967  -15.5150  -15.4680 H       1  UNL1        0.2106
     56 H         -22.5109  -14.9374  -14.1358 H       1  UNL1        0.2105
     57 H         -23.4202  -13.7563  -18.1713 H       1  UNL1        0.2107
     58 C         -25.6658  -13.6122  -12.6817 C.2     1  UNL1        0.3439
     59 O         -25.0717  -12.8002  -11.9226 O.2     1  UNL1       -0.2475
     60 O         -26.3563  -14.6913  -12.1378 O.3     1  UNL1       -0.4785
     61 H         -26.3760  -14.8443  -11.1368 H       1  UNL1        0.2951
@<TRIPOS>BOND
     1    31    32    1
     2    32    30    1
     3    30    20    1
     4    20    21   ar
     5    21    27    1
     6    27    28    1
     7    28    29    1
     8    21    22   ar
     9    22    23   ar
    10    23    24   ar
    11    24    17    1
    12    17    18    2
    13    17    19    2
    14    17    15    1
    15    15     1    1
    16     1     2   ar
    17     2     3   ar
    18     3     7    1
    19     7     8    2
    20     7     9   am
    21     9    11    1
    22    11    12    1
    23    11    13    1
    24    11    14    1
    25     3     4   ar
    26     4     5   ar
    27     5     6   ar
    28     6    33    1
    29    33    34    1
    30    34    35   ar
    31    35    36   ar
    32    36    37    1
    33    36    38   ar
    34    38    42    1
    35    42    43    1
    36    43    44    2
    37    43    45    1
    38    45    46    1
    39    46    47    1
    40    47    48    1
    41    48    58    1
    42    58    59    2
    43    58    60    1
    44    48    49    1
    45    49    50    1
    46    49    51    1
    47    51    52    1
    48    51    53    1
    49    53    54    1
    50    38    39   ar
    51    39    40   ar
    52    40    41    1
    53    24    25   ar
    54    25    26    1
    55    25    20   ar
    56    29    27    1
    57     6     1   ar
    58    40    34   ar
    59    53    46    1
    60    15    16    1
    61     9    10    1
    62    60    61    1
    63    50    55    1
    64    52    56    1
    65    54    57    1
