@<TRIPOS>MOLECULE
*****
 60 64 0 0 0
SMALL
GASTEIGER

@<TRIPOS>ATOM
      1 C          49.5024   11.8844  -18.8216 C.ar    1  UNL1        0.1605
      2 C          50.3994   12.3313  -17.8242 C.ar    1  UNL1        0.0887
      3 C          51.5980   12.9517  -18.2107 C.ar    1  UNL1        0.0108
      4 C          51.9471   13.0451  -19.5584 C.ar    1  UNL1        0.0392
      5 C          51.1146   12.5113  -20.5434 C.ar    1  UNL1        0.1628
      6 C          49.8605   11.9732  -20.1778 C.ar    1  UNL1        0.1331
      7 C          50.1311   12.1271  -16.3832 C.2     1  UNL1        0.2487
      8 O          50.4910   11.0477  -15.8411 O.2     1  UNL1       -0.2700
      9 N          49.4240   13.1279  -15.6241 N.am    1  UNL1       -0.3039
     10 H          49.0320   13.9356  -16.1604 H       1  UNL1        0.1496
     11 C          49.1703   13.0706  -14.1706 C.3     1  UNL1        0.0572
     12 C          48.2359   14.2193  -13.7436 C.3     1  UNL1        0.0196
     13 C          48.4811   11.7318  -13.8343 C.3     1  UNL1        0.0196
     14 C          50.4992   13.1445  -13.3934 C.3     1  UNL1        0.0196
     15 C          47.0447   12.1034  -18.7157 C.3     1  UNL1        0.2525
     16 O          48.2432   11.3689  -18.4948 O.3     1  UNL1       -0.4699
     17 N          48.9265   11.5487  -21.1772 N.pl3   1  UNL1       -0.2090
     18 H          48.4546   12.2744  -21.7591 H       1  UNL1        0.1740
     19 S          48.9708    9.9365  -21.8100 S.O2    1  UNL1        0.0746
     20 O          47.6113    9.3055  -21.7095 O.2     1  UNL1       -0.1499
     21 O          49.9405    9.1059  -21.0152 O.2     1  UNL1       -0.1499
     22 C          49.4803   10.0060  -23.5000 C.ar    1  UNL1        0.1356
     23 C          49.1114   11.1059  -24.2851 C.ar    1  UNL1        0.0207
     24 C          49.4454   11.1582  -25.6397 C.ar    1  UNL1       -0.0028
     25 C          50.1642   10.1049  -26.2413 C.ar    1  UNL1       -0.0216
     26 C          50.5415    9.0110  -25.4477 C.ar    1  UNL1        0.0085
     27 C          50.2082    8.9538  -24.0899 C.ar    1  UNL1        0.0762
     28 CL         50.7237    7.5441  -23.1701 Cl      1  UNL1       -0.0809
     29 C          50.5536   10.0788  -27.7100 C.3     1  UNL1        0.0224
     30 C          51.9784    9.6560  -28.0409 C.3     1  UNL1        0.0047
     31 C          50.8151    8.7192  -28.3438 C.3     1  UNL1        0.0047
     32 O          51.5588   12.5201  -21.8743 O.3     1  UNL1       -0.4512
     33 C          51.1089   13.4344  -22.8391 C.ar    1  UNL1        0.1580
     34 C          50.1791   14.4366  -22.5111 C.ar    1  UNL1        0.0677
     35 C          49.8351   15.4147  -23.4441 C.ar    1  UNL1        0.1398
     36 F          48.9797   16.4038  -23.0811 F       1  UNL1       -0.2044
     37 C          50.4110   15.4009  -24.7259 C.ar    1  UNL1        0.0175
     38 C          51.2772   14.3527  -25.0789 C.ar    1  UNL1        0.0130
     39 C          51.6055   13.3602  -24.1479 C.ar    1  UNL1        0.0919
     40 CL         52.7236   12.0843  -24.6042 Cl      1  UNL1       -0.0791
     41 C          50.2002   16.5606  -25.6621 C.3     1  UNL1        0.1382
     42 C          49.0685   16.2409  -26.5869 C.2     1  UNL1        0.3234
     43 O          48.6539   17.1167  -27.3944 O.2     1  UNL1       -0.2497
     44 O          48.4330   14.9988  -26.4917 O.3     1  UNL1       -0.4215
     45 C          47.1949   14.8080  -25.8090 C.3     1  UNL1        0.3207
     46 O          47.4221   13.9109  -24.7284 O.3     1  UNL1       -0.3070
     47 C          46.2021   13.4444  -24.1872 C.3     1  UNL1        0.2456
     48 C          45.5208   12.4470  -25.1627 C.3     1  UNL1        0.1781
     49 O          44.1281   12.4887  -24.9802 O.3     1  UNL1       -0.3790
     50 C          45.8540   12.7860  -26.6383 C.3     1  UNL1        0.1733
     51 O          46.9329   12.0145  -27.1116 O.3     1  UNL1       -0.3793
     52 C          46.1375   14.2915  -26.8281 C.3     1  UNL1        0.2106
     53 O          44.9457   15.0192  -26.6631 O.3     1  UNL1       -0.3766
     54 H          43.9361   12.0175  -24.1275 H       1  UNL1        0.2106
     55 H          47.7087   12.1623  -26.5122 H       1  UNL1        0.2105
     56 H          44.4099   14.8908  -27.4893 H       1  UNL1        0.2107
     57 C          46.4770   12.7837  -22.8675 C.2     1  UNL1        0.3439
     58 O          47.1066   13.4025  -21.9675 O.2     1  UNL1       -0.2475
     59 O          46.0418   11.4821  -22.6375 O.3     1  UNL1       -0.4785
     60 H          46.2097   11.0281  -21.7476 H       1  UNL1        0.2951
@<TRIPOS>BOND
     1    15    16    1
     2    16     1    1
     3     1     2   ar
     4     2     7    1
     5     7     8    2
     6     7     9   am
     7     9    11    1
     8    11    12    1
     9    11    13    1
    10    11    14    1
    11     2     3   ar
    12     3     4   ar
    13     4     5   ar
    14     5    32    1
    15    32    33    1
    16    33    34   ar
    17    34    35   ar
    18    35    36    1
    19    35    37   ar
    20    37    41    1
    21    41    42    1
    22    42    43    2
    23    42    44    1
    24    44    45    1
    25    45    46    1
    26    46    47    1
    27    47    57    1
    28    57    58    2
    29    57    59    1
    30    47    48    1
    31    48    49    1
    32    48    50    1
    33    50    51    1
    34    50    52    1
    35    52    53    1
    36    37    38   ar
    37    38    39   ar
    38    39    40    1
    39     5     6   ar
    40     6    17    1
    41    17    19    1
    42    19    20    2
    43    19    21    2
    44    19    22    1
    45    22    23   ar
    46    23    24   ar
    47    24    25   ar
    48    25    29    1
    49    29    30    1
    50    30    31    1
    51    25    26   ar
    52    26    27   ar
    53    27    28    1
    54     6     1   ar
    55    27    22   ar
    56    39    33   ar
    57    31    29    1
    58    52    45    1
    59     9    10    1
    60    59    60    1
    61    49    54    1
    62    51    55    1
    63    53    56    1
    64    17    18    1
@<TRIPOS>MOLECULE
*****
 60 64 0 0 0
SMALL
GASTEIGER

@<TRIPOS>ATOM
      1 C          50.1488   11.7023  -21.7252 C.ar    1  UNL1        0.1605
      2 C          49.2250   11.0673  -20.8636 C.ar    1  UNL1        0.0887
      3 C          48.1036   10.4276  -21.4150 C.ar    1  UNL1        0.0108
      4 C          47.8503   10.4944  -22.7855 C.ar    1  UNL1        0.0392
      5 C          48.7025   11.2095  -23.6285 C.ar    1  UNL1        0.1628
      6 C          49.8867   11.7742  -23.1042 C.ar    1  UNL1        0.1331
      7 C          49.3837   11.0923  -19.3924 C.2     1  UNL1        0.2487
      8 O          49.8837   10.0903  -18.8141 O.2     1  UNL1       -0.2700
      9 N          48.9265   12.2262  -18.6288 N.am    1  UNL1       -0.3039
     10 H          48.3972   12.9622  -19.1501 H       1  UNL1        0.1496
     11 C          49.1029   12.3976  -17.1728 C.3     1  UNL1        0.0572
     12 C          50.6009   12.4778  -16.8198 C.3     1  UNL1        0.0196
     13 C          48.4289   13.7155  -16.7379 C.3     1  UNL1        0.0196
     14 C          48.4356   11.2340  -16.4136 C.3     1  UNL1        0.0196
     15 C          51.4527   13.6219  -20.8800 C.3     1  UNL1        0.2525
     16 O          51.3423   12.2503  -21.2419 O.3     1  UNL1       -0.4699
     17 N          50.8490   12.3898  -23.9681 N.pl3   1  UNL1       -0.2090
     18 H          50.9796   13.4232  -23.9130 H       1  UNL1        0.1740
     19 S          52.1405   11.4675  -24.6631 S.O2    1  UNL1        0.0746
     20 O          52.8619   10.7012  -23.5913 O.2     1  UNL1       -0.1499
     21 O          53.1222   12.3915  -25.3298 O.2     1  UNL1       -0.1499
     22 C          51.4618   10.3499  -25.8510 C.ar    1  UNL1        0.1356
     23 C          51.4795   10.6947  -27.2086 C.ar    1  UNL1        0.0207
     24 C          50.8939    9.8607  -28.1630 C.ar    1  UNL1       -0.0028
     25 C          50.2769    8.6531  -27.7768 C.ar    1  UNL1       -0.0216
     26 C          50.2723    8.3068  -26.4171 C.ar    1  UNL1        0.0085
     27 C          50.8571    9.1400  -25.4570 C.ar    1  UNL1        0.0762
     28 CL         50.8064    8.6257  -23.7741 Cl      1  UNL1       -0.0809
     29 C          49.6058    7.6985  -28.7503 C.3     1  UNL1        0.0224
     30 C          48.8513    8.3183  -29.9186 C.3     1  UNL1        0.0047
     31 C          50.1799    7.6111  -30.1579 C.3     1  UNL1        0.0047
     32 O          48.3472   11.3514  -24.9784 O.3     1  UNL1       -0.4512
     33 C          47.4803   12.3467  -25.4548 C.ar    1  UNL1        0.1580
     34 C          47.0304   13.3800  -24.6143 C.ar    1  UNL1        0.0677
     35 C          46.2715   14.4308  -25.1296 C.ar    1  UNL1        0.1398
     36 F          45.9005   15.4446  -24.3073 F       1  UNL1       -0.2044
     37 C          45.9430   14.4604  -26.4957 C.ar    1  UNL1        0.0175
     38 C          46.3237   13.3864  -27.3175 C.ar    1  UNL1        0.0130
     39 C          47.0678   12.3223  -26.7943 C.ar    1  UNL1        0.0919
     40 CL         47.5652   11.0129  -27.8546 Cl      1  UNL1       -0.0791
     41 C          45.3023   15.6845  -27.0930 C.3     1  UNL1        0.1382
     42 C          46.1586   16.8754  -26.7990 C.2     1  UNL1        0.3234
     43 O          46.0113   17.4991  -25.7126 O.2     1  UNL1       -0.2497
     44 O          47.0606   17.3292  -27.7666 O.3     1  UNL1       -0.4215
     45 C          48.4739   17.3347  -27.5719 C.3     1  UNL1        0.3207
     46 O          48.7904   16.3287  -26.6171 O.3     1  UNL1       -0.3070
     47 C          50.1193   16.4648  -26.1537 C.3     1  UNL1        0.2456
     48 C          50.2465   17.7008  -25.2229 C.3     1  UNL1        0.1781
     49 O          51.5561   18.2058  -25.2890 O.3     1  UNL1       -0.3790
     50 C          49.2473   18.8152  -25.6266 C.3     1  UNL1        0.1733
     51 O          48.0715   18.7556  -24.8538 O.3     1  UNL1       -0.3793
     52 C          48.9115   18.7626  -27.1325 C.3     1  UNL1        0.2106
     53 O          50.0385   19.1487  -27.8796 O.3     1  UNL1       -0.3766
     54 H          52.1324   17.5768  -24.7807 H       1  UNL1        0.2106
     55 H          47.6787   17.8507  -24.9529 H       1  UNL1        0.2105
     56 H          50.1119   20.1363  -27.8054 H       1  UNL1        0.2107
     57 C          50.5092   15.2134  -25.4218 C.2     1  UNL1        0.3439
     58 O          50.5144   14.1041  -26.0206 O.2     1  UNL1       -0.2475
     59 O          50.8602   15.2755  -24.0767 O.3     1  UNL1       -0.4785
     60 H          51.1371   14.4411  -23.5732 H       1  UNL1        0.2951
@<TRIPOS>BOND
     1    15    16    1
     2    16     1    1
     3     1     2   ar
     4     2     7    1
     5     7     8    2
     6     7     9   am
     7     9    11    1
     8    11    12    1
     9    11    13    1
    10    11    14    1
    11     2     3   ar
    12     3     4   ar
    13     4     5   ar
    14     5    32    1
    15    32    33    1
    16    33    34   ar
    17    34    35   ar
    18    35    36    1
    19    35    37   ar
    20    37    41    1
    21    41    42    1
    22    42    43    2
    23    42    44    1
    24    44    45    1
    25    45    46    1
    26    46    47    1
    27    47    57    1
    28    57    58    2
    29    57    59    1
    30    47    48    1
    31    48    49    1
    32    48    50    1
    33    50    51    1
    34    50    52    1
    35    52    53    1
    36    37    38   ar
    37    38    39   ar
    38    39    40    1
    39     5     6   ar
    40     6    17    1
    41    17    19    1
    42    19    20    2
    43    19    21    2
    44    19    22    1
    45    22    23   ar
    46    23    24   ar
    47    24    25   ar
    48    25    29    1
    49    29    30    1
    50    30    31    1
    51    25    26   ar
    52    26    27   ar
    53    27    28    1
    54     6     1   ar
    55    27    22   ar
    56    39    33   ar
    57    31    29    1
    58    52    45    1
    59     9    10    1
    60    59    60    1
    61    49    54    1
    62    51    55    1
    63    53    56    1
    64    17    18    1
@<TRIPOS>MOLECULE
*****
 60 64 0 0 0
SMALL
GASTEIGER

@<TRIPOS>ATOM
      1 C          50.0879   11.7285  -18.8900 C.ar    1  UNL1        0.1605
      2 C          49.0384   11.5482  -17.9598 C.ar    1  UNL1        0.0887
      3 C          47.7243   11.4015  -18.4313 C.ar    1  UNL1        0.0108
      4 C          47.4399   11.5241  -19.7918 C.ar    1  UNL1        0.0392
      5 C          48.4574   11.8071  -20.7045 C.ar    1  UNL1        0.1628
      6 C          49.7971   11.8590  -20.2588 C.ar    1  UNL1        0.1331
      7 C          49.2791   11.5509  -16.4996 C.2     1  UNL1        0.2487
      8 O          49.8562   10.5619  -15.9731 O.2     1  UNL1       -0.2700
      9 N          48.8150   12.6465  -15.6860 N.am    1  UNL1       -0.3039
     10 H          48.2240   13.3675  -16.1600 H       1  UNL1        0.1496
     11 C          49.0659   12.7965  -14.2386 C.3     1  UNL1        0.0572
     12 C          50.5805   12.8497  -13.9595 C.3     1  UNL1        0.0196
     13 C          48.4349   14.1187  -13.7547 C.3     1  UNL1        0.0196
     14 C          48.4188   11.6335  -13.4613 C.3     1  UNL1        0.0196
     15 C          51.9415   12.7949  -17.6548 C.3     1  UNL1        0.2525
     16 O          51.4269   11.7602  -18.4848 O.3     1  UNL1       -0.4699
     17 N          50.8738   12.0058  -21.1919 N.pl3   1  UNL1       -0.2090
     18 H          50.9577   11.3154  -21.9692 H       1  UNL1        0.1740
     19 S          51.6677   13.5313  -21.4027 S.O2    1  UNL1        0.0746
     20 O          53.1580   13.3461  -21.3682 O.2     1  UNL1       -0.1499
     21 O          51.2784   14.4640  -20.2890 O.2     1  UNL1       -0.1499
     22 C          51.1802   14.2124  -22.9580 C.ar    1  UNL1        0.1356
     23 C          50.2948   15.2975  -22.9866 C.ar    1  UNL1        0.0207
     24 C          49.8425   15.8159  -24.2016 C.ar    1  UNL1       -0.0028
     25 C          50.2726   15.2578  -25.4228 C.ar    1  UNL1       -0.0216
     26 C          51.1687   14.1786  -25.3887 C.ar    1  UNL1        0.0085
     27 C          51.6239   13.6551  -24.1735 C.ar    1  UNL1        0.0762
     28 CL         52.7481   12.3015  -24.2251 Cl      1  UNL1       -0.0809
     29 C          49.8170   15.7538  -26.7851 C.3     1  UNL1        0.0224
     30 C          48.3354   16.0642  -26.9488 C.3     1  UNL1        0.0047
     31 C          49.3501   17.1995  -26.8868 C.3     1  UNL1        0.0047
     32 O          48.1114   12.0402  -22.0441 O.3     1  UNL1       -0.4512
     33 C          48.7965   11.4811  -23.1337 C.ar    1  UNL1        0.1580
     34 C          49.7229   10.4396  -22.9512 C.ar    1  UNL1        0.0677
     35 C          50.3032    9.8085  -24.0514 C.ar    1  UNL1        0.1398
     36 F          51.1494    8.7674  -23.8470 F       1  UNL1       -0.2044
     37 C          49.9713   10.2158  -25.3548 C.ar    1  UNL1        0.0175
     38 C          49.1082   11.3098  -25.5341 C.ar    1  UNL1        0.0130
     39 C          48.5427   11.9554  -24.4282 C.ar    1  UNL1        0.0919
     40 CL         47.4345   13.2945  -24.6837 Cl      1  UNL1       -0.0791
     41 C          50.4350    9.4116  -26.5396 C.3     1  UNL1        0.1382
     42 C          51.6684   10.0425  -27.1043 C.2     1  UNL1        0.3234
     43 O          51.8249   11.2915  -27.0244 O.2     1  UNL1       -0.2497
     44 O          52.5979    9.2478  -27.7827 O.3     1  UNL1       -0.4215
     45 C          52.6740    9.1815  -29.2058 C.3     1  UNL1        0.3207
     46 O          51.7747    8.1717  -29.6479 O.3     1  UNL1       -0.3070
     47 C          52.0028    7.8431  -31.0040 C.3     1  UNL1        0.2456
     48 C          53.3246    7.0429  -31.1545 C.3     1  UNL1        0.1781
     49 O          53.8692    7.2711  -32.4296 O.3     1  UNL1       -0.3790
     50 C          54.3584    7.4549  -30.0752 C.3     1  UNL1        0.1733
     51 O          54.3282    6.5779  -28.9737 O.3     1  UNL1       -0.3793
     52 C          54.1521    8.9138  -29.6146 C.3     1  UNL1        0.2106
     53 O          54.5077    9.7904  -30.6549 O.3     1  UNL1       -0.3766
     54 H          53.3126    6.7616  -33.0750 H       1  UNL1        0.2106
     55 H          53.4041    6.5593  -28.6150 H       1  UNL1        0.2105
     56 H          55.4999    9.8127  -30.6899 H       1  UNL1        0.2107
     57 C          50.8410    7.0388  -31.5111 C.2     1  UNL1        0.3439
     58 O          50.9609    6.3388  -32.5527 O.2     1  UNL1       -0.2475
     59 O          49.6256    7.0697  -30.8342 O.3     1  UNL1       -0.4785
     60 H          48.8368    6.5228  -31.1580 H       1  UNL1        0.2951
@<TRIPOS>BOND
     1    15    16    1
     2    16     1    1
     3     1     2   ar
     4     2     7    1
     5     7     8    2
     6     7     9   am
     7     9    11    1
     8    11    12    1
     9    11    13    1
    10    11    14    1
    11     2     3   ar
    12     3     4   ar
    13     4     5   ar
    14     5    32    1
    15    32    33    1
    16    33    34   ar
    17    34    35   ar
    18    35    36    1
    19    35    37   ar
    20    37    41    1
    21    41    42    1
    22    42    43    2
    23    42    44    1
    24    44    45    1
    25    45    46    1
    26    46    47    1
    27    47    57    1
    28    57    58    2
    29    57    59    1
    30    47    48    1
    31    48    49    1
    32    48    50    1
    33    50    51    1
    34    50    52    1
    35    52    53    1
    36    37    38   ar
    37    38    39   ar
    38    39    40    1
    39     5     6   ar
    40     6    17    1
    41    17    19    1
    42    19    20    2
    43    19    21    2
    44    19    22    1
    45    22    23   ar
    46    23    24   ar
    47    24    25   ar
    48    25    29    1
    49    29    30    1
    50    30    31    1
    51    25    26   ar
    52    26    27   ar
    53    27    28    1
    54     6     1   ar
    55    27    22   ar
    56    39    33   ar
    57    31    29    1
    58    52    45    1
    59     9    10    1
    60    59    60    1
    61    49    54    1
    62    51    55    1
    63    53    56    1
    64    17    18    1
@<TRIPOS>MOLECULE
*****
 60 64 0 0 0
SMALL
GASTEIGER

@<TRIPOS>ATOM
      1 C          49.7008   13.2733  -19.4856 C.ar    1  UNL1        0.1605
      2 C          51.0167   13.2116  -18.9718 C.ar    1  UNL1        0.0887
      3 C          52.0923   13.5639  -19.8023 C.ar    1  UNL1        0.0108
      4 C          51.8793   13.8816  -21.1442 C.ar    1  UNL1        0.0392
      5 C          50.5932   13.8420  -21.6850 C.ar    1  UNL1        0.1628
      6 C          49.4905   13.5864  -20.8395 C.ar    1  UNL1        0.1331
      7 C          51.2973   12.7464  -17.5953 C.2     1  UNL1        0.2487
      8 O          52.3359   12.0659  -17.3795 O.2     1  UNL1       -0.2700
      9 N          50.3698   13.0259  -16.5278 N.am    1  UNL1       -0.3039
     10 H          49.4635   13.4730  -16.7967 H       1  UNL1        0.1496
     11 C          50.5808   12.6838  -15.1069 C.3     1  UNL1        0.0572
     12 C          52.0112   13.0578  -14.6719 C.3     1  UNL1        0.0196
     13 C          49.5842   13.4862  -14.2448 C.3     1  UNL1        0.0196
     14 C          50.3267   11.1812  -14.8761 C.3     1  UNL1        0.0196
     15 C          48.0144   11.7564  -18.5087 C.3     1  UNL1        0.2525
     16 O          48.5860   13.0494  -18.6700 O.3     1  UNL1       -0.4699
     17 N          48.1503   13.6793  -21.3361 N.pl3   1  UNL1       -0.2090
     18 H          47.7557   14.6247  -21.5327 H       1  UNL1        0.1740
     19 S          47.3954   12.3310  -22.1196 S.O2    1  UNL1        0.0746
     20 O          46.0390   12.0818  -21.5244 O.2     1  UNL1       -0.1499
     21 O          48.2336   11.0974  -21.9262 O.2     1  UNL1       -0.1499
     22 C          47.2415   12.6915  -23.8421 C.ar    1  UNL1        0.1356
     23 C          47.3167   11.6474  -24.7730 C.ar    1  UNL1        0.0207
     24 C          47.2620   11.9095  -26.1433 C.ar    1  UNL1       -0.0028
     25 C          47.1261   13.2313  -26.6147 C.ar    1  UNL1       -0.0216
     26 C          47.0393   14.2723  -25.6779 C.ar    1  UNL1        0.0085
     27 C          47.0947   14.0145  -24.3037 C.ar    1  UNL1        0.0762
     28 CL         46.9767   15.3810  -23.2002 Cl      1  UNL1       -0.0809
     29 C          47.0732   13.6015  -28.0877 C.3     1  UNL1        0.0224
     30 C          46.1680   12.7633  -28.9800 C.3     1  UNL1        0.0047
     31 C          45.7730   14.1900  -28.6184 C.3     1  UNL1        0.0047
     32 O          50.4383   14.0515  -23.0637 O.3     1  UNL1       -0.4512
     33 C          50.7543   13.0916  -24.0373 C.ar    1  UNL1        0.1580
     34 C          51.0527   11.7654  -23.6787 C.ar    1  UNL1        0.0677
     35 C          51.2421   10.7929  -24.6604 C.ar    1  UNL1        0.1398
     36 F          51.4708    9.5090  -24.2849 F       1  UNL1       -0.2044
     37 C          51.1438   11.1342  -26.0201 C.ar    1  UNL1        0.0175
     38 C          50.9264   12.4753  -26.3780 C.ar    1  UNL1        0.0130
     39 C          50.7570   13.4539  -25.3914 C.ar    1  UNL1        0.0919
     40 CL         50.4456   15.1158  -25.8683 Cl      1  UNL1       -0.0791
     41 C          51.1462   10.0577  -27.0722 C.3     1  UNL1        0.1382
     42 C          52.3549   10.2248  -27.9377 C.2     1  UNL1        0.3234
     43 O          52.6926   11.3766  -28.3251 O.2     1  UNL1       -0.2497
     44 O          53.0523    9.0924  -28.3703 O.3     1  UNL1       -0.4215
     45 C          53.5670    8.9533  -29.6936 C.3     1  UNL1        0.3207
     46 O          52.9102    7.8507  -30.3075 O.3     1  UNL1       -0.3070
     47 C          53.5644    7.4667  -31.5006 C.3     1  UNL1        0.2456
     48 C          54.9140    6.7695  -31.1804 C.3     1  UNL1        0.1781
     49 O          55.8102    6.9699  -32.2441 O.3     1  UNL1       -0.3790
     50 C          55.5382    7.3237  -29.8741 C.3     1  UNL1        0.1733
     51 O          55.2231    6.5099  -28.7687 O.3     1  UNL1       -0.3793
     52 C          55.1124    8.7843  -29.6128 C.3     1  UNL1        0.2106
     53 O          55.7176    9.6277  -30.5613 O.3     1  UNL1       -0.3766
     54 H          55.5112    6.3817  -32.9861 H       1  UNL1        0.2106
     55 H          54.2364    6.4362  -28.7068 H       1  UNL1        0.2105
     56 H          56.6691    9.7286  -30.2954 H       1  UNL1        0.2107
     57 C          52.6661    6.5436  -32.2719 C.2     1  UNL1        0.3439
     58 O          51.4138    6.6667  -32.1950 O.2     1  UNL1       -0.2475
     59 O          53.2156    5.5446  -33.0696 O.3     1  UNL1       -0.4785
     60 H          52.6220    4.9222  -33.6049 H       1  UNL1        0.2951
@<TRIPOS>BOND
     1    15    16    1
     2    16     1    1
     3     1     2   ar
     4     2     7    1
     5     7     8    2
     6     7     9   am
     7     9    11    1
     8    11    12    1
     9    11    13    1
    10    11    14    1
    11     2     3   ar
    12     3     4   ar
    13     4     5   ar
    14     5    32    1
    15    32    33    1
    16    33    34   ar
    17    34    35   ar
    18    35    36    1
    19    35    37   ar
    20    37    41    1
    21    41    42    1
    22    42    43    2
    23    42    44    1
    24    44    45    1
    25    45    46    1
    26    46    47    1
    27    47    57    1
    28    57    58    2
    29    57    59    1
    30    47    48    1
    31    48    49    1
    32    48    50    1
    33    50    51    1
    34    50    52    1
    35    52    53    1
    36    37    38   ar
    37    38    39   ar
    38    39    40    1
    39     5     6   ar
    40     6    17    1
    41    17    19    1
    42    19    20    2
    43    19    21    2
    44    19    22    1
    45    22    23   ar
    46    23    24   ar
    47    24    25   ar
    48    25    29    1
    49    29    30    1
    50    30    31    1
    51    25    26   ar
    52    26    27   ar
    53    27    28    1
    54     6     1   ar
    55    27    22   ar
    56    39    33   ar
    57    31    29    1
    58    52    45    1
    59     9    10    1
    60    59    60    1
    61    49    54    1
    62    51    55    1
    63    53    56    1
    64    17    18    1
@<TRIPOS>MOLECULE
*****
 60 64 0 0 0
SMALL
GASTEIGER

@<TRIPOS>ATOM
      1 C          51.7227   10.8295  -26.2494 C.ar    1  UNL1        0.1605
      2 C          51.3143    9.5636  -26.7289 C.ar    1  UNL1        0.0887
      3 C          50.6273    8.6946  -25.8665 C.ar    1  UNL1        0.0108
      4 C          50.4294    9.0327  -24.5273 C.ar    1  UNL1        0.0392
      5 C          50.9230   10.2361  -24.0210 C.ar    1  UNL1        0.1628
      6 C          51.5285   11.1637  -24.8981 C.ar    1  UNL1        0.1331
      7 C          51.6263    9.1102  -28.1027 C.2     1  UNL1        0.2487
      8 O          50.7110    9.1094  -28.9691 O.2     1  UNL1       -0.2700
      9 N          52.9453    8.6299  -28.4302 N.am    1  UNL1       -0.3039
     10 H          53.6188    8.5258  -27.6369 H       1  UNL1        0.1496
     11 C          53.3936    8.2291  -29.7788 C.3     1  UNL1        0.0572
     12 C          53.6417    9.4735  -30.6534 C.3     1  UNL1        0.0196
     13 C          54.7187    7.4486  -29.6554 C.3     1  UNL1        0.0196
     14 C          52.3460    7.3113  -30.4389 C.3     1  UNL1        0.0196
     15 C          53.7120   11.9624  -27.1758 C.3     1  UNL1        0.2525
     16 O          52.3031   11.7800  -27.0966 O.3     1  UNL1       -0.4699
     17 N          51.9157   12.4628  -24.4361 N.pl3   1  UNL1       -0.2090
     18 H          52.9177   12.6298  -24.1995 H       1  UNL1        0.1740
     19 S          50.9430   13.8556  -24.7766 S.O2    1  UNL1        0.0746
     20 O          51.1529   14.2964  -26.1971 O.2     1  UNL1       -0.1499
     21 O          51.3371   14.9849  -23.8649 O.2     1  UNL1       -0.1499
     22 C          49.2462   13.4369  -24.5192 C.ar    1  UNL1        0.1356
     23 C          48.7080   12.3171  -25.1663 C.ar    1  UNL1        0.0207
     24 C          47.3553   11.9985  -25.0321 C.ar    1  UNL1       -0.0028
     25 C          46.5067   12.7976  -24.2388 C.ar    1  UNL1       -0.0216
     26 C          47.0533   13.9113  -23.5834 C.ar    1  UNL1        0.0085
     27 C          48.4082   14.2350  -23.7156 C.ar    1  UNL1        0.0762
     28 CL         49.0086   15.6491  -22.8563 Cl      1  UNL1       -0.0809
     29 C          45.0228   12.5276  -24.0531 C.3     1  UNL1        0.0224
     30 C          44.0545   13.4749  -24.7483 C.3     1  UNL1        0.0047
     31 C          44.2369   12.0540  -25.2683 C.3     1  UNL1        0.0047
     32 O          50.8073   10.4828  -22.6447 O.3     1  UNL1       -0.4512
     33 C          49.6275   10.9300  -22.0305 C.ar    1  UNL1        0.1580
     34 C          48.4493   10.1645  -22.0787 C.ar    1  UNL1        0.0677
     35 C          47.3203   10.5583  -21.3605 C.ar    1  UNL1        0.1398
     36 F          46.2161    9.7696  -21.3784 F       1  UNL1       -0.2044
     37 C          47.3496   11.7314  -20.5871 C.ar    1  UNL1        0.0175
     38 C          48.4999   12.5376  -20.6048 C.ar    1  UNL1        0.0130
     39 C          49.6251   12.1515  -21.3428 C.ar    1  UNL1        0.0919
     40 CL         51.0642   13.1587  -21.3134 Cl      1  UNL1       -0.0791
     41 C          46.2111   12.0519  -19.6560 C.3     1  UNL1        0.1382
     42 C          46.7076   12.0065  -18.2455 C.2     1  UNL1        0.3234
     43 O          46.8099   10.8974  -17.6537 O.2     1  UNL1       -0.2497
     44 O          46.9798   13.2026  -17.5739 O.3     1  UNL1       -0.4215
     45 C          48.2752   13.5417  -17.0817 C.3     1  UNL1        0.3207
     46 O          49.2286   12.7283  -17.7551 O.3     1  UNL1       -0.3070
     47 C          50.4916   12.7923  -17.1228 C.3     1  UNL1        0.2456
     48 C          50.4628   12.0270  -15.7724 C.3     1  UNL1        0.1781
     49 O          51.4018   12.5914  -14.8925 O.3     1  UNL1       -0.3790
     50 C          49.0559   12.0820  -15.1237 C.3     1  UNL1        0.1733
     51 O          48.3055   10.9292  -15.4257 O.3     1  UNL1       -0.3793
     52 C          48.2865   13.3551  -15.5363 C.3     1  UNL1        0.2106
     53 O          48.8849   14.4800  -14.9414 O.3     1  UNL1       -0.3766
     54 H          52.2988   12.3045  -15.2071 H       1  UNL1        0.2106
     55 H          48.2566   10.8382  -16.4117 H       1  UNL1        0.2105
     56 H          48.6170   14.4801  -13.9851 H       1  UNL1        0.2107
     57 C          51.5242   12.2026  -18.0391 C.2     1  UNL1        0.3439
     58 O          51.2445   11.1968  -18.7460 O.2     1  UNL1       -0.2475
     59 O          52.7963   12.7626  -18.1051 O.3     1  UNL1       -0.4785
     60 H          53.4994   12.3826  -18.7277 H       1  UNL1        0.2951
@<TRIPOS>BOND
     1    15    16    1
     2    16     1    1
     3     1     2   ar
     4     2     7    1
     5     7     8    2
     6     7     9   am
     7     9    11    1
     8    11    12    1
     9    11    13    1
    10    11    14    1
    11     2     3   ar
    12     3     4   ar
    13     4     5   ar
    14     5    32    1
    15    32    33    1
    16    33    34   ar
    17    34    35   ar
    18    35    36    1
    19    35    37   ar
    20    37    41    1
    21    41    42    1
    22    42    43    2
    23    42    44    1
    24    44    45    1
    25    45    46    1
    26    46    47    1
    27    47    57    1
    28    57    58    2
    29    57    59    1
    30    47    48    1
    31    48    49    1
    32    48    50    1
    33    50    51    1
    34    50    52    1
    35    52    53    1
    36    37    38   ar
    37    38    39   ar
    38    39    40    1
    39     5     6   ar
    40     6    17    1
    41    17    19    1
    42    19    20    2
    43    19    21    2
    44    19    22    1
    45    22    23   ar
    46    23    24   ar
    47    24    25   ar
    48    25    29    1
    49    29    30    1
    50    30    31    1
    51    25    26   ar
    52    26    27   ar
    53    27    28    1
    54     6     1   ar
    55    27    22   ar
    56    39    33   ar
    57    31    29    1
    58    52    45    1
    59     9    10    1
    60    59    60    1
    61    49    54    1
    62    51    55    1
    63    53    56    1
    64    17    18    1
@<TRIPOS>MOLECULE
*****
 60 64 0 0 0
SMALL
GASTEIGER

@<TRIPOS>ATOM
      1 C          50.0944   12.2782  -18.4575 C.ar    1  UNL1        0.1605
      2 C          48.8983   12.4418  -17.7215 C.ar    1  UNL1        0.0887
      3 C          47.6831   12.5738  -18.4120 C.ar    1  UNL1        0.0108
      4 C          47.6613   12.6368  -19.8057 C.ar    1  UNL1        0.0392
      5 C          48.8501   12.5817  -20.5351 C.ar    1  UNL1        0.1628
      6 C          50.0698   12.3495  -19.8609 C.ar    1  UNL1        0.1331
      7 C          48.8942   12.5194  -16.2437 C.2     1  UNL1        0.2487
      8 O          48.2647   13.4558  -15.6822 O.2     1  UNL1       -0.2700
      9 N          49.6410   11.5665  -15.4613 N.am    1  UNL1       -0.3039
     10 H          50.2518   10.9008  -15.9879 H       1  UNL1        0.1496
     11 C          49.6472   11.4963  -13.9864 C.3     1  UNL1        0.0572
     12 C          48.2183   11.2730  -13.4540 C.3     1  UNL1        0.0196
     13 C          50.5231   10.3054  -13.5448 C.3     1  UNL1        0.0196
     14 C          50.2437   12.7877  -13.3929 C.3     1  UNL1        0.0196
     15 C          51.9829   13.0089  -17.0436 C.3     1  UNL1        0.2525
     16 O          51.3149   12.0229  -17.8222 O.3     1  UNL1       -0.4699
     17 N          51.2839   12.1468  -20.5932 N.pl3   1  UNL1       -0.2090
     18 H          51.3698   11.2962  -21.1907 H       1  UNL1        0.1740
     19 S          52.3390   13.4732  -20.9529 S.O2    1  UNL1        0.0746
     20 O          53.7486   12.9810  -21.1171 O.2     1  UNL1       -0.1499
     21 O          52.3102   14.4653  -19.8229 O.2     1  UNL1       -0.1499
     22 C          51.7909   14.2431  -22.4454 C.ar    1  UNL1        0.1356
     23 C          51.6954   15.6394  -22.5044 C.ar    1  UNL1        0.0207
     24 C          51.2054   16.2721  -23.6484 C.ar    1  UNL1       -0.0028
     25 C          50.8010   15.5158  -24.7675 C.ar    1  UNL1       -0.0216
     26 C          50.9097   14.1182  -24.7076 C.ar    1  UNL1        0.0085
     27 C          51.3993   13.4796  -23.5628 C.ar    1  UNL1        0.0762
     28 CL         51.5027   11.7223  -23.5760 Cl      1  UNL1       -0.0809
     29 C          50.2445   16.1262  -26.0431 C.3     1  UNL1        0.0224
     30 C          49.6474   17.5229  -25.9390 C.3     1  UNL1        0.0047
     31 C          50.9872   17.3163  -26.6352 C.3     1  UNL1        0.0047
     32 O          48.7940   12.7682  -21.9246 O.3     1  UNL1       -0.4512
     33 C          47.9722   13.7183  -22.5500 C.ar    1  UNL1        0.1580
     34 C          48.2692   15.0908  -22.4832 C.ar    1  UNL1        0.0677
     35 C          47.5177   16.0131  -23.2113 C.ar    1  UNL1        0.1398
     36 F          47.8634   17.3249  -23.1742 F       1  UNL1       -0.2044
     37 C          46.4494   15.5768  -24.0133 C.ar    1  UNL1        0.0175
     38 C          46.1029   14.2154  -24.0152 C.ar    1  UNL1        0.0130
     39 C          46.8454   13.2937  -23.2676 C.ar    1  UNL1        0.0919
     40 CL         46.4144   11.5914  -23.3214 Cl      1  UNL1       -0.0791
     41 C          45.7679   16.5358  -24.9523 C.3     1  UNL1        0.1382
     42 C          46.0993   16.1568  -26.3611 C.2     1  UNL1        0.3234
     43 O          46.6667   16.9922  -27.1168 O.2     1  UNL1       -0.2497
     44 O          45.7066   14.9055  -26.8467 O.3     1  UNL1       -0.4215
     45 C          46.5749   14.0509  -27.5890 C.3     1  UNL1        0.3207
     46 O          45.8570   13.5679  -28.7183 O.3     1  UNL1       -0.3070
     47 C          46.5405   12.4963  -29.3375 C.3     1  UNL1        0.2456
     48 C          46.4571   11.2185  -28.4597 C.3     1  UNL1        0.1781
     49 O          47.5847   10.4134  -28.6936 O.3     1  UNL1       -0.3790
     50 C          46.3860   11.5743  -26.9525 C.3     1  UNL1        0.1733
     51 O          45.0557   11.5903  -26.4906 O.3     1  UNL1       -0.3793
     52 C          47.0829   12.9181  -26.6498 C.3     1  UNL1        0.2106
     53 O          48.4723   12.7745  -26.8118 O.3     1  UNL1       -0.3766
     54 H          47.4567    9.9913  -29.5832 H       1  UNL1        0.2106
     55 H          44.5398   12.2280  -27.0476 H       1  UNL1        0.2105
     56 H          48.8081   12.2814  -26.0179 H       1  UNL1        0.2107
     57 C          45.9323   12.2471  -30.6873 C.2     1  UNL1        0.3439
     58 O          45.3893   13.1913  -31.3221 O.2     1  UNL1       -0.2475
     59 O          45.9616   10.9696  -31.2380 O.3     1  UNL1       -0.4785
     60 H          45.5658   10.7893  -32.1529 H       1  UNL1        0.2951
@<TRIPOS>BOND
     1    15    16    1
     2    16     1    1
     3     1     2   ar
     4     2     7    1
     5     7     8    2
     6     7     9   am
     7     9    11    1
     8    11    12    1
     9    11    13    1
    10    11    14    1
    11     2     3   ar
    12     3     4   ar
    13     4     5   ar
    14     5    32    1
    15    32    33    1
    16    33    34   ar
    17    34    35   ar
    18    35    36    1
    19    35    37   ar
    20    37    41    1
    21    41    42    1
    22    42    43    2
    23    42    44    1
    24    44    45    1
    25    45    46    1
    26    46    47    1
    27    47    57    1
    28    57    58    2
    29    57    59    1
    30    47    48    1
    31    48    49    1
    32    48    50    1
    33    50    51    1
    34    50    52    1
    35    52    53    1
    36    37    38   ar
    37    38    39   ar
    38    39    40    1
    39     5     6   ar
    40     6    17    1
    41    17    19    1
    42    19    20    2
    43    19    21    2
    44    19    22    1
    45    22    23   ar
    46    23    24   ar
    47    24    25   ar
    48    25    29    1
    49    29    30    1
    50    30    31    1
    51    25    26   ar
    52    26    27   ar
    53    27    28    1
    54     6     1   ar
    55    27    22   ar
    56    39    33   ar
    57    31    29    1
    58    52    45    1
    59     9    10    1
    60    59    60    1
    61    49    54    1
    62    51    55    1
    63    53    56    1
    64    17    18    1
@<TRIPOS>MOLECULE
*****
 60 64 0 0 0
SMALL
GASTEIGER

@<TRIPOS>ATOM
      1 C          51.3077    8.8576  -28.8875 C.ar    1  UNL1        0.1605
      2 C          51.4014    8.0747  -30.0611 C.ar    1  UNL1        0.0887
      3 C          50.2261    7.7194  -30.7418 C.ar    1  UNL1        0.0108
      4 C          48.9753    8.0528  -30.2212 C.ar    1  UNL1        0.0392
      5 C          48.8730    8.7348  -29.0076 C.ar    1  UNL1        0.1628
      6 C          50.0461    9.1853  -28.3618 C.ar    1  UNL1        0.1331
      7 C          52.7007    7.5830  -30.5711 C.2     1  UNL1        0.2487
      8 O          52.7187    6.8613  -31.6041 O.2     1  UNL1       -0.2700
      9 N          53.9218    7.8846  -29.8669 N.am    1  UNL1       -0.3039
     10 H          53.8261    8.3687  -28.9448 H       1  UNL1        0.1496
     11 C          55.2780    7.5180  -30.3214 C.3     1  UNL1        0.0572
     12 C          55.2572    7.1290  -31.8124 C.3     1  UNL1        0.0196
     13 C          56.2106    8.7349  -30.1486 C.3     1  UNL1        0.0196
     14 C          55.8296    6.3557  -29.4726 C.3     1  UNL1        0.0196
     15 C          52.8897   10.6852  -28.3812 C.3     1  UNL1        0.2525
     16 O          52.4489    9.3400  -28.2371 O.3     1  UNL1       -0.4699
     17 N          49.9677   10.0084  -27.1923 N.pl3   1  UNL1       -0.2090
     18 H          49.3170   10.8236  -27.1989 H       1  UNL1        0.1740
     19 S          50.4623    9.4064  -25.6449 S.O2    1  UNL1        0.0746
     20 O          51.9505    9.5407  -25.4909 O.2     1  UNL1       -0.1499
     21 O          50.1014    7.9512  -25.5276 O.2     1  UNL1       -0.1499
     22 C          49.6394   10.3351  -24.3875 C.ar    1  UNL1        0.1356
     23 C          49.0428    9.6615  -23.3139 C.ar    1  UNL1        0.0207
     24 C          48.3314   10.3638  -22.3392 C.ar    1  UNL1       -0.0028
     25 C          48.2041   11.7659  -22.4165 C.ar    1  UNL1       -0.0216
     26 C          48.8135   12.4369  -23.4875 C.ar    1  UNL1        0.0085
     27 C          49.5267   11.7372  -24.4672 C.ar    1  UNL1        0.0762
     28 CL         50.2600   12.6604  -25.7744 Cl      1  UNL1       -0.0809
     29 C          47.4359   12.6013  -21.4058 C.3     1  UNL1        0.0224
     30 C          46.1281   12.0241  -20.8819 C.3     1  UNL1        0.0047
     31 C          47.3541   12.0778  -19.9783 C.3     1  UNL1        0.0047
     32 O          47.5978    8.9448  -28.4614 O.3     1  UNL1       -0.4512
     33 C          47.0587   10.2156  -28.2091 C.ar    1  UNL1        0.1580
     34 C          46.8926   10.6854  -26.8946 C.ar    1  UNL1        0.0677
     35 C          46.4738   11.9949  -26.6593 C.ar    1  UNL1        0.1398
     36 F          46.3786   12.4397  -25.3807 F       1  UNL1       -0.2044
     37 C          46.2058   12.8548  -27.7381 C.ar    1  UNL1        0.0175
     38 C          46.2936   12.3594  -29.0498 C.ar    1  UNL1        0.0130
     39 C          46.6942   11.0386  -29.2837 C.ar    1  UNL1        0.0919
     40 CL         46.8347   10.4588  -30.9361 Cl      1  UNL1       -0.0791
     41 C          45.9513   14.3180  -27.4937 C.3     1  UNL1        0.1382
     42 C          47.2205   14.9634  -27.0346 C.2     1  UNL1        0.3234
     43 O          48.0936   15.2985  -27.8808 O.2     1  UNL1       -0.2497
     44 O          47.4566   15.1179  -25.6649 O.3     1  UNL1       -0.4215
     45 C          48.1139   16.2569  -25.1117 C.3     1  UNL1        0.3207
     46 O          48.0109   17.3225  -26.0486 O.3     1  UNL1       -0.3070
     47 C          48.8792   18.3857  -25.7100 C.3     1  UNL1        0.2456
     48 C          50.3551   17.9909  -25.9859 C.3     1  UNL1        0.1781
     49 O          51.2008   18.6945  -25.1116 O.3     1  UNL1       -0.3790
     50 C          50.5758   16.4682  -25.7964 C.3     1  UNL1        0.1733
     51 O          50.4988   15.7814  -27.0235 O.3     1  UNL1       -0.3793
     52 C          49.5840   15.8704  -24.7756 C.3     1  UNL1        0.2106
     53 O          49.8986   16.3352  -23.4863 O.3     1  UNL1       -0.3766
     54 H          51.2343   19.6321  -25.4370 H       1  UNL1        0.2106
     55 H          49.6205   15.9807  -27.4380 H       1  UNL1        0.2105
     56 H          50.7011   15.8341  -23.1845 H       1  UNL1        0.2107
     57 C          48.5005   19.5967  -26.5123 C.2     1  UNL1        0.3439
     58 O          47.6902   20.4406  -26.0425 O.2     1  UNL1       -0.2475
     59 O          49.0397   19.7869  -27.7809 O.3     1  UNL1       -0.4785
     60 H          48.8025   20.6054  -28.3287 H       1  UNL1        0.2951
@<TRIPOS>BOND
     1    15    16    1
     2    16     1    1
     3     1     2   ar
     4     2     7    1
     5     7     8    2
     6     7     9   am
     7     9    11    1
     8    11    12    1
     9    11    13    1
    10    11    14    1
    11     2     3   ar
    12     3     4   ar
    13     4     5   ar
    14     5    32    1
    15    32    33    1
    16    33    34   ar
    17    34    35   ar
    18    35    36    1
    19    35    37   ar
    20    37    41    1
    21    41    42    1
    22    42    43    2
    23    42    44    1
    24    44    45    1
    25    45    46    1
    26    46    47    1
    27    47    57    1
    28    57    58    2
    29    57    59    1
    30    47    48    1
    31    48    49    1
    32    48    50    1
    33    50    51    1
    34    50    52    1
    35    52    53    1
    36    37    38   ar
    37    38    39   ar
    38    39    40    1
    39     5     6   ar
    40     6    17    1
    41    17    19    1
    42    19    20    2
    43    19    21    2
    44    19    22    1
    45    22    23   ar
    46    23    24   ar
    47    24    25   ar
    48    25    29    1
    49    29    30    1
    50    30    31    1
    51    25    26   ar
    52    26    27   ar
    53    27    28    1
    54     6     1   ar
    55    27    22   ar
    56    39    33   ar
    57    31    29    1
    58    52    45    1
    59     9    10    1
    60    59    60    1
    61    49    54    1
    62    51    55    1
    63    53    56    1
    64    17    18    1
@<TRIPOS>MOLECULE
*****
 60 64 0 0 0
SMALL
GASTEIGER

@<TRIPOS>ATOM
      1 C          50.8448   10.4588  -27.3570 C.ar    1  UNL1        0.1605
      2 C          52.1858   10.7156  -27.7243 C.ar    1  UNL1        0.0887
      3 C          52.9379   11.6309  -26.9711 C.ar    1  UNL1        0.0108
      4 C          52.3477   12.3492  -25.9307 C.ar    1  UNL1        0.0392
      5 C          50.9954   12.1774  -25.6305 C.ar    1  UNL1        0.1628
      6 C          50.2512   11.1894  -26.3133 C.ar    1  UNL1        0.1331
      7 C          52.8083   10.0781  -28.9059 C.2     1  UNL1        0.2487
      8 O          52.8373   10.7087  -29.9968 O.2     1  UNL1       -0.2700
      9 N          53.3284    8.7364  -28.8214 N.am    1  UNL1       -0.3039
     10 H          53.1505    8.2178  -27.9308 H       1  UNL1        0.1496
     11 C          54.0395    8.0304  -29.9059 C.3     1  UNL1        0.0572
     12 C          55.2046    8.8908  -30.4324 C.3     1  UNL1        0.0196
     13 C          54.6192    6.7128  -29.3507 C.3     1  UNL1        0.0196
     14 C          53.0650    7.6909  -31.0508 C.3     1  UNL1        0.0196
     15 C          50.0887    8.1165  -27.5601 C.3     1  UNL1        0.2525
     16 O          50.0877    9.4708  -27.9964 O.3     1  UNL1       -0.4699
     17 N          48.9034   10.8930  -25.9302 N.pl3   1  UNL1       -0.2090
     18 H          48.7378   10.1297  -25.2388 H       1  UNL1        0.1740
     19 S          47.6432   12.0655  -26.1274 S.O2    1  UNL1        0.0746
     20 O          48.1664   13.4408  -25.8255 O.2     1  UNL1       -0.1499
     21 O          46.5176   11.7654  -25.1762 O.2     1  UNL1       -0.1499
     22 C          47.0601   11.9941  -27.7934 C.ar    1  UNL1        0.1356
     23 C          47.2800   10.8361  -28.5503 C.ar    1  UNL1        0.0207
     24 C          46.8869   10.7745  -29.8886 C.ar    1  UNL1       -0.0028
     25 C          46.2573   11.8772  -30.5015 C.ar    1  UNL1       -0.0216
     26 C          46.0287   13.0304  -29.7356 C.ar    1  UNL1        0.0085
     27 C          46.4218   13.0970  -28.3943 C.ar    1  UNL1        0.0762
     28 CL         46.0939   14.5828  -27.5090 Cl      1  UNL1       -0.0809
     29 C          45.8126   11.8956  -31.9546 C.3     1  UNL1        0.0224
     30 C          44.5827   12.7275  -32.2916 C.3     1  UNL1        0.0047
     31 C          45.9658   13.2029  -32.7201 C.3     1  UNL1        0.0047
     32 O          50.4137   13.0045  -24.6577 O.3     1  UNL1       -0.4512
     33 C          50.8690   13.0872  -23.3330 C.ar    1  UNL1        0.1580
     34 C          52.2397   13.2034  -23.0428 C.ar    1  UNL1        0.0677
     35 C          52.6700   13.4104  -21.7323 C.ar    1  UNL1        0.1398
     36 F          53.9946   13.5775  -21.4893 F       1  UNL1       -0.2044
     37 C          51.7341   13.4965  -20.6875 C.ar    1  UNL1        0.0175
     38 C          50.3716   13.2990  -20.9674 C.ar    1  UNL1        0.0130
     39 C          49.9433   13.0708  -22.2805 C.ar    1  UNL1        0.0919
     40 CL         48.2290   12.8682  -22.6066 Cl      1  UNL1       -0.0791
     41 C          52.1738   13.9187  -19.3113 C.3     1  UNL1        0.1382
     42 C          52.2306   12.7136  -18.4267 C.2     1  UNL1        0.3234
     43 O          53.0115   11.7649  -18.7112 O.2     1  UNL1       -0.2497
     44 O          51.3606   12.6202  -17.3358 O.3     1  UNL1       -0.4215
     45 C          50.1887   11.8065  -17.3419 C.3     1  UNL1        0.3207
     46 O          49.9725   11.3566  -18.6742 O.3     1  UNL1       -0.3070
     47 C          48.6836   10.7941  -18.8201 C.3     1  UNL1        0.2456
     48 C          47.5987   11.9041  -18.7830 C.3     1  UNL1        0.1781
     49 O          46.3964   11.3695  -18.2898 O.3     1  UNL1       -0.3790
     50 C          48.0372   13.0904  -17.8864 C.3     1  UNL1        0.1733
     51 O          48.6126   14.1252  -18.6488 O.3     1  UNL1       -0.3793
     52 C          49.0021   12.6362  -16.7703 C.3     1  UNL1        0.2106
     53 O          48.3032   11.8543  -15.8335 O.3     1  UNL1       -0.3766
     54 H          46.0122   10.8101  -19.0146 H       1  UNL1        0.2106
     55 H          49.3715   13.7484  -19.1637 H       1  UNL1        0.2105
     56 H          47.7621   12.4773  -15.2809 H       1  UNL1        0.2107
     57 C          48.6246   10.0450  -20.1198 C.2     1  UNL1        0.3439
     58 O          47.5605   10.0306  -20.7956 O.2     1  UNL1       -0.2475
     59 O          49.7450    9.3589  -20.5782 O.3     1  UNL1       -0.4785
     60 H          49.7234    8.8591  -21.4592 H       1  UNL1        0.2951
@<TRIPOS>BOND
     1    15    16    1
     2    16     1    1
     3     1     2   ar
     4     2     7    1
     5     7     8    2
     6     7     9   am
     7     9    11    1
     8    11    12    1
     9    11    13    1
    10    11    14    1
    11     2     3   ar
    12     3     4   ar
    13     4     5   ar
    14     5    32    1
    15    32    33    1
    16    33    34   ar
    17    34    35   ar
    18    35    36    1
    19    35    37   ar
    20    37    41    1
    21    41    42    1
    22    42    43    2
    23    42    44    1
    24    44    45    1
    25    45    46    1
    26    46    47    1
    27    47    57    1
    28    57    58    2
    29    57    59    1
    30    47    48    1
    31    48    49    1
    32    48    50    1
    33    50    51    1
    34    50    52    1
    35    52    53    1
    36    37    38   ar
    37    38    39   ar
    38    39    40    1
    39     5     6   ar
    40     6    17    1
    41    17    19    1
    42    19    20    2
    43    19    21    2
    44    19    22    1
    45    22    23   ar
    46    23    24   ar
    47    24    25   ar
    48    25    29    1
    49    29    30    1
    50    30    31    1
    51    25    26   ar
    52    26    27   ar
    53    27    28    1
    54     6     1   ar
    55    27    22   ar
    56    39    33   ar
    57    31    29    1
    58    52    45    1
    59     9    10    1
    60    59    60    1
    61    49    54    1
    62    51    55    1
    63    53    56    1
    64    17    18    1
@<TRIPOS>MOLECULE
*****
 60 64 0 0 0
SMALL
GASTEIGER

@<TRIPOS>ATOM
      1 C          48.8727   12.3380  -21.1376 C.ar    1  UNL1        0.1605
      2 C          48.0918   11.6026  -20.2164 C.ar    1  UNL1        0.0887
      3 C          47.2750   10.5631  -20.6889 C.ar    1  UNL1        0.0108
      4 C          47.1607   10.3156  -22.0573 C.ar    1  UNL1        0.0392
      5 C          47.8480   11.1068  -22.9792 C.ar    1  UNL1        0.1628
      6 C          48.7495   12.0911  -22.5157 C.ar    1  UNL1        0.1331
      7 C          48.0784   11.9236  -18.7718 C.2     1  UNL1        0.2487
      8 O          46.9718   12.0105  -18.1748 O.2     1  UNL1       -0.2700
      9 N          49.3111   12.1819  -18.0707 N.am    1  UNL1       -0.3039
     10 H          50.1806   12.2304  -18.6497 H       1  UNL1        0.1496
     11 C          49.4278   12.4321  -16.6201 C.3     1  UNL1        0.0572
     12 C          48.8682   11.2377  -15.8231 C.3     1  UNL1        0.0196
     13 C          50.9181   12.6031  -16.2592 C.3     1  UNL1        0.0196
     14 C          48.6817   13.7261  -16.2398 C.3     1  UNL1        0.0196
     15 C          49.5128   14.6961  -20.7785 C.3     1  UNL1        0.2525
     16 O          49.7922   13.3026  -20.7106 O.3     1  UNL1       -0.4699
     17 N          49.5729   12.8198  -23.4334 N.pl3   1  UNL1       -0.2090
     18 H          49.2333   13.7415  -23.7845 H       1  UNL1        0.1740
     19 S          51.2750   12.5141  -23.5388 S.O2    1  UNL1        0.0746
     20 O          51.7384   11.7546  -22.3285 O.2     1  UNL1       -0.1499
     21 O          52.0221   13.8181  -23.5968 O.2     1  UNL1       -0.1499
     22 C          51.5910   11.5725  -24.9996 C.ar    1  UNL1        0.1356
     23 C          52.1072   12.2135  -26.1331 C.ar    1  UNL1        0.0207
     24 C          52.3074   11.5080  -27.3212 C.ar    1  UNL1       -0.0028
     25 C          51.9966   10.1350  -27.3999 C.ar    1  UNL1       -0.0216
     26 C          51.4908    9.4951  -26.2582 C.ar    1  UNL1        0.0085
     27 C          51.2877   10.1982  -25.0656 C.ar    1  UNL1        0.0762
     28 CL         50.6509    9.3148  -23.6825 Cl      1  UNL1       -0.0809
     29 C          52.1716    9.3001  -28.6576 C.3     1  UNL1        0.0224
     30 C          53.0260    9.8937  -29.7692 C.3     1  UNL1        0.0047
     31 C          53.5564    8.7323  -28.9373 C.3     1  UNL1        0.0047
     32 O          47.6125   10.9014  -24.3470 O.3     1  UNL1       -0.4512
     33 C          46.9480   11.8238  -25.1696 C.ar    1  UNL1        0.1580
     34 C          45.9286   12.6472  -24.6606 C.ar    1  UNL1        0.0677
     35 C          45.3629   13.6449  -25.4544 C.ar    1  UNL1        0.1398
     36 F          44.4222   14.4632  -24.9185 F       1  UNL1       -0.2044
     37 C          45.8036   13.8299  -26.7760 C.ar    1  UNL1        0.0175
     38 C          46.7641   12.9541  -27.3090 C.ar    1  UNL1        0.0130
     39 C          47.3160   11.9400  -26.5173 C.ar    1  UNL1        0.0919
     40 CL         48.5453   10.8857  -27.1980 Cl      1  UNL1       -0.0791
     41 C          45.3443   15.0261  -27.5658 C.3     1  UNL1        0.1382
     42 C          46.2073   16.1984  -27.2208 C.2     1  UNL1        0.3234
     43 O          47.0105   16.6578  -28.0780 O.2     1  UNL1       -0.2497
     44 O          46.1678   16.7232  -25.9252 O.3     1  UNL1       -0.4215
     45 C          47.3037   17.3019  -25.2846 C.3     1  UNL1        0.3207
     46 O          48.2837   17.5663  -26.2814 O.3     1  UNL1       -0.3070
     47 C          49.5372   17.8636  -25.6987 C.3     1  UNL1        0.2456
     48 C          50.1744   16.5823  -25.0968 C.3     1  UNL1        0.1781
     49 O          51.0112   16.9333  -24.0238 O.3     1  UNL1       -0.3790
     50 C          49.0889   15.5946  -24.5973 C.3     1  UNL1        0.1733
     51 O          48.8045   14.6116  -25.5648 O.3     1  UNL1       -0.3793
     52 C          47.7993   16.3301  -24.1740 C.3     1  UNL1        0.2106
     53 O          48.0392   17.0608  -22.9968 O.3     1  UNL1       -0.3766
     54 H          51.8293   17.3355  -24.4174 H       1  UNL1        0.2106
     55 H          48.5346   15.0675  -26.4028 H       1  UNL1        0.2105
     56 H          48.0586   16.4082  -22.2485 H       1  UNL1        0.2107
     57 C          50.4337   18.4528  -26.7488 C.2     1  UNL1        0.3439
     58 O          51.6672   18.1925  -26.7483 O.2     1  UNL1       -0.2475
     59 O          49.9044   19.2941  -27.7227 O.3     1  UNL1       -0.4785
     60 H          50.4953   19.6892  -28.4445 H       1  UNL1        0.2951
@<TRIPOS>BOND
     1    15    16    1
     2    16     1    1
     3     1     2   ar
     4     2     7    1
     5     7     8    2
     6     7     9   am
     7     9    11    1
     8    11    12    1
     9    11    13    1
    10    11    14    1
    11     2     3   ar
    12     3     4   ar
    13     4     5   ar
    14     5    32    1
    15    32    33    1
    16    33    34   ar
    17    34    35   ar
    18    35    36    1
    19    35    37   ar
    20    37    41    1
    21    41    42    1
    22    42    43    2
    23    42    44    1
    24    44    45    1
    25    45    46    1
    26    46    47    1
    27    47    57    1
    28    57    58    2
    29    57    59    1
    30    47    48    1
    31    48    49    1
    32    48    50    1
    33    50    51    1
    34    50    52    1
    35    52    53    1
    36    37    38   ar
    37    38    39   ar
    38    39    40    1
    39     5     6   ar
    40     6    17    1
    41    17    19    1
    42    19    20    2
    43    19    21    2
    44    19    22    1
    45    22    23   ar
    46    23    24   ar
    47    24    25   ar
    48    25    29    1
    49    29    30    1
    50    30    31    1
    51    25    26   ar
    52    26    27   ar
    53    27    28    1
    54     6     1   ar
    55    27    22   ar
    56    39    33   ar
    57    31    29    1
    58    52    45    1
    59     9    10    1
    60    59    60    1
    61    49    54    1
    62    51    55    1
    63    53    56    1
    64    17    18    1
