@<TRIPOS>MOLECULE
*****
 38 42 0 0 0
SMALL
GASTEIGER

@<TRIPOS>ATOM
      1 C          -5.2872   -8.9395   29.8870 C.ar    1  UNL1        0.0673
      2 C          -4.2336   -9.0288   28.9507 C.ar    1  UNL1        0.0161
      3 C          -4.1095  -10.1616   28.1146 C.ar    1  UNL1        0.0028
      4 C          -5.0255  -11.2248   28.2132 C.ar    1  UNL1        0.0186
      5 C          -6.0430  -11.1134   29.1572 C.ar    1  UNL1        0.0768
      6 N          -7.0042  -11.9986   29.4484 N.ar    1  UNL1       -0.3373
      7 C          -7.7070  -11.4045   30.4491 C.ar    1  UNL1        0.1406
      8 N          -7.2185  -10.1827   30.7922 N.ar    1  UNL1       -0.2258
      9 C          -6.1743  -10.0208   29.9600 C.ar    1  UNL1        0.1116
     10 H          -7.1686  -12.9195   28.9858 H       1  UNL1        0.1674
     11 N          -7.4166   -6.1596   30.8982 N.3     1  UNL1       -0.2655
     12 C          -7.0698   -6.7238   32.2181 C.3     1  UNL1        0.0941
     13 C          -6.1380   -7.9328   32.0294 C.3     1  UNL1        0.1082
     14 N          -5.3981   -7.8080   30.7681 N.pl3   1  UNL1       -0.3034
     15 C          -4.9935   -6.4651   30.3407 C.3     1  UNL1        0.1082
     16 C          -6.2243   -5.5373   30.2723 C.3     1  UNL1        0.0941
     17 C          -8.5303   -5.1976   31.0029 C.3     1  UNL1        0.1154
     18 N         -11.1466   -7.9284   31.0944 N.am    1  UNL1       -0.0442
     19 C          -9.9543   -7.2693   31.1883 C.2     1  UNL1        0.2969
     20 C          -9.8588   -5.9085   30.8727 C.2     1  UNL1        0.1684
     21 C         -11.0269   -5.2440   30.4725 C.2     1  UNL1        0.4261
     22 O         -10.9999   -4.0190   30.1743 O.2     1  UNL1       -0.2139
     23 N         -12.2026   -5.9222   30.4105 N.am    1  UNL1       -0.0486
     24 C         -12.2752   -7.2430   30.7281 C.2     1  UNL1        0.6659
     25 O         -13.3934   -7.8251   30.6876 O.2     1  UNL1       -0.1527
     26 H         -13.0713   -5.4162   30.1216 H       1  UNL1        0.4575
     27 C         -11.9793   -9.5614   32.7379 C.3     1  UNL1        0.0920
     28 C         -11.2040   -9.3578   31.4413 C.3     1  UNL1        0.3234
     29 C          -8.9061  -11.9948   31.0915 C.ar    1  UNL1        0.0339
     30 C          -9.9258  -12.5457   30.3015 C.ar    1  UNL1        0.0027
     31 C         -11.0467  -13.1331   30.8929 C.ar    1  UNL1       -0.0042
     32 C         -11.1908  -13.1843   32.2964 C.ar    1  UNL1       -0.0228
     33 C         -10.1676  -12.6047   33.0813 C.ar    1  UNL1       -0.0042
     34 C          -9.0462  -12.0203   32.4869 C.ar    1  UNL1        0.0027
     35 C         -12.4246  -13.8757   32.9136 C.3     1  UNL1        0.0189
     36 C         -12.7004  -15.2753   32.3129 C.3     1  UNL1        0.0044
     37 C         -12.2155  -14.0530   34.4326 C.3     1  UNL1        0.0044
     38 C         -13.6752  -13.0043   32.6679 C.3     1  UNL1        0.0044
@<TRIPOS>BOND
     1    27    28    1
     2    28    18    1
     3    18    19    1
     4    19    20    2
     5    20    17    1
     6    17    11    1
     7    11    12    1
     8    12    13    1
     9    13    14    1
    10    14     1    1
    11     1     2   ar
    12     2     3   ar
    13     3     4   ar
    14     4     5   ar
    15     5     6   ar
    16     6     7   ar
    17     7    29    1
    18    29    30   ar
    19    30    31   ar
    20    31    32   ar
    21    32    35    1
    22    35    36    1
    23    35    37    1
    24    35    38    1
    25    32    33   ar
    26    33    34   ar
    27     7     8   ar
    28     8     9   ar
    29    14    15    1
    30    15    16    1
    31    20    21    1
    32    21    22    2
    33    21    23    1
    34    23    24    1
    35    24    25    2
    36    24    18    1
    37    16    11    1
    38     9     1   ar
    39     9     5   ar
    40    34    29   ar
    41     6    10    1
    42    23    26    1
@<TRIPOS>MOLECULE
*****
 38 42 0 0 0
SMALL
GASTEIGER

@<TRIPOS>ATOM
      1 C          -9.0885   -5.8333   30.9144 C.ar    1  UNL1        0.0673
      2 C          -9.5539   -4.6917   30.2254 C.ar    1  UNL1        0.0161
      3 C         -10.9132   -4.5811   29.8543 C.ar    1  UNL1        0.0028
      4 C         -11.8205   -5.6140   30.1526 C.ar    1  UNL1        0.0186
      5 C         -11.3269   -6.7331   30.8180 C.ar    1  UNL1        0.0768
      6 N         -11.9867   -7.8403   31.1800 N.ar    1  UNL1       -0.3373
      7 C         -11.0357   -8.6127   31.7694 C.ar    1  UNL1        0.1406
      8 N          -9.8082   -8.0276   31.7872 N.ar    1  UNL1       -0.2258
      9 C         -10.0203   -6.8428   31.1869 C.ar    1  UNL1        0.1116
     10 H         -13.0032   -8.0353   31.0471 H       1  UNL1        0.1674
     11 N          -6.4103   -8.2199   31.5597 N.3     1  UNL1       -0.2655
     12 C          -5.7340   -7.3092   30.6143 C.3     1  UNL1        0.0941
     13 C          -6.6998   -6.1834   30.2079 C.3     1  UNL1        0.1082
     14 N          -7.6993   -5.9709   31.2614 N.pl3   1  UNL1       -0.3034
     15 C          -7.2734   -6.1384   32.6543 C.3     1  UNL1        0.1082
     16 C          -6.6511   -7.5360   32.8540 C.3     1  UNL1        0.0941
     17 C          -5.6414   -9.4651   31.7468 C.3     1  UNL1        0.1154
     18 N          -8.0350  -11.9420   30.1827 N.am    1  UNL1       -0.0442
     19 C          -7.5184  -10.9658   30.9857 C.2     1  UNL1        0.2969
     20 C          -6.1839  -10.5616   30.8576 C.2     1  UNL1        0.1684
     21 C          -5.4026  -11.1801   29.8712 C.2     1  UNL1        0.4261
     22 O          -4.1940  -10.8575   29.7119 O.2     1  UNL1       -0.2139
     23 N          -5.9519  -12.1325   29.0727 N.am    1  UNL1       -0.0486
     24 C          -7.2529  -12.5059   29.2091 C.2     1  UNL1        0.6659
     25 O          -7.7302  -13.3709   28.4251 O.2     1  UNL1       -0.1527
     26 H          -5.3651  -12.5809   28.3321 H       1  UNL1        0.4575
     27 C         -10.3400  -11.4917   29.4442 C.3     1  UNL1        0.0920
     28 C          -9.4447  -12.3327   30.3469 C.3     1  UNL1        0.3234
     29 C         -11.2949   -9.9442   32.3683 C.ar    1  UNL1        0.0339
     30 C         -12.4808  -10.6302   32.0673 C.ar    1  UNL1        0.0027
     31 C         -12.7248  -11.8985   32.5991 C.ar    1  UNL1       -0.0042
     32 C         -11.7938  -12.5236   33.4568 C.ar    1  UNL1       -0.0228
     33 C         -10.6131  -11.8122   33.7713 C.ar    1  UNL1       -0.0042
     34 C         -10.3705  -10.5447   33.2357 C.ar    1  UNL1        0.0027
     35 C         -12.0809  -13.9414   33.9938 C.3     1  UNL1        0.0189
     36 C         -13.3615  -14.0150   34.8601 C.3     1  UNL1        0.0044
     37 C         -12.2604  -14.9184   32.8122 C.3     1  UNL1        0.0044
     38 C         -10.8958  -14.4072   34.8667 C.3     1  UNL1        0.0044
@<TRIPOS>BOND
     1    27    28    1
     2    28    18    1
     3    18    19    1
     4    19    20    2
     5    20    17    1
     6    17    11    1
     7    11    12    1
     8    12    13    1
     9    13    14    1
    10    14     1    1
    11     1     2   ar
    12     2     3   ar
    13     3     4   ar
    14     4     5   ar
    15     5     6   ar
    16     6     7   ar
    17     7    29    1
    18    29    30   ar
    19    30    31   ar
    20    31    32   ar
    21    32    35    1
    22    35    36    1
    23    35    37    1
    24    35    38    1
    25    32    33   ar
    26    33    34   ar
    27     7     8   ar
    28     8     9   ar
    29    14    15    1
    30    15    16    1
    31    20    21    1
    32    21    22    2
    33    21    23    1
    34    23    24    1
    35    24    25    2
    36    24    18    1
    37    16    11    1
    38     9     1   ar
    39     9     5   ar
    40    34    29   ar
    41     6    10    1
    42    23    26    1
@<TRIPOS>MOLECULE
*****
 38 42 0 0 0
SMALL
GASTEIGER

@<TRIPOS>ATOM
      1 C          -8.4182  -12.1666   30.1334 C.ar    1  UNL1        0.0673
      2 C          -7.3961  -11.3130   30.6040 C.ar    1  UNL1        0.0161
      3 C          -6.1066  -11.3500   30.0265 C.ar    1  UNL1        0.0028
      4 C          -5.8174  -12.2489   28.9837 C.ar    1  UNL1        0.0186
      5 C          -6.8419  -13.0882   28.5537 C.ar    1  UNL1        0.0768
      6 N          -6.7970  -14.0328   27.6061 N.ar    1  UNL1       -0.3373
      7 C          -8.0501  -14.5601   27.6069 C.ar    1  UNL1        0.1406
      8 N          -8.8732  -13.9791   28.5202 N.ar    1  UNL1       -0.2258
      9 C          -8.0895  -13.0519   29.0991 C.ar    1  UNL1        0.1116
     10 H          -5.9806  -14.2774   27.0037 H       1  UNL1        0.1674
     11 N         -11.0058  -10.0588   31.5984 N.3     1  UNL1       -0.2655
     12 C         -11.8165  -10.8667   30.6651 C.3     1  UNL1        0.0941
     13 C         -10.9069  -11.8645   29.9285 C.3     1  UNL1        0.1082
     14 N          -9.7218  -12.1624   30.7413 N.pl3   1  UNL1       -0.3034
     15 C          -9.8854  -12.2179   32.1973 C.3     1  UNL1        0.1082
     16 C         -10.5052  -10.9020   32.7116 C.3     1  UNL1        0.0941
     17 C         -11.7669   -8.9005   32.1041 C.3     1  UNL1        0.1154
     18 N          -9.5435   -6.3455   30.4192 N.am    1  UNL1       -0.0442
     19 C          -9.9721   -7.4768   31.0525 C.2     1  UNL1        0.2969
     20 C         -11.3144   -7.6296   31.4205 C.2     1  UNL1        0.1684
     21 C         -12.2035   -6.5923   31.1053 C.2     1  UNL1        0.4261
     22 O         -13.4233   -6.6746   31.4142 O.2     1  UNL1       -0.2139
     23 N         -11.7509   -5.4887   30.4546 N.am    1  UNL1       -0.0486
     24 C         -10.4436   -5.3629   30.0997 C.2     1  UNL1        0.6659
     25 O         -10.0735   -4.3357   29.4684 O.2     1  UNL1       -0.1527
     26 H         -12.4230   -4.7244   30.2135 H       1  UNL1        0.4575
     27 C          -7.2832   -5.8439   31.2561 C.3     1  UNL1        0.0920
     28 C          -8.1248   -6.2281   30.0447 C.3     1  UNL1        0.3234
     29 C          -8.5041  -15.6348   26.6917 C.ar    1  UNL1        0.0339
     30 C          -8.7855  -16.9133   27.1955 C.ar    1  UNL1        0.0027
     31 C          -9.2438  -17.9270   26.3509 C.ar    1  UNL1       -0.0042
     32 C          -9.4306  -17.6999   24.9701 C.ar    1  UNL1       -0.0228
     33 C          -9.1212  -16.4141   24.4703 C.ar    1  UNL1       -0.0042
     34 C          -8.6655  -15.4012   25.3181 C.ar    1  UNL1        0.0027
     35 C          -9.9751  -18.8333   24.0756 C.3     1  UNL1        0.0189
     36 C          -9.0444  -19.1676   22.8849 C.3     1  UNL1        0.0044
     37 C         -10.1434  -20.1200   24.9116 C.3     1  UNL1        0.0044
     38 C         -11.3448  -18.4159   23.4984 C.3     1  UNL1        0.0044
@<TRIPOS>BOND
     1    27    28    1
     2    28    18    1
     3    18    19    1
     4    19    20    2
     5    20    17    1
     6    17    11    1
     7    11    12    1
     8    12    13    1
     9    13    14    1
    10    14     1    1
    11     1     2   ar
    12     2     3   ar
    13     3     4   ar
    14     4     5   ar
    15     5     6   ar
    16     6     7   ar
    17     7    29    1
    18    29    30   ar
    19    30    31   ar
    20    31    32   ar
    21    32    35    1
    22    35    36    1
    23    35    37    1
    24    35    38    1
    25    32    33   ar
    26    33    34   ar
    27     7     8   ar
    28     8     9   ar
    29    14    15    1
    30    15    16    1
    31    20    21    1
    32    21    22    2
    33    21    23    1
    34    23    24    1
    35    24    25    2
    36    24    18    1
    37    16    11    1
    38     9     1   ar
    39     9     5   ar
    40    34    29   ar
    41     6    10    1
    42    23    26    1
