@<TRIPOS>MOLECULE
*****
 51 56 0 0 0
SMALL
GASTEIGER

@<TRIPOS>ATOM
      1 O          58.9672   85.1750    8.0969 O.2     1  UNL1       -0.2701
      2 C          59.7591   84.7129    8.9636 C.2     1  UNL1        0.2483
      3 N          59.8936   83.2911    9.1300 N.am    1  UNL1       -0.2945
      4 H          60.4256   82.9329    9.9554 H       1  UNL1        0.1501
      5 C          60.5000   85.6503    9.8342 C.ar    1  UNL1        0.0808
      6 C          60.7317   86.9642    9.3952 C.ar    1  UNL1        0.0080
      7 C          61.4182   87.8726   10.2047 C.ar    1  UNL1        0.0148
      8 C          61.8971   87.4804   11.4635 C.ar    1  UNL1        0.0503
      9 C          61.6788   86.1641   11.8990 C.ar    1  UNL1        0.0443
     10 C          60.9897   85.2527   11.0928 C.ar    1  UNL1        0.1457
     11 F          60.8427   83.9758   11.5284 F       1  UNL1       -0.2040
     12 N          62.5968   88.4180   12.3018 N.pl3   1  UNL1       -0.3020
     13 C          63.1024   87.9839   13.6112 C.3     1  UNL1        0.1124
     14 C          63.8106   89.1230   14.3591 C.3     1  UNL1        0.1157
     15 N          64.7305   89.8607   13.4734 N.pl3   1  UNL1       -0.2686
     16 C          64.3508   90.1151   12.0691 C.3     1  UNL1        0.2101
     17 O          65.1548   89.3318   11.2259 O.3     1  UNL1       -0.3658
     18 C          62.8727   89.7785   11.8297 C.3     1  UNL1        0.1420
     19 H          65.0987   89.7345   10.3201 H       1  UNL1        0.2123
     20 C          65.8955   90.5022   14.0486 C.ar    1  UNL1        0.1334
     21 C          65.8662   91.0739   15.3342 C.ar    1  UNL1        0.0343
     22 C          67.0132   91.6804   15.8488 C.ar    1  UNL1        0.0083
     23 C          68.1866   91.7402   15.0837 C.ar    1  UNL1        0.0906
     24 C          68.1858   91.1385   13.8171 C.ar    1  UNL1        0.1041
     25 N          67.0577   90.5516   13.3377 N.ar    1  UNL1       -0.2292
     26 C          69.4452   92.3478   15.6484 C.3     1  UNL1        0.4200
     27 F          69.9513   91.5163   16.6300 F       1  UNL1       -0.1658
     28 F          69.1825   93.5896   16.2003 F       1  UNL1       -0.1658
     29 F          70.3979   92.5074   14.6570 F       1  UNL1       -0.1658
     30 C          59.0912   82.3276    8.3701 C.3     1  UNL1        0.1535
     31 C          59.7736   80.9855    8.3894 C.2     1  UNL1        0.2443
     32 O          59.9567   80.3636    7.3070 O.2     1  UNL1       -0.2730
     33 N          60.1321   80.3812    9.6426 N.am    1  UNL1       -0.2825
     34 H          59.6807   80.7511   10.5098 H       1  UNL1        0.1549
     35 C          60.9857   79.2306    9.7660 C.ar    1  UNL1        0.0535
     36 C          60.6001   78.1729   10.6010 C.ar    1  UNL1        0.0353
     37 C          61.4363   77.0628   10.7422 C.ar    1  UNL1        0.1002
     38 N          62.6254   77.0169   10.0856 N.ar    1  UNL1       -0.2422
     39 C          63.0359   78.0354    9.2844 C.ar    1  UNL1        0.1002
     40 C          62.2292   79.1636    9.1146 C.ar    1  UNL1        0.0353
     41 C          57.6730   82.2273    8.9611 C.3     1  UNL1        0.0569
     42 C          57.7138   82.0876   10.4554 C.ar    1  UNL1       -0.0017
     43 C          57.9735   80.9218   11.1706 C.ar    1  UNL1        0.0681
     44 N          58.0522   81.1875   12.4944 N.ar    1  UNL1       -0.3523
     45 C          57.8566   82.5116   12.6197 C.ar    1  UNL1        0.0563
     46 C          57.8804   83.2616   13.7946 C.ar    1  UNL1        0.0170
     47 C          57.6845   84.6511   13.6916 C.ar    1  UNL1        0.0015
     48 C          57.4777   85.2535   12.4306 C.ar    1  UNL1        0.0001
     49 C          57.4629   84.4719   11.2611 C.ar    1  UNL1        0.0012
     50 C          57.6512   83.0964   11.3963 C.ar    1  UNL1        0.0131
     51 H          58.2510   80.5037   13.2582 H       1  UNL1        0.1660
@<TRIPOS>BOND
     1     1     2    2
     2     2     3   am
     3     3    30    1
     4    30    41    1
     5    41    42    1
     6    42    43   ar
     7    43    44   ar
     8    44    45   ar
     9    45    46   ar
    10    46    47   ar
    11    47    48   ar
    12    48    49   ar
    13    49    50   ar
    14    30    31    1
    15    31    32    2
    16    31    33   am
    17    33    35    1
    18    35    36   ar
    19    36    37   ar
    20    37    38   ar
    21    38    39   ar
    22    39    40   ar
    23     2     5    1
    24     5     6   ar
    25     6     7   ar
    26     7     8   ar
    27     8    12    1
    28    12    13    1
    29    13    14    1
    30    14    15    1
    31    15    20    1
    32    20    21   ar
    33    21    22   ar
    34    22    23   ar
    35    23    26    1
    36    26    27    1
    37    26    28    1
    38    26    29    1
    39    23    24   ar
    40    24    25   ar
    41    15    16    1
    42    16    17    1
    43    16    18    1
    44     8     9   ar
    45     9    10   ar
    46    10    11    1
    47    50    42   ar
    48    40    35   ar
    49    10     5   ar
    50    50    45   ar
    51    18    12    1
    52    25    20   ar
    53     3     4    1
    54    44    51    1
    55    33    34    1
    56    17    19    1
@<TRIPOS>MOLECULE
*****
 51 56 0 0 0
SMALL
GASTEIGER

@<TRIPOS>ATOM
      1 O          57.6193   83.8554   12.8667 O.2     1  UNL1       -0.2701
      2 C          58.8731   83.7225   12.9116 C.2     1  UNL1        0.2483
      3 N          59.4706   82.4406   12.6525 N.am    1  UNL1       -0.2945
      4 H          60.4884   82.3141   12.8536 H       1  UNL1        0.1501
      5 C          59.7071   84.8847   13.2849 C.ar    1  UNL1        0.0808
      6 C          61.0631   84.9077   12.9193 C.ar    1  UNL1        0.0080
      7 C          61.8690   86.0000   13.2493 C.ar    1  UNL1        0.0148
      8 C          61.3371   87.0847   13.9623 C.ar    1  UNL1        0.0503
      9 C          59.9858   87.0584   14.3407 C.ar    1  UNL1        0.0443
     10 C          59.1752   85.9679   14.0098 C.ar    1  UNL1        0.1457
     11 F          57.8870   85.9579   14.4370 F       1  UNL1       -0.2040
     12 N          62.1644   88.2145   14.2951 N.pl3   1  UNL1       -0.3020
     13 C          62.6549   88.3746   15.6707 C.3     1  UNL1        0.1124
     14 C          63.5113   89.6393   15.8308 C.3     1  UNL1        0.1157
     15 N          64.4835   89.7761   14.7304 N.pl3   1  UNL1       -0.2686
     16 C          64.0945   89.3997   13.3565 C.3     1  UNL1        0.2101
     17 O          64.7778   88.2296   12.9890 O.3     1  UNL1       -0.3658
     18 C          62.5811   89.1642   13.2587 C.3     1  UNL1        0.1420
     19 H          64.7419   88.1751   11.9983 H       1  UNL1        0.2123
     20 C          65.7310   90.4705   14.9780 C.ar    1  UNL1        0.1334
     21 C          65.8896   91.3389   16.0740 C.ar    1  UNL1        0.0343
     22 C          67.1102   91.9856   16.2743 C.ar    1  UNL1        0.0083
     23 C          68.1708   91.7897   15.3785 C.ar    1  UNL1        0.0906
     24 C          67.9842   90.8985   14.3119 C.ar    1  UNL1        0.1041
     25 N          66.7876   90.2783   14.1382 N.ar    1  UNL1       -0.2292
     26 C          69.5088   92.4433   15.6128 C.3     1  UNL1        0.4200
     27 F          70.1611   91.7889   16.6410 F       1  UNL1       -0.1658
     28 F          69.3482   93.7747   15.9552 F       1  UNL1       -0.1658
     29 F          70.2893   92.3809   14.4713 F       1  UNL1       -0.1658
     30 C          58.6751   81.2361   12.3952 C.3     1  UNL1        0.1535
     31 C          58.2983   81.1894   10.9382 C.2     1  UNL1        0.2443
     32 O          57.3506   81.9075   10.5160 O.2     1  UNL1       -0.2730
     33 N          58.9573   80.2664   10.0561 N.am    1  UNL1       -0.2825
     34 H          59.4854   79.4731   10.4857 H       1  UNL1        0.1549
     35 C          58.8439   80.3024    8.6232 C.ar    1  UNL1        0.0535
     36 C          59.9300   80.7474    7.8569 C.ar    1  UNL1        0.0353
     37 C          59.8173   80.8060    6.4657 C.ar    1  UNL1        0.1002
     38 N          58.6542   80.4486    5.8602 N.ar    1  UNL1       -0.2422
     39 C          57.5773   80.0317    6.5772 C.ar    1  UNL1        0.1002
     40 C          57.6480   79.9574    7.9707 C.ar    1  UNL1        0.0353
     41 C          59.4653   79.9767   12.7952 C.3     1  UNL1        0.0569
     42 C          60.8732   80.3187   13.1892 C.ar    1  UNL1       -0.0017
     43 C          61.4675   80.0802   14.4253 C.ar    1  UNL1        0.0681
     44 N          62.7800   80.4045   14.3886 N.ar    1  UNL1       -0.3523
     45 C          63.0217   80.8337   13.1378 C.ar    1  UNL1        0.0563
     46 C          64.2431   81.2467   12.6076 C.ar    1  UNL1        0.0170
     47 C          64.2775   81.6250   11.2528 C.ar    1  UNL1        0.0015
     48 C          63.1050   81.5769   10.4661 C.ar    1  UNL1        0.0001
     49 C          61.8871   81.1518   11.0271 C.ar    1  UNL1        0.0012
     50 C          61.8830   80.7915   12.3747 C.ar    1  UNL1        0.0131
     51 H          63.4682   80.3133   15.1687 H       1  UNL1        0.1660
@<TRIPOS>BOND
     1     1     2    2
     2     2     3   am
     3     3    30    1
     4    30    41    1
     5    41    42    1
     6    42    43   ar
     7    43    44   ar
     8    44    45   ar
     9    45    46   ar
    10    46    47   ar
    11    47    48   ar
    12    48    49   ar
    13    49    50   ar
    14    30    31    1
    15    31    32    2
    16    31    33   am
    17    33    35    1
    18    35    36   ar
    19    36    37   ar
    20    37    38   ar
    21    38    39   ar
    22    39    40   ar
    23     2     5    1
    24     5     6   ar
    25     6     7   ar
    26     7     8   ar
    27     8    12    1
    28    12    13    1
    29    13    14    1
    30    14    15    1
    31    15    20    1
    32    20    21   ar
    33    21    22   ar
    34    22    23   ar
    35    23    26    1
    36    26    27    1
    37    26    28    1
    38    26    29    1
    39    23    24   ar
    40    24    25   ar
    41    15    16    1
    42    16    17    1
    43    16    18    1
    44     8     9   ar
    45     9    10   ar
    46    10    11    1
    47    50    42   ar
    48    40    35   ar
    49    10     5   ar
    50    50    45   ar
    51    18    12    1
    52    25    20   ar
    53     3     4    1
    54    44    51    1
    55    33    34    1
    56    17    19    1
@<TRIPOS>MOLECULE
*****
 51 56 0 0 0
SMALL
GASTEIGER

@<TRIPOS>ATOM
      1 O          58.0648   84.4419   10.5223 O.2     1  UNL1       -0.2701
      2 C          59.0958   85.1644   10.6040 C.2     1  UNL1        0.2483
      3 N          59.9803   85.0314   11.7297 N.am    1  UNL1       -0.2945
      4 H          60.7328   85.7449   11.8608 H       1  UNL1        0.1501
      5 C          59.3484   86.1789    9.5588 C.ar    1  UNL1        0.0808
      6 C          58.8507   85.9729    8.2615 C.ar    1  UNL1        0.0080
      7 C          59.0653   86.9225    7.2596 C.ar    1  UNL1        0.0148
      8 C          59.7926   88.0905    7.5328 C.ar    1  UNL1        0.0503
      9 C          60.3026   88.2926    8.8246 C.ar    1  UNL1        0.0443
     10 C          60.0876   87.3457    9.8310 C.ar    1  UNL1        0.1457
     11 F          60.6395   87.5542   11.0533 F       1  UNL1       -0.2040
     12 N          60.0066   89.0735    6.5035 N.pl3   1  UNL1       -0.3020
     13 C          61.1292   88.9135    5.5693 C.3     1  UNL1        0.1124
     14 C          61.1976   90.0624    4.5526 C.3     1  UNL1        0.1157
     15 N          59.8686   90.3656    3.9900 N.pl3   1  UNL1       -0.2686
     16 C          58.6743   90.3079    4.8567 C.3     1  UNL1        0.2101
     17 O          57.8930   89.2004    4.4904 O.3     1  UNL1       -0.3658
     18 C          59.0725   90.1910    6.3342 C.3     1  UNL1        0.1420
     19 H          56.9841   89.3557    4.8587 H       1  UNL1        0.2123
     20 C          59.7813   90.9157    2.6523 C.ar    1  UNL1        0.1334
     21 C          60.9182   91.0584    1.8352 C.ar    1  UNL1        0.0343
     22 C          60.7865   91.5920    0.5522 C.ar    1  UNL1        0.0083
     23 C          59.5317   92.0045    0.0822 C.ar    1  UNL1        0.0906
     24 C          58.4178   91.8245    0.9148 C.ar    1  UNL1        0.1041
     25 N          58.5698   91.3005    2.1595 N.ar    1  UNL1       -0.2292
     26 C          59.3696   92.5354   -1.3193 C.3     1  UNL1        0.4200
     27 F          58.4582   91.7504   -2.0007 F       1  UNL1       -0.1658
     28 F          60.5784   92.5114   -1.9930 F       1  UNL1       -0.1658
     29 F          58.9122   93.8416   -1.2969 F       1  UNL1       -0.1658
     30 C          59.7056   84.1223   12.8468 C.3     1  UNL1        0.1535
     31 C          59.7148   82.7019   12.3473 C.2     1  UNL1        0.2443
     32 O          60.7928   82.1936   11.9331 O.2     1  UNL1       -0.2730
     33 N          58.4851   81.9638   12.2615 N.am    1  UNL1       -0.2825
     34 H          57.5895   82.5021   12.2915 H       1  UNL1        0.1549
     35 C          58.4118   80.5471   12.0266 C.ar    1  UNL1        0.0535
     36 C          58.7977   79.6595   13.0404 C.ar    1  UNL1        0.0353
     37 C          58.7500   78.2826   12.8096 C.ar    1  UNL1        0.1002
     38 N          58.3469   77.8073   11.6018 N.ar    1  UNL1       -0.2422
     39 C          57.9853   78.6430   10.5926 C.ar    1  UNL1        0.1002
     40 C          58.0173   80.0270   10.7820 C.ar    1  UNL1        0.0353
     41 C          60.7482   84.3150   13.9632 C.3     1  UNL1        0.0569
     42 C          60.8191   85.7493   14.4012 C.ar    1  UNL1       -0.0017
     43 C          59.7552   86.5354   14.8353 C.ar    1  UNL1        0.0681
     44 N          60.2013   87.7371   15.2667 N.ar    1  UNL1       -0.3523
     45 C          61.5374   87.7118   15.1201 C.ar    1  UNL1        0.0563
     46 C          62.4438   88.7143   15.4619 C.ar    1  UNL1        0.0170
     47 C          63.8124   88.4619   15.2544 C.ar    1  UNL1        0.0015
     48 C          64.2395   87.2251   14.7217 C.ar    1  UNL1        0.0001
     49 C          63.3022   86.2300   14.3898 C.ar    1  UNL1        0.0012
     50 C          61.9524   86.5131   14.5988 C.ar    1  UNL1        0.0131
     51 H          59.6238   88.5141   15.6582 H       1  UNL1        0.1660
@<TRIPOS>BOND
     1     1     2    2
     2     2     3   am
     3     3    30    1
     4    30    41    1
     5    41    42    1
     6    42    43   ar
     7    43    44   ar
     8    44    45   ar
     9    45    46   ar
    10    46    47   ar
    11    47    48   ar
    12    48    49   ar
    13    49    50   ar
    14    30    31    1
    15    31    32    2
    16    31    33   am
    17    33    35    1
    18    35    36   ar
    19    36    37   ar
    20    37    38   ar
    21    38    39   ar
    22    39    40   ar
    23     2     5    1
    24     5     6   ar
    25     6     7   ar
    26     7     8   ar
    27     8    12    1
    28    12    13    1
    29    13    14    1
    30    14    15    1
    31    15    20    1
    32    20    21   ar
    33    21    22   ar
    34    22    23   ar
    35    23    26    1
    36    26    27    1
    37    26    28    1
    38    26    29    1
    39    23    24   ar
    40    24    25   ar
    41    15    16    1
    42    16    17    1
    43    16    18    1
    44     8     9   ar
    45     9    10   ar
    46    10    11    1
    47    50    42   ar
    48    40    35   ar
    49    10     5   ar
    50    50    45   ar
    51    18    12    1
    52    25    20   ar
    53     3     4    1
    54    44    51    1
    55    33    34    1
    56    17    19    1
@<TRIPOS>MOLECULE
*****
 51 56 0 0 0
SMALL
GASTEIGER

@<TRIPOS>ATOM
      1 O          58.9175   82.9775   10.8584 O.2     1  UNL1       -0.2701
      2 C          60.0794   83.3476   10.5345 C.2     1  UNL1        0.2483
      3 N          60.7778   82.6775    9.4713 N.am    1  UNL1       -0.2945
      4 H          61.7915   82.8885    9.3286 H       1  UNL1        0.1501
      5 C          60.7260   84.4374   11.2959 C.ar    1  UNL1        0.0808
      6 C          62.0253   84.2536   11.7967 C.ar    1  UNL1        0.0080
      7 C          62.6627   85.2728   12.5084 C.ar    1  UNL1        0.0148
      8 C          62.0078   86.4908   12.7437 C.ar    1  UNL1        0.0503
      9 C          60.7043   86.6723   12.2560 C.ar    1  UNL1        0.0443
     10 C          60.0639   85.6555   11.5408 C.ar    1  UNL1        0.1457
     11 F          58.7855   85.8512   11.1293 F       1  UNL1       -0.2040
     12 N          62.6670   87.5447   13.4692 N.pl3   1  UNL1       -0.3020
     13 C          63.4508   87.2198   14.6686 C.3     1  UNL1        0.1124
     14 C          64.0688   88.4725   15.3068 C.3     1  UNL1        0.1157
     15 N          64.6879   89.3459   14.2926 N.pl3   1  UNL1       -0.2686
     16 C          64.0410   89.5143   12.9758 C.3     1  UNL1        0.2101
     17 O          64.8148   88.8700   11.9973 O.3     1  UNL1       -0.3658
     18 C          62.6234   88.9264   12.9805 C.3     1  UNL1        0.1420
     19 H          64.5401   89.2460   11.1204 H       1  UNL1        0.2123
     20 C          65.8055   90.1846   14.6763 C.ar    1  UNL1        0.1334
     21 C          65.7366   91.0472   15.7861 C.ar    1  UNL1        0.0343
     22 C          66.8388   91.8360   16.1196 C.ar    1  UNL1        0.0083
     23 C          68.0051   91.7877   15.3432 C.ar    1  UNL1        0.0906
     24 C          68.0461   90.8986   14.2595 C.ar    1  UNL1        0.1041
     25 N          66.9616   90.1385   13.9550 N.ar    1  UNL1       -0.2292
     26 C          69.2186   92.5973   15.7232 C.3     1  UNL1        0.4200
     27 F          69.9121   91.9372   16.7204 F       1  UNL1       -0.1658
     28 F          68.8458   93.8478   16.1847 F       1  UNL1       -0.1658
     29 F          70.0523   92.7693   14.6317 F       1  UNL1       -0.1658
     30 C          60.2214   81.5166    8.7695 C.3     1  UNL1        0.1535
     31 C          59.4312   80.6792    9.7398 C.2     1  UNL1        0.2443
     32 O          58.2979   80.2380    9.4036 O.2     1  UNL1       -0.2730
     33 N          59.9289   80.4609   11.0697 N.am    1  UNL1       -0.2825
     34 H          60.6825   81.0955   11.4192 H       1  UNL1        0.1549
     35 C          59.3802   79.4985   11.9864 C.ar    1  UNL1        0.0535
     36 C          59.3845   79.7752   13.3605 C.ar    1  UNL1        0.0353
     37 C          58.8734   78.8340   14.2573 C.ar    1  UNL1        0.1002
     38 N          58.3896   77.6490   13.8000 N.ar    1  UNL1       -0.2422
     39 C          58.3900   77.3436   12.4755 C.ar    1  UNL1        0.1002
     40 C          58.8909   78.2573   11.5447 C.ar    1  UNL1        0.0353
     41 C          59.3358   81.9738    7.5959 C.3     1  UNL1        0.0569
     42 C          59.0575   83.4476    7.6649 C.ar    1  UNL1       -0.0017
     43 C          57.8096   84.0482    7.8067 C.ar    1  UNL1        0.0681
     44 N          57.9435   85.3857    7.9560 N.ar    1  UNL1       -0.3523
     45 C          59.2645   85.6328    7.9220 C.ar    1  UNL1        0.0563
     46 C          59.8972   86.8663    8.0696 C.ar    1  UNL1        0.0170
     47 C          61.3036   86.8918    8.0361 C.ar    1  UNL1        0.0015
     48 C          62.0375   85.6970    7.8638 C.ar    1  UNL1        0.0001
     49 C          61.3720   84.4658    7.7216 C.ar    1  UNL1        0.0012
     50 C          59.9774   84.4739    7.7503 C.ar    1  UNL1        0.0131
     51 H          57.1750   86.0788    8.0956 H       1  UNL1        0.1660
@<TRIPOS>BOND
     1     1     2    2
     2     2     3   am
     3     3    30    1
     4    30    41    1
     5    41    42    1
     6    42    43   ar
     7    43    44   ar
     8    44    45   ar
     9    45    46   ar
    10    46    47   ar
    11    47    48   ar
    12    48    49   ar
    13    49    50   ar
    14    30    31    1
    15    31    32    2
    16    31    33   am
    17    33    35    1
    18    35    36   ar
    19    36    37   ar
    20    37    38   ar
    21    38    39   ar
    22    39    40   ar
    23     2     5    1
    24     5     6   ar
    25     6     7   ar
    26     7     8   ar
    27     8    12    1
    28    12    13    1
    29    13    14    1
    30    14    15    1
    31    15    20    1
    32    20    21   ar
    33    21    22   ar
    34    22    23   ar
    35    23    26    1
    36    26    27    1
    37    26    28    1
    38    26    29    1
    39    23    24   ar
    40    24    25   ar
    41    15    16    1
    42    16    17    1
    43    16    18    1
    44     8     9   ar
    45     9    10   ar
    46    10    11    1
    47    50    42   ar
    48    40    35   ar
    49    10     5   ar
    50    50    45   ar
    51    18    12    1
    52    25    20   ar
    53     3     4    1
    54    44    51    1
    55    33    34    1
    56    17    19    1
@<TRIPOS>MOLECULE
*****
 51 56 0 0 0
SMALL
GASTEIGER

@<TRIPOS>ATOM
      1 O          58.9209   85.6421   11.8483 O.2     1  UNL1       -0.2701
      2 C          59.6618   85.3970   10.8570 C.2     1  UNL1        0.2483
      3 N          60.4518   84.1959   10.8286 N.am    1  UNL1       -0.2945
      4 H          61.1759   84.0918   10.0820 H       1  UNL1        0.1501
      5 C          59.7441   86.3831    9.7587 C.ar    1  UNL1        0.0808
      6 C          60.3982   87.6069    9.9768 C.ar    1  UNL1        0.0080
      7 C          60.5003   88.5500    8.9512 C.ar    1  UNL1        0.0148
      8 C          59.9391   88.2924    7.6917 C.ar    1  UNL1        0.0503
      9 C          59.2732   87.0760    7.4749 C.ar    1  UNL1        0.0443
     10 C          59.1713   86.1282    8.4982 C.ar    1  UNL1        0.1457
     11 F          58.4766   84.9860    8.2642 F       1  UNL1       -0.2040
     12 N          60.0515   89.2597    6.6318 N.pl3   1  UNL1       -0.3020
     13 C          61.1783   89.1794    5.6925 C.3     1  UNL1        0.1124
     14 C          61.1300   90.2982    4.6416 C.3     1  UNL1        0.1157
     15 N          59.7745   90.4559    4.0826 N.pl3   1  UNL1       -0.2686
     16 C          58.5967   90.3107    4.9616 C.3     1  UNL1        0.2101
     17 O          57.9228   89.1231    4.6354 O.3     1  UNL1       -0.3658
     18 C          59.0136   90.2772    6.4381 C.3     1  UNL1        0.1420
     19 H          57.0056   89.2019    5.0073 H       1  UNL1        0.2123
     20 C          59.6265   90.9543    2.7300 C.ar    1  UNL1        0.1334
     21 C          60.7412   91.2838    1.9367 C.ar    1  UNL1        0.0343
     22 C          60.5509   91.7592    0.6382 C.ar    1  UNL1        0.0083
     23 C          59.2558   91.9285    0.1288 C.ar    1  UNL1        0.0906
     24 C          58.1700   91.5668    0.9391 C.ar    1  UNL1        0.1041
     25 N          58.3795   91.1039    2.1995 N.ar    1  UNL1       -0.2292
     26 C          59.0394   92.3933   -1.2888 C.3     1  UNL1        0.4200
     27 F          58.5638   93.6912   -1.2747 F       1  UNL1       -0.1658
     28 F          58.1207   91.5830   -1.9331 F       1  UNL1       -0.1658
     29 F          60.2254   92.3551   -2.0016 F       1  UNL1       -0.1658
     30 C          60.4907   83.2497   11.9479 C.3     1  UNL1        0.1535
     31 C          61.2379   83.8695   13.0989 C.2     1  UNL1        0.2443
     32 O          62.1889   83.2384   13.6368 O.2     1  UNL1       -0.2730
     33 N          60.8103   85.1320   13.6349 N.am    1  UNL1       -0.2825
     34 H          59.8470   85.4617   13.3983 H       1  UNL1        0.1549
     35 C          61.5810   85.9146   14.5628 C.ar    1  UNL1        0.0535
     36 C          62.4716   86.8813   14.0757 C.ar    1  UNL1        0.0353
     37 C          63.2394   87.6287   14.9720 C.ar    1  UNL1        0.1002
     38 N          63.1349   87.4073   16.3089 N.ar    1  UNL1       -0.2422
     39 C          62.2950   86.4637   16.8106 C.ar    1  UNL1        0.1002
     40 C          61.5081   85.6950   15.9490 C.ar    1  UNL1        0.0353
     41 C          59.0622   82.8608   12.3707 C.3     1  UNL1        0.0569
     42 C          58.5306   81.7382   11.5272 C.ar    1  UNL1       -0.0017
     43 C          58.1081   81.8263   10.2037 C.ar    1  UNL1        0.0681
     44 N          57.8081   80.5989    9.7211 N.ar    1  UNL1       -0.3523
     45 C          58.0490   79.7365   10.7239 C.ar    1  UNL1        0.0563
     46 C          57.9193   78.3488   10.6941 C.ar    1  UNL1        0.0170
     47 C          58.2617   77.6315   11.8551 C.ar    1  UNL1        0.0015
     48 C          58.7264   78.3090   13.0044 C.ar    1  UNL1        0.0001
     49 C          58.8512   79.7102   13.0041 C.ar    1  UNL1        0.0012
     50 C          58.4958   80.3941   11.8414 C.ar    1  UNL1        0.0131
     51 H          57.4813   80.3697    8.7562 H       1  UNL1        0.1660
@<TRIPOS>BOND
     1     1     2    2
     2     2     3   am
     3     3    30    1
     4    30    41    1
     5    41    42    1
     6    42    43   ar
     7    43    44   ar
     8    44    45   ar
     9    45    46   ar
    10    46    47   ar
    11    47    48   ar
    12    48    49   ar
    13    49    50   ar
    14    30    31    1
    15    31    32    2
    16    31    33   am
    17    33    35    1
    18    35    36   ar
    19    36    37   ar
    20    37    38   ar
    21    38    39   ar
    22    39    40   ar
    23     2     5    1
    24     5     6   ar
    25     6     7   ar
    26     7     8   ar
    27     8    12    1
    28    12    13    1
    29    13    14    1
    30    14    15    1
    31    15    20    1
    32    20    21   ar
    33    21    22   ar
    34    22    23   ar
    35    23    26    1
    36    26    27    1
    37    26    28    1
    38    26    29    1
    39    23    24   ar
    40    24    25   ar
    41    15    16    1
    42    16    17    1
    43    16    18    1
    44     8     9   ar
    45     9    10   ar
    46    10    11    1
    47    50    42   ar
    48    40    35   ar
    49    10     5   ar
    50    50    45   ar
    51    18    12    1
    52    25    20   ar
    53     3     4    1
    54    44    51    1
    55    33    34    1
    56    17    19    1
@<TRIPOS>MOLECULE
*****
 51 56 0 0 0
SMALL
GASTEIGER

@<TRIPOS>ATOM
      1 O          60.0803   83.7353   10.2681 O.2     1  UNL1       -0.2701
      2 C          59.1872   84.6213   10.1722 C.2     1  UNL1        0.2483
      3 N          57.9718   84.5029   10.9312 N.am    1  UNL1       -0.2945
      4 H          57.1832   85.1544   10.7163 H       1  UNL1        0.1501
      5 C          59.3869   85.7459    9.2337 C.ar    1  UNL1        0.0808
      6 C          58.9028   85.6428    7.9192 C.ar    1  UNL1        0.0080
      7 C          59.0678   86.6967    7.0171 C.ar    1  UNL1        0.0148
      8 C          59.7314   87.8689    7.4088 C.ar    1  UNL1        0.0503
      9 C          60.2281   87.9693    8.7176 C.ar    1  UNL1        0.0443
     10 C          60.0625   86.9176    9.6244 C.ar    1  UNL1        0.1457
     11 F          60.6006   87.0334   10.8649 F       1  UNL1       -0.2040
     12 N          59.8942   88.9586    6.4827 N.pl3   1  UNL1       -0.3020
     13 C          61.0335   88.9586    5.5550 C.3     1  UNL1        0.1124
     14 C          61.0406   90.2030    4.6552 C.3     1  UNL1        0.1157
     15 N          59.7009   90.4786    4.1039 N.pl3   1  UNL1       -0.2686
     16 C          58.5042   90.2646    4.9423 C.3     1  UNL1        0.2101
     17 O          57.7963   89.1528    4.4586 O.3     1  UNL1       -0.3658
     18 C          58.8946   90.0286    6.4076 C.3     1  UNL1        0.1420
     19 H          56.8761   89.2162    4.8261 H       1  UNL1        0.2123
     20 C          59.5926   91.1500    2.8244 C.ar    1  UNL1        0.1334
     21 C          60.6297   91.9585    2.3230 C.ar    1  UNL1        0.0343
     22 C          60.4822   92.5849    1.0844 C.ar    1  UNL1        0.0083
     23 C          59.2994   92.4287    0.3481 C.ar    1  UNL1        0.0906
     24 C          58.2977   91.5962    0.8679 C.ar    1  UNL1        0.1041
     25 N          58.4644   90.9946    2.0750 N.ar    1  UNL1       -0.2292
     26 C          59.1491   93.0594   -1.0128 C.3     1  UNL1        0.4200
     27 F          60.2543   93.8478   -1.2735 F       1  UNL1       -0.1658
     28 F          58.0116   93.8462   -1.0630 F       1  UNL1       -0.1658
     29 F          59.0470   92.0874   -1.9929 F       1  UNL1       -0.1658
     30 C          57.6822   83.3451   11.7829 C.3     1  UNL1        0.1535
     31 C          58.7922   82.3367   11.6476 C.2     1  UNL1        0.2443
     32 O          59.7472   82.3464   12.4722 O.2     1  UNL1       -0.2730
     33 N          58.8050   81.4293   10.5338 N.am    1  UNL1       -0.2825
     34 H          58.2032   81.6586    9.7104 H       1  UNL1        0.1549
     35 C          59.6744   80.2883   10.4355 C.ar    1  UNL1        0.0535
     36 C          59.4382   79.1699   11.2468 C.ar    1  UNL1        0.0353
     37 C          60.2931   78.0677   11.1717 C.ar    1  UNL1        0.1002
     38 N          61.3583   78.0873   10.3278 N.ar    1  UNL1       -0.2422
     39 C          61.6249   79.1646    9.5430 C.ar    1  UNL1        0.1002
     40 C          60.7943   80.2873    9.5864 C.ar    1  UNL1        0.0353
     41 C          57.5209   83.7857   13.2494 C.3     1  UNL1        0.0569
     42 C          58.2077   85.0964   13.5035 C.ar    1  UNL1       -0.0017
     43 C          57.6755   86.3647   13.2883 C.ar    1  UNL1        0.0681
     44 N          58.5239   87.3158   13.7411 N.ar    1  UNL1       -0.3523
     45 C          59.5803   86.6590   14.2508 C.ar    1  UNL1        0.0563
     46 C          60.7021   87.2121   14.8666 C.ar    1  UNL1        0.0170
     47 C          61.6802   86.3315   15.3641 C.ar    1  UNL1        0.0015
     48 C          61.5141   84.9338   15.2416 C.ar    1  UNL1        0.0001
     49 C          60.3694   84.4039   14.6189 C.ar    1  UNL1        0.0012
     50 C          59.4218   85.3022   14.1282 C.ar    1  UNL1        0.0131
     51 H          58.3726   88.3488   13.7208 H       1  UNL1        0.1660
@<TRIPOS>BOND
     1     1     2    2
     2     2     3   am
     3     3    30    1
     4    30    41    1
     5    41    42    1
     6    42    43   ar
     7    43    44   ar
     8    44    45   ar
     9    45    46   ar
    10    46    47   ar
    11    47    48   ar
    12    48    49   ar
    13    49    50   ar
    14    30    31    1
    15    31    32    2
    16    31    33   am
    17    33    35    1
    18    35    36   ar
    19    36    37   ar
    20    37    38   ar
    21    38    39   ar
    22    39    40   ar
    23     2     5    1
    24     5     6   ar
    25     6     7   ar
    26     7     8   ar
    27     8    12    1
    28    12    13    1
    29    13    14    1
    30    14    15    1
    31    15    20    1
    32    20    21   ar
    33    21    22   ar
    34    22    23   ar
    35    23    26    1
    36    26    27    1
    37    26    28    1
    38    26    29    1
    39    23    24   ar
    40    24    25   ar
    41    15    16    1
    42    16    17    1
    43    16    18    1
    44     8     9   ar
    45     9    10   ar
    46    10    11    1
    47    50    42   ar
    48    40    35   ar
    49    10     5   ar
    50    50    45   ar
    51    18    12    1
    52    25    20   ar
    53     3     4    1
    54    44    51    1
    55    33    34    1
    56    17    19    1
