@<TRIPOS>MOLECULE
*****
 38 42 0 0 0
SMALL
GASTEIGER

@<TRIPOS>ATOM
      1 C         -11.6170  -10.2352   31.2938 C.ar    1  UNL1        0.0672
      2 C         -12.6204  -10.3310   32.2817 C.ar    1  UNL1        0.0159
      3 C         -12.9807  -11.5852   32.8216 C.ar    1  UNL1        0.0009
      4 C         -12.3448  -12.7674   32.3838 C.ar    1  UNL1        0.0245
      5 C         -11.3632  -12.6359   31.3943 C.ar    1  UNL1        0.0751
      6 N         -10.6494  -13.5974   30.7899 N.ar    1  UNL1       -0.3375
      7 C          -9.8820  -12.9266   29.8925 C.ar    1  UNL1        0.1405
      8 N         -10.0887  -11.5828   29.9096 N.ar    1  UNL1       -0.2258
      9 C         -11.0170  -11.4250   30.8699 C.ar    1  UNL1        0.1114
     10 H         -10.7048  -14.6264   30.9554 H       1  UNL1        0.1674
     11 N          -9.7003   -6.7880   30.4776 N.3     1  UNL1       -0.2647
     12 C          -9.5582   -7.7379   29.3544 C.3     1  UNL1        0.0941
     13 C         -10.5646   -8.9092   29.4361 C.3     1  UNL1        0.1082
     14 N         -11.2330   -8.9638   30.7437 N.pl3   1  UNL1       -0.3034
     15 C         -11.7651   -7.7353   31.3507 C.3     1  UNL1        0.1082
     16 C         -11.1216   -6.4963   30.7294 C.3     1  UNL1        0.0941
     17 C          -8.9243   -5.5575   30.2334 C.3     1  UNL1        0.1200
     18 N          -5.5352   -6.2323   31.4469 N.ar    1  UNL1       -0.3128
     19 C          -5.3561   -5.8895   30.1541 C.ar    1  UNL1        0.1780
     20 N          -6.5170   -5.6295   29.5152 N.ar    1  UNL1       -0.2273
     21 C          -7.4633   -5.8194   30.4570 C.ar    1  UNL1        0.0885
     22 C          -6.8686   -6.1964   31.6466 C.ar    1  UNL1        0.0537
     23 C          -7.5677   -6.3670   32.9636 C.3     1  UNL1        0.0514
     24 C          -4.6146   -7.8167   33.0795 C.3     1  UNL1        0.0265
     25 C          -4.4717   -6.4449   32.4303 C.3     1  UNL1        0.1073
     26 C          -8.9191  -13.5747   28.9716 C.ar    1  UNL1        0.0339
     27 C          -7.5783  -13.1680   28.9141 C.ar    1  UNL1        0.0027
     28 C          -6.6908  -13.7733   28.0202 C.ar    1  UNL1       -0.0042
     29 C          -7.1133  -14.8051   27.1532 C.ar    1  UNL1       -0.0228
     30 C          -8.4655  -15.2103   27.2275 C.ar    1  UNL1       -0.0042
     31 C          -9.3493  -14.6017   28.1210 C.ar    1  UNL1        0.0027
     32 C          -6.1059  -15.4387   26.1718 C.3     1  UNL1        0.0189
     33 C          -6.8333  -15.8253   24.8659 C.3     1  UNL1        0.0044
     34 C          -5.4910  -16.7031   26.8104 C.3     1  UNL1        0.0044
     35 C          -4.9421  -14.4884   25.7989 C.3     1  UNL1        0.0044
     36 C         -12.7391  -14.1129   32.9336 C.3     1  UNL1        0.1702
     37 O         -12.5423  -15.1242   31.9642 O.3     1  UNL1       -0.3463
     38 C         -12.9915  -16.3674   32.4579 C.3     1  UNL1        0.1746
@<TRIPOS>BOND
     1    24    25    1
     2    25    18    1
     3    18    19   ar
     4    19    20   ar
     5    20    21   ar
     6    21    17    1
     7    17    11    1
     8    11    12    1
     9    12    13    1
    10    13    14    1
    11    14     1    1
    12     1     2   ar
    13     2     3   ar
    14     3     4   ar
    15     4    36    1
    16    36    37    1
    17    37    38    1
    18     4     5   ar
    19     5     6   ar
    20     6     7   ar
    21     7    26    1
    22    26    27   ar
    23    27    28   ar
    24    28    29   ar
    25    29    32    1
    26    32    33    1
    27    32    34    1
    28    32    35    1
    29    29    30   ar
    30    30    31   ar
    31     7     8   ar
    32     8     9   ar
    33    14    15    1
    34    15    16    1
    35    21    22   ar
    36    22    23    1
    37    22    18   ar
    38    16    11    1
    39     9     1   ar
    40     9     5   ar
    41    31    26   ar
    42     6    10    1
@<TRIPOS>MOLECULE
*****
 38 42 0 0 0
SMALL
GASTEIGER

@<TRIPOS>ATOM
      1 C          -7.5518   -8.7135   29.8900 C.ar    1  UNL1        0.0672
      2 C          -7.4382   -7.3216   29.6856 C.ar    1  UNL1        0.0159
      3 C          -8.4369   -6.4416   30.1574 C.ar    1  UNL1        0.0009
      4 C          -9.5681   -6.9365   30.8423 C.ar    1  UNL1        0.0245
      5 C          -9.6535   -8.3231   31.0161 C.ar    1  UNL1        0.0751
      6 N         -10.6335   -9.0361   31.5909 N.ar    1  UNL1       -0.3375
      7 C         -10.2305  -10.3256   31.4529 C.ar    1  UNL1        0.1405
      8 N          -9.0376  -10.4483   30.8123 N.ar    1  UNL1       -0.2258
      9 C          -8.6908   -9.1740   30.5577 C.ar    1  UNL1        0.1114
     10 H         -11.5164   -8.6738   32.0136 H       1  UNL1        0.1674
     11 N          -5.5808  -11.7151   28.0657 N.3     1  UNL1       -0.2647
     12 C          -5.2320  -10.4175   27.4505 C.3     1  UNL1        0.0941
     13 C          -5.6478   -9.2136   28.3274 C.3     1  UNL1        0.1082
     14 N          -6.5372   -9.6194   29.4246 N.pl3   1  UNL1       -0.3034
     15 C          -6.2175  -10.8058   30.2314 C.3     1  UNL1        0.1082
     16 C          -5.2348  -11.7169   29.4971 C.3     1  UNL1        0.0941
     17 C          -4.9402  -12.8326   27.3467 C.3     1  UNL1        0.1200
     18 N          -7.0932  -15.5714   26.2166 N.ar    1  UNL1       -0.3128
     19 C          -7.6124  -15.2208   27.4118 C.ar    1  UNL1        0.1780
     20 N          -6.9221  -14.2275   28.0120 N.ar    1  UNL1       -0.2273
     21 C          -5.9259  -13.9468   27.1474 C.ar    1  UNL1        0.0885
     22 C          -6.0200  -14.7731   26.0430 C.ar    1  UNL1        0.0537
     23 C          -5.1821  -14.6800   24.8015 C.3     1  UNL1        0.0514
     24 C          -8.9423  -15.9269   24.6426 C.3     1  UNL1        0.0265
     25 C          -7.6865  -16.5193   25.2717 C.3     1  UNL1        0.1073
     26 C         -11.0023  -11.4951   31.9345 C.ar    1  UNL1        0.0339
     27 C         -10.4814  -12.3630   32.9049 C.ar    1  UNL1        0.0027
     28 C         -11.2131  -13.4762   33.3277 C.ar    1  UNL1       -0.0042
     29 C         -12.4899  -13.7597   32.7945 C.ar    1  UNL1       -0.0228
     30 C         -13.0059  -12.8721   31.8229 C.ar    1  UNL1       -0.0042
     31 C         -12.2707  -11.7620   31.4022 C.ar    1  UNL1        0.0027
     32 C         -13.2602  -15.0058   33.2780 C.3     1  UNL1        0.0189
     33 C         -13.0619  -15.1750   34.7998 C.3     1  UNL1        0.0044
     34 C         -12.7248  -16.2569   32.5483 C.3     1  UNL1        0.0044
     35 C         -14.7822  -14.9210   33.0081 C.3     1  UNL1        0.0044
     36 C         -10.6520   -6.0099   31.3268 C.3     1  UNL1        0.1702
     37 O         -11.8856   -6.3196   30.7078 O.3     1  UNL1       -0.3463
     38 C         -12.8069   -6.7934   31.6658 C.3     1  UNL1        0.1746
@<TRIPOS>BOND
     1    24    25    1
     2    25    18    1
     3    18    19   ar
     4    19    20   ar
     5    20    21   ar
     6    21    17    1
     7    17    11    1
     8    11    12    1
     9    12    13    1
    10    13    14    1
    11    14     1    1
    12     1     2   ar
    13     2     3   ar
    14     3     4   ar
    15     4    36    1
    16    36    37    1
    17    37    38    1
    18     4     5   ar
    19     5     6   ar
    20     6     7   ar
    21     7    26    1
    22    26    27   ar
    23    27    28   ar
    24    28    29   ar
    25    29    32    1
    26    32    33    1
    27    32    34    1
    28    32    35    1
    29    29    30   ar
    30    30    31   ar
    31     7     8   ar
    32     8     9   ar
    33    14    15    1
    34    15    16    1
    35    21    22   ar
    36    22    23    1
    37    22    18   ar
    38    16    11    1
    39     9     1   ar
    40     9     5   ar
    41    31    26   ar
    42     6    10    1
@<TRIPOS>MOLECULE
*****
 38 42 0 0 0
SMALL
GASTEIGER

@<TRIPOS>ATOM
      1 C          -8.5832  -16.0108   25.9695 C.ar    1  UNL1        0.0672
      2 C          -8.9671  -15.2774   27.1126 C.ar    1  UNL1        0.0159
      3 C          -8.0462  -14.4287   27.7653 C.ar    1  UNL1        0.0009
      4 C          -6.7240  -14.2973   27.2877 C.ar    1  UNL1        0.0245
      5 C          -6.3749  -15.0488   26.1592 C.ar    1  UNL1        0.0751
      6 N          -5.1869  -15.1295   25.5416 N.ar    1  UNL1       -0.3375
      7 C          -5.3931  -16.0241   24.5409 C.ar    1  UNL1        0.1405
      8 N          -6.6631  -16.5084   24.5088 N.ar    1  UNL1       -0.2258
      9 C          -7.2629  -15.8714   25.5301 C.ar    1  UNL1        0.1114
     10 H          -4.3032  -14.6384   25.8013 H       1  UNL1        0.1674
     11 N         -10.2618  -18.7501   23.5403 N.3     1  UNL1       -0.2647
     12 C         -10.2734  -19.2233   24.9402 C.3     1  UNL1        0.0941
     13 C          -9.9984  -18.0877   25.9533 C.3     1  UNL1        0.1082
     14 N          -9.5136  -16.8698   25.2891 N.pl3   1  UNL1       -0.3034
     15 C         -10.1809  -16.3774   24.0754 C.3     1  UNL1        0.1082
     16 C         -11.0040  -17.4841   23.4176 C.3     1  UNL1        0.0941
     17 C         -10.7866  -19.7826   22.6267 C.3     1  UNL1        0.1200
     18 N          -8.2133  -19.7476   20.0209 N.ar    1  UNL1       -0.3128
     19 C          -9.3686  -19.8792   19.3361 C.ar    1  UNL1        0.1780
     20 N         -10.4506  -19.9443   20.1414 N.ar    1  UNL1       -0.2273
     21 C          -9.9430  -19.8477   21.3870 C.ar    1  UNL1        0.0885
     22 C          -8.5669  -19.7326   21.3224 C.ar    1  UNL1        0.0537
     23 C          -7.6515  -19.4671   22.4817 C.3     1  UNL1        0.0514
     24 C          -5.8430  -20.3728   20.1393 C.3     1  UNL1        0.0265
     25 C          -6.8918  -19.5216   19.4327 C.3     1  UNL1        0.1073
     26 C          -4.3510  -16.4508   23.5779 C.ar    1  UNL1        0.0339
     27 C          -4.0205  -15.6642   22.4651 C.ar    1  UNL1        0.0027
     28 C          -3.0536  -16.0957   21.5530 C.ar    1  UNL1       -0.0042
     29 C          -2.3846  -17.3281   21.7219 C.ar    1  UNL1       -0.0228
     30 C          -2.7222  -18.1070   22.8522 C.ar    1  UNL1       -0.0042
     31 C          -3.6901  -17.6728   23.7602 C.ar    1  UNL1        0.0027
     32 C          -1.3328  -17.7748   20.6857 C.3     1  UNL1        0.0189
     33 C          -2.0265  -18.0495   19.3339 C.3     1  UNL1        0.0044
     34 C          -0.6401  -19.0639   21.1784 C.3     1  UNL1        0.0044
     35 C          -0.2316  -16.7143   20.4427 C.3     1  UNL1        0.0044
     36 C          -5.7261  -13.4154   27.9910 C.3     1  UNL1        0.1702
     37 O          -6.3743  -12.5821   28.9324 O.3     1  UNL1       -0.3463
     38 C          -5.7389  -11.3235   28.9889 C.3     1  UNL1        0.1746
@<TRIPOS>BOND
     1    24    25    1
     2    25    18    1
     3    18    19   ar
     4    19    20   ar
     5    20    21   ar
     6    21    17    1
     7    17    11    1
     8    11    12    1
     9    12    13    1
    10    13    14    1
    11    14     1    1
    12     1     2   ar
    13     2     3   ar
    14     3     4   ar
    15     4    36    1
    16    36    37    1
    17    37    38    1
    18     4     5   ar
    19     5     6   ar
    20     6     7   ar
    21     7    26    1
    22    26    27   ar
    23    27    28   ar
    24    28    29   ar
    25    29    32    1
    26    32    33    1
    27    32    34    1
    28    32    35    1
    29    29    30   ar
    30    30    31   ar
    31     7     8   ar
    32     8     9   ar
    33    14    15    1
    34    15    16    1
    35    21    22   ar
    36    22    23    1
    37    22    18   ar
    38    16    11    1
    39     9     1   ar
    40     9     5   ar
    41    31    26   ar
    42     6    10    1
@<TRIPOS>MOLECULE
*****
 38 42 0 0 0
SMALL
GASTEIGER

@<TRIPOS>ATOM
      1 C          -5.7922  -12.1403   28.0602 C.ar    1  UNL1        0.0672
      2 C          -4.8337  -11.1606   27.7232 C.ar    1  UNL1        0.0159
      3 C          -4.7761   -9.9384   28.4284 C.ar    1  UNL1        0.0009
      4 C          -5.6757   -9.6724   29.4836 C.ar    1  UNL1        0.0245
      5 C          -6.6204  -10.6615   29.7822 C.ar    1  UNL1        0.0751
      6 N          -7.5975  -10.6361   30.7009 N.ar    1  UNL1       -0.3375
      7 C          -8.2374  -11.8228   30.5376 C.ar    1  UNL1        0.1405
      8 N          -7.7008  -12.5895   29.5513 N.ar    1  UNL1       -0.2258
      9 C          -6.6789  -11.8410   29.0993 C.ar    1  UNL1        0.1114
     10 H          -7.8260   -9.8611   31.3615 H       1  UNL1        0.1674
     11 N          -6.6578  -15.0699   25.4353 N.3     1  UNL1       -0.2647
     12 C          -5.2624  -14.6152   25.2619 C.3     1  UNL1        0.0941
     13 C          -4.7568  -13.7794   26.4607 C.3     1  UNL1        0.1082
     14 N          -5.8547  -13.3931   27.3579 N.pl3   1  UNL1       -0.3034
     15 C          -6.8597  -14.3867   27.7623 C.3     1  UNL1        0.1082
     16 C          -6.8693  -15.5754   26.8021 C.3     1  UNL1        0.0941
     17 C          -7.0183  -16.0757   24.4182 C.3     1  UNL1        0.1200
     18 N          -4.6344  -16.0183   21.6384 N.ar    1  UNL1       -0.3128
     19 C          -5.4259  -14.9493   21.4109 C.ar    1  UNL1        0.1780
     20 N          -6.4060  -14.8178   22.3305 N.ar    1  UNL1       -0.2273
     21 C          -6.2137  -15.8551   23.1705 C.ar    1  UNL1        0.0885
     22 C          -5.1298  -16.6023   22.7487 C.ar    1  UNL1        0.0537
     23 C          -4.5139  -17.7533   23.4891 C.3     1  UNL1        0.0514
     24 C          -3.7523  -17.1953   19.6737 C.3     1  UNL1        0.0265
     25 C          -3.4160  -16.3528   20.8988 C.3     1  UNL1        0.1073
     26 C          -9.4096  -12.2532   31.3352 C.ar    1  UNL1        0.0339
     27 C          -9.4199  -12.1447   32.7332 C.ar    1  UNL1        0.0027
     28 C         -10.5242  -12.5804   33.4707 C.ar    1  UNL1       -0.0042
     29 C         -11.6552  -13.1396   32.8360 C.ar    1  UNL1       -0.0228
     30 C         -11.6343  -13.2356   31.4259 C.ar    1  UNL1       -0.0042
     31 C         -10.5283  -12.8005   30.6930 C.ar    1  UNL1        0.0027
     32 C         -12.8487  -13.6208   33.6867 C.3     1  UNL1        0.0189
     33 C         -13.8114  -12.4399   33.9372 C.3     1  UNL1        0.0044
     34 C         -12.3330  -14.1583   35.0393 C.3     1  UNL1        0.0044
     35 C         -13.6588  -14.7533   33.0102 C.3     1  UNL1        0.0044
     36 C          -5.6404   -8.3620   30.2252 C.3     1  UNL1        0.1702
     37 O          -6.0487   -8.5385   31.5680 O.3     1  UNL1       -0.3463
     38 C          -5.3268   -7.6714   32.4154 C.3     1  UNL1        0.1746
@<TRIPOS>BOND
     1    24    25    1
     2    25    18    1
     3    18    19   ar
     4    19    20   ar
     5    20    21   ar
     6    21    17    1
     7    17    11    1
     8    11    12    1
     9    12    13    1
    10    13    14    1
    11    14     1    1
    12     1     2   ar
    13     2     3   ar
    14     3     4   ar
    15     4    36    1
    16    36    37    1
    17    37    38    1
    18     4     5   ar
    19     5     6   ar
    20     6     7   ar
    21     7    26    1
    22    26    27   ar
    23    27    28   ar
    24    28    29   ar
    25    29    32    1
    26    32    33    1
    27    32    34    1
    28    32    35    1
    29    29    30   ar
    30    30    31   ar
    31     7     8   ar
    32     8     9   ar
    33    14    15    1
    34    15    16    1
    35    21    22   ar
    36    22    23    1
    37    22    18   ar
    38    16    11    1
    39     9     1   ar
    40     9     5   ar
    41    31    26   ar
    42     6    10    1
@<TRIPOS>MOLECULE
*****
 38 42 0 0 0
SMALL
GASTEIGER

@<TRIPOS>ATOM
      1 C          -5.8426  -12.0378   27.9993 C.ar    1  UNL1        0.0672
      2 C          -4.9605  -11.0091   27.6049 C.ar    1  UNL1        0.0159
      3 C          -4.9984   -9.7472   28.2378 C.ar    1  UNL1        0.0009
      4 C          -5.9191   -9.4898   29.2769 C.ar    1  UNL1        0.0245
      5 C          -6.7867  -10.5291   29.6335 C.ar    1  UNL1        0.0751
      6 N          -7.7659  -10.5251   30.5503 N.ar    1  UNL1       -0.3375
      7 C          -8.3130  -11.7646   30.4570 C.ar    1  UNL1        0.1405
      8 N          -7.7163  -12.5440   29.5162 N.ar    1  UNL1       -0.2258
      9 C          -6.7529  -11.7473   29.0203 C.ar    1  UNL1        0.1114
     10 H          -8.0550   -9.7327   31.1650 H       1  UNL1        0.1674
     11 N          -6.4234  -15.1529   25.5131 N.3     1  UNL1       -0.2647
     12 C          -5.0437  -14.6390   25.3856 C.3     1  UNL1        0.0941
     13 C          -4.6447  -13.7115   26.5569 C.3     1  UNL1        0.1082
     14 N          -5.8072  -13.3303   27.3710 N.pl3   1  UNL1       -0.3034
     15 C          -6.7848  -14.3485   27.7814 C.3     1  UNL1        0.1082
     16 C          -6.6856  -15.5893   26.8949 C.3     1  UNL1        0.0941
     17 C          -6.6797  -16.2322   24.5407 C.3     1  UNL1        0.1200
     18 N          -9.6627  -15.7436   22.4726 N.ar    1  UNL1       -0.3128
     19 C          -8.7432  -14.9277   21.9160 C.ar    1  UNL1        0.1780
     20 N          -7.5622  -14.9453   22.5707 N.ar    1  UNL1       -0.2273
     21 C          -7.7573  -15.8147   23.5829 C.ar    1  UNL1        0.0885
     22 C          -9.0486  -16.3059   23.5338 C.ar    1  UNL1        0.0537
     23 C          -9.6086  -17.3949   24.4014 C.3     1  UNL1        0.0514
     24 C         -10.9239  -16.1254   20.4022 C.3     1  UNL1        0.0265
     25 C         -10.9867  -16.0405   21.9229 C.3     1  UNL1        0.1073
     26 C          -9.4517  -12.2361   31.2795 C.ar    1  UNL1        0.0339
     27 C          -9.4436  -12.1104   32.6761 C.ar    1  UNL1        0.0027
     28 C         -10.5151  -12.5850   33.4375 C.ar    1  UNL1       -0.0042
     29 C         -11.6306  -13.2017   32.8290 C.ar    1  UNL1       -0.0228
     30 C         -11.6287  -13.3146   31.4200 C.ar    1  UNL1       -0.0042
     31 C         -10.5553  -12.8404   30.6631 C.ar    1  UNL1        0.0027
     32 C         -12.7873  -13.7242   33.7057 C.3     1  UNL1        0.0189
     33 C         -13.5306  -14.8523   32.9581 C.3     1  UNL1        0.0044
     34 C         -13.7701  -12.5705   34.0020 C.3     1  UNL1        0.0044
     35 C         -12.3102  -14.2941   35.0636 C.3     1  UNL1        0.0044
     36 C          -5.9862   -8.1399   29.9411 C.3     1  UNL1        0.1702
     37 O          -7.3301   -7.7242   30.0900 O.3     1  UNL1       -0.3463
     38 C          -7.3989   -6.3175   30.1770 C.3     1  UNL1        0.1746
@<TRIPOS>BOND
     1    24    25    1
     2    25    18    1
     3    18    19   ar
     4    19    20   ar
     5    20    21   ar
     6    21    17    1
     7    17    11    1
     8    11    12    1
     9    12    13    1
    10    13    14    1
    11    14     1    1
    12     1     2   ar
    13     2     3   ar
    14     3     4   ar
    15     4    36    1
    16    36    37    1
    17    37    38    1
    18     4     5   ar
    19     5     6   ar
    20     6     7   ar
    21     7    26    1
    22    26    27   ar
    23    27    28   ar
    24    28    29   ar
    25    29    32    1
    26    32    33    1
    27    32    34    1
    28    32    35    1
    29    29    30   ar
    30    30    31   ar
    31     7     8   ar
    32     8     9   ar
    33    14    15    1
    34    15    16    1
    35    21    22   ar
    36    22    23    1
    37    22    18   ar
    38    16    11    1
    39     9     1   ar
    40     9     5   ar
    41    31    26   ar
    42     6    10    1
