@<TRIPOS>MOLECULE
*****
 38 42 0 0 0
SMALL
GASTEIGER

@<TRIPOS>ATOM
      1 N          48.1006   13.8607  -23.9042 N.3     1  UNL1       -0.2679
      2 C          48.8854   11.4590  -23.7565 C.3     1  UNL1        0.0207
      3 C          50.3042   11.3085  -24.4059 C.3     1  UNL1        0.0064
      4 C          51.1053   12.6113  -24.4488 C.3     1  UNL1        0.0277
      5 C          51.1471   13.1896  -23.0687 C.ar    1  UNL1       -0.0073
      6 C          52.3375   13.6388  -22.4848 C.ar    1  UNL1       -0.0015
      7 C          52.3254   14.1198  -21.1743 C.ar    1  UNL1        0.0203
      8 C          51.1228   14.1428  -20.4639 C.ar    1  UNL1        0.0985
      9 N          49.9745   13.7143  -21.0527 N.ar    1  UNL1       -0.2471
     10 C          49.9559   13.2495  -22.3332 C.ar    1  UNL1        0.0695
     11 C          48.6488   12.8195  -22.9792 C.3     1  UNL1        0.0978
     12 C          49.7584    9.4786  -22.3258 C.3     1  UNL1        0.0001
     13 C          48.5277   10.1928  -22.9123 C.3     1  UNL1        0.0017
     14 C          47.5141   10.5067  -21.8002 C.3     1  UNL1        0.0001
     15 C          48.0553   15.2472  -23.3551 C.3     1  UNL1        0.0725
     16 C          46.6584   15.8409  -23.5739 C.3     1  UNL1        0.0188
     17 C          46.6789   17.3762  -23.5400 C.3     1  UNL1        0.0185
     18 C          46.8545   17.9811  -24.9391 C.3     1  UNL1        0.0686
     19 N          48.2806   18.2448  -25.2138 N.3     1  UNL1       -0.2984
     20 H          48.4758   19.2316  -24.9218 H       1  UNL1        0.1232
     21 C          48.6506   18.0950  -26.6371 C.3     1  UNL1        0.0590
     22 C          50.0075   18.7831  -26.9060 C.3     1  UNL1        0.0478
     23 C          51.1970   17.9123  -26.4441 C.3     1  UNL1        0.1435
     24 O          50.7769   16.8707  -25.5839 O.3     1  UNL1       -0.3537
     25 C          49.9771   15.9425  -26.2974 C.3     1  UNL1        0.1435
     26 C          48.7878   16.6105  -27.0275 C.3     1  UNL1        0.0478
     27 C          46.7691   13.4819  -24.4492 C.3     1  UNL1        0.0886
     28 C          46.8227   13.4021  -25.9903 C.3     1  UNL1        0.0748
     29 C          46.6011   11.9578  -26.4712 C.3     1  UNL1        0.0432
     30 C          46.4920   11.8979  -27.9710 C.ar    1  UNL1       -0.0234
     31 C          46.6678   10.6716  -28.6306 C.ar    1  UNL1       -0.0045
     32 C          46.5442   10.5950  -30.0200 C.ar    1  UNL1       -0.0003
     33 C          46.2368   11.7386  -30.7596 C.ar    1  UNL1       -0.0003
     34 C          46.0425   12.9611  -30.1116 C.ar    1  UNL1       -0.0032
     35 C          46.1478   13.0474  -28.7147 C.ar    1  UNL1       -0.0103
     36 C          46.0087   14.3917  -28.0396 C.3     1  UNL1        0.0953
     37 N          45.7928   14.2650  -26.5895 N.3     1  UNL1       -0.2934
     38 H          45.8810   15.2267  -26.1845 H       1  UNL1        0.1236
@<TRIPOS>BOND
     1    12    13    1
     2    13    14    1
     3    13     2    1
     4     2     3    1
     5     3     4    1
     6     4     5    1
     7     5     6   ar
     8     6     7   ar
     9     7     8   ar
    10     8     9   ar
    11     9    10   ar
    12    10    11    1
    13    11     1    1
    14     1    15    1
    15    15    16    1
    16    16    17    1
    17    17    18    1
    18    18    19    1
    19    19    21    1
    20    21    22    1
    21    22    23    1
    22    23    24    1
    23    24    25    1
    24    25    26    1
    25     1    27    1
    26    27    28    1
    27    28    29    1
    28    29    30    1
    29    30    31   ar
    30    31    32   ar
    31    32    33   ar
    32    33    34   ar
    33    34    35   ar
    34    35    36    1
    35    36    37    1
    36    11     2    1
    37    26    21    1
    38    37    28    1
    39    10     5   ar
    40    35    30   ar
    41    19    20    1
    42    37    38    1
@<TRIPOS>MOLECULE
*****
 38 42 0 0 0
SMALL
GASTEIGER

@<TRIPOS>ATOM
      1 N          48.1885   13.1228  -24.5977 N.3     1  UNL1       -0.2679
      2 C          49.3434   15.3114  -25.1288 C.3     1  UNL1        0.0207
      3 C          50.2955   15.7242  -23.9539 C.3     1  UNL1        0.0064
      4 C          50.7508   14.5494  -23.0858 C.3     1  UNL1        0.0277
      5 C          51.3354   13.4982  -23.9769 C.ar    1  UNL1       -0.0073
      6 C          52.5656   12.8889  -23.7027 C.ar    1  UNL1       -0.0015
      7 C          53.0874   11.9528  -24.5973 C.ar    1  UNL1        0.0203
      8 C          52.3728   11.6401  -25.7561 C.ar    1  UNL1        0.0985
      9 N          51.1734   12.2330  -25.9986 N.ar    1  UNL1       -0.2471
     10 C          50.6362   13.1421  -25.1379 C.ar    1  UNL1        0.0695
     11 C          49.2725   13.7544  -25.4140 C.3     1  UNL1        0.0978
     12 C          48.3927   16.8395  -26.9976 C.3     1  UNL1        0.0001
     13 C          49.6417   16.1624  -26.4058 C.3     1  UNL1        0.0017
     14 C          50.7464   17.2030  -26.1620 C.3     1  UNL1        0.0001
     15 C          48.3173   11.6514  -24.3882 C.3     1  UNL1        0.0725
     16 C          48.1989   11.3331  -22.8927 C.3     1  UNL1        0.0188
     17 C          49.2900   10.3570  -22.4287 C.3     1  UNL1        0.0185
     18 C          49.3478   10.2417  -20.8997 C.3     1  UNL1        0.0686
     19 N          50.5041   10.9890  -20.3676 N.3     1  UNL1       -0.2984
     20 H          50.7890   10.5245  -19.4731 H       1  UNL1        0.1232
     21 C          50.2157   12.4113  -20.0864 C.3     1  UNL1        0.0590
     22 C          49.1324   12.5244  -18.9906 C.3     1  UNL1        0.0478
     23 C          49.7162   12.3023  -17.5776 C.3     1  UNL1        0.1435
     24 O          51.0013   11.7132  -17.6317 O.3     1  UNL1       -0.3537
     25 C          51.9284   12.6187  -18.2070 C.3     1  UNL1        0.1435
     26 C          51.4725   13.1500  -19.5867 C.3     1  UNL1        0.0478
     27 C          46.8329   13.4496  -25.1166 C.3     1  UNL1        0.0886
     28 C          46.8238   13.4050  -26.6601 C.3     1  UNL1        0.0748
     29 C          46.6349   11.9639  -27.1644 C.3     1  UNL1        0.0432
     30 C          46.4644   11.9321  -28.6593 C.ar    1  UNL1       -0.0234
     31 C          46.6567   10.7278  -29.3537 C.ar    1  UNL1       -0.0045
     32 C          46.4770   10.6764  -30.7382 C.ar    1  UNL1       -0.0003
     33 C          46.0968   11.8233  -31.4378 C.ar    1  UNL1       -0.0003
     34 C          45.8857   13.0234  -30.7543 C.ar    1  UNL1       -0.0032
     35 C          46.0471   13.0837  -29.3614 C.ar    1  UNL1       -0.0103
     36 C          45.8877   14.4070  -28.6503 C.3     1  UNL1        0.0953
     37 N          45.7384   14.2412  -27.1958 N.3     1  UNL1       -0.2934
     38 H          45.8086   15.1967  -26.7728 H       1  UNL1        0.1236
@<TRIPOS>BOND
     1    12    13    1
     2    13    14    1
     3    13     2    1
     4     2     3    1
     5     3     4    1
     6     4     5    1
     7     5     6   ar
     8     6     7   ar
     9     7     8   ar
    10     8     9   ar
    11     9    10   ar
    12    10    11    1
    13    11     1    1
    14     1    15    1
    15    15    16    1
    16    16    17    1
    17    17    18    1
    18    18    19    1
    19    19    21    1
    20    21    22    1
    21    22    23    1
    22    23    24    1
    23    24    25    1
    24    25    26    1
    25     1    27    1
    26    27    28    1
    27    28    29    1
    28    29    30    1
    29    30    31   ar
    30    31    32   ar
    31    32    33   ar
    32    33    34   ar
    33    34    35   ar
    34    35    36    1
    35    36    37    1
    36    11     2    1
    37    26    21    1
    38    37    28    1
    39    10     5   ar
    40    35    30   ar
    41    19    20    1
    42    37    38    1
@<TRIPOS>MOLECULE
*****
 38 42 0 0 0
SMALL
GASTEIGER

@<TRIPOS>ATOM
      1 N          48.6943   12.3122  -24.3289 N.3     1  UNL1       -0.2679
      2 C          49.5671   14.6871  -24.2660 C.3     1  UNL1        0.0207
      3 C          50.6685   14.8337  -23.1602 C.3     1  UNL1        0.0064
      4 C          51.3548   13.5164  -22.7934 C.3     1  UNL1        0.0277
      5 C          51.8614   12.8782  -24.0491 C.ar    1  UNL1       -0.0073
      6 C          53.1643   12.3777  -24.1573 C.ar    1  UNL1       -0.0015
      7 C          53.5995   11.8410  -25.3703 C.ar    1  UNL1        0.0203
      8 C          52.7264   11.8143  -26.4604 C.ar    1  UNL1        0.0985
      9 N          51.4603   12.2935  -26.3320 N.ar    1  UNL1       -0.2471
     10 C          51.0064   12.8133  -25.1575 C.ar    1  UNL1        0.0695
     11 C          49.5718   13.3000  -25.0321 C.3     1  UNL1        0.0978
     12 C          50.6598   16.9605  -24.8732 C.3     1  UNL1        0.0001
     13 C          49.5776   15.9234  -25.2227 C.3     1  UNL1        0.0017
     14 C          49.6923   15.5111  -26.6990 C.3     1  UNL1        0.0001
     15 C          49.1287   10.8880  -24.4214 C.3     1  UNL1        0.0725
     16 C          48.6751   10.1300  -23.1678 C.3     1  UNL1        0.0188
     17 C          49.8613    9.5090  -22.4157 C.3     1  UNL1        0.0185
     18 C          49.6764    9.5738  -20.8939 C.3     1  UNL1        0.0686
     19 N          48.3496   10.1256  -20.5567 N.3     1  UNL1       -0.2984
     20 H          47.9470   10.5260  -21.4369 H       1  UNL1        0.1232
     21 C          48.3903   11.1909  -19.5327 C.3     1  UNL1        0.0590
     22 C          48.9178   12.5029  -20.1553 C.3     1  UNL1        0.0478
     23 C          47.8247   13.2385  -20.9619 C.3     1  UNL1        0.1435
     24 O          46.7225   12.3947  -21.2353 O.3     1  UNL1       -0.3537
     25 C          46.0478   12.0694  -20.0314 C.3     1  UNL1        0.1435
     26 C          46.9879   11.4706  -18.9585 C.3     1  UNL1        0.0478
     27 C          47.2686   12.4402  -24.7344 C.3     1  UNL1        0.0886
     28 C          47.1636   12.7011  -26.2527 C.3     1  UNL1        0.0748
     29 C          46.8405   11.4015  -27.0098 C.3     1  UNL1        0.0432
     30 C          46.5787   11.6750  -28.4663 C.ar    1  UNL1       -0.0234
     31 C          46.6409   10.6217  -29.3918 C.ar    1  UNL1       -0.0045
     32 C          46.3752   10.8548  -30.7434 C.ar    1  UNL1       -0.0003
     33 C          46.0381   12.1377  -31.1794 C.ar    1  UNL1       -0.0003
     34 C          45.9562   13.1900  -30.2641 C.ar    1  UNL1       -0.0032
     35 C          46.2048   12.9650  -28.9013 C.ar    1  UNL1       -0.0103
     36 C          46.1850   14.1295  -27.9390 C.3     1  UNL1        0.0953
     37 N          46.1117   13.6897  -26.5367 N.3     1  UNL1       -0.2934
     38 H          46.2764   14.5372  -25.9439 H       1  UNL1        0.1236
@<TRIPOS>BOND
     1    12    13    1
     2    13    14    1
     3    13     2    1
     4     2     3    1
     5     3     4    1
     6     4     5    1
     7     5     6   ar
     8     6     7   ar
     9     7     8   ar
    10     8     9   ar
    11     9    10   ar
    12    10    11    1
    13    11     1    1
    14     1    15    1
    15    15    16    1
    16    16    17    1
    17    17    18    1
    18    18    19    1
    19    19    21    1
    20    21    22    1
    21    22    23    1
    22    23    24    1
    23    24    25    1
    24    25    26    1
    25     1    27    1
    26    27    28    1
    27    28    29    1
    28    29    30    1
    29    30    31   ar
    30    31    32   ar
    31    32    33   ar
    32    33    34   ar
    33    34    35   ar
    34    35    36    1
    35    36    37    1
    36    11     2    1
    37    26    21    1
    38    37    28    1
    39    10     5   ar
    40    35    30   ar
    41    19    20    1
    42    37    38    1
@<TRIPOS>MOLECULE
*****
 38 42 0 0 0
SMALL
GASTEIGER

@<TRIPOS>ATOM
      1 N          48.9425   13.0836  -24.5964 N.3     1  UNL1       -0.2679
      2 C          49.8142   10.7635  -24.0836 C.3     1  UNL1        0.0207
      3 C          51.2837   10.6057  -24.6061 C.3     1  UNL1        0.0064
      4 C          52.0302   11.9323  -24.7607 C.3     1  UNL1        0.0277
      5 C          51.9414   12.6814  -23.4677 C.ar    1  UNL1       -0.0073
      6 C          53.0635   13.2615  -22.8642 C.ar    1  UNL1       -0.0015
      7 C          52.9306   13.9026  -21.6312 C.ar    1  UNL1        0.0203
      8 C          51.6772   13.9529  -21.0166 C.ar    1  UNL1        0.0985
      9 N          50.5966   13.3948  -21.6247 N.ar    1  UNL1       -0.2471
     10 C          50.6958   12.7720  -22.8322 C.ar    1  UNL1        0.0695
     11 C          49.4615   12.1970  -23.5079 C.3     1  UNL1        0.0978
     12 C          50.2221    8.2973  -23.3890 C.3     1  UNL1        0.0001
     13 C          49.4465    9.5970  -23.1100 C.3     1  UNL1        0.0017
     14 C          49.6018   10.0038  -21.6358 C.3     1  UNL1        0.0001
     15 C          49.1098   14.5481  -24.3658 C.3     1  UNL1        0.0725
     16 C          50.0837   15.1233  -25.4014 C.3     1  UNL1        0.0188
     17 C          50.9001   16.2918  -24.8299 C.3     1  UNL1        0.0185
     18 C          50.8447   17.5302  -25.7341 C.3     1  UNL1        0.0686
     19 N          49.9053   18.5288  -25.1873 N.3     1  UNL1       -0.2984
     20 H          49.2871   18.0316  -24.5034 H       1  UNL1        0.1232
     21 C          49.0525   19.1678  -26.2118 C.3     1  UNL1        0.0590
     22 C          48.6271   18.1260  -27.2704 C.3     1  UNL1        0.0478
     23 C          47.4649   17.2388  -26.7716 C.3     1  UNL1        0.1435
     24 O          47.2947   17.3423  -25.3709 O.3     1  UNL1       -0.3537
     25 C          46.8534   18.6455  -25.0288 C.3     1  UNL1        0.1435
     26 C          47.7728   19.7573  -25.5877 C.3     1  UNL1        0.0478
     27 C          47.5282   12.7778  -24.9424 C.3     1  UNL1        0.0886
     28 C          47.3026   12.9296  -26.4624 C.3     1  UNL1        0.0748
     29 C          47.0849   11.5572  -27.1226 C.3     1  UNL1        0.0432
     30 C          46.7060   11.7080  -28.5713 C.ar    1  UNL1       -0.0234
     31 C          46.8321   10.6120  -29.4387 C.ar    1  UNL1       -0.0045
     32 C          46.4602   10.7288  -30.7803 C.ar    1  UNL1       -0.0003
     33 C          45.9531   11.9366  -31.2635 C.ar    1  UNL1       -0.0003
     34 C          45.8070   13.0290  -30.4047 C.ar    1  UNL1       -0.0032
     35 C          46.1616   12.9190  -29.0513 C.ar    1  UNL1       -0.0103
     36 C          46.0672   14.1323  -28.1561 C.3     1  UNL1        0.0953
     37 N          46.1294   13.7761  -26.7298 N.3     1  UNL1       -0.2934
     38 H          46.2318   14.6722  -26.1975 H       1  UNL1        0.1236
@<TRIPOS>BOND
     1    12    13    1
     2    13    14    1
     3    13     2    1
     4     2     3    1
     5     3     4    1
     6     4     5    1
     7     5     6   ar
     8     6     7   ar
     9     7     8   ar
    10     8     9   ar
    11     9    10   ar
    12    10    11    1
    13    11     1    1
    14     1    15    1
    15    15    16    1
    16    16    17    1
    17    17    18    1
    18    18    19    1
    19    19    21    1
    20    21    22    1
    21    22    23    1
    22    23    24    1
    23    24    25    1
    24    25    26    1
    25     1    27    1
    26    27    28    1
    27    28    29    1
    28    29    30    1
    29    30    31   ar
    30    31    32   ar
    31    32    33   ar
    32    33    34   ar
    33    34    35   ar
    34    35    36    1
    35    36    37    1
    36    11     2    1
    37    26    21    1
    38    37    28    1
    39    10     5   ar
    40    35    30   ar
    41    19    20    1
    42    37    38    1
@<TRIPOS>MOLECULE
*****
 38 42 0 0 0
SMALL
GASTEIGER

@<TRIPOS>ATOM
      1 N          46.7270   13.6994  -25.4294 N.3     1  UNL1       -0.2679
      2 C          49.0811   14.5505  -25.8024 C.3     1  UNL1        0.0207
      3 C          49.0746   15.7427  -26.8203 C.3     1  UNL1        0.0064
      4 C          47.7323   16.4715  -26.9095 C.3     1  UNL1        0.0277
      5 C          47.3165   16.8730  -25.5287 C.ar    1  UNL1       -0.0073
      6 C          46.8711   18.1664  -25.2311 C.ar    1  UNL1       -0.0015
      7 C          46.5468   18.4995  -23.9148 C.ar    1  UNL1        0.0203
      8 C          46.6747   17.5349  -22.9125 C.ar    1  UNL1        0.0985
      9 N          47.0965   16.2802  -23.2233 N.ar    1  UNL1       -0.2471
     10 C          47.4099   15.9253  -24.5007 C.ar    1  UNL1        0.0695
     11 C          47.8356   14.5022  -24.8241 C.3     1  UNL1        0.0978
     12 C          50.3410   14.6356  -23.5360 C.3     1  UNL1        0.0001
     13 C          50.4550   14.4652  -25.0614 C.3     1  UNL1        0.0017
     14 C          51.2137   13.1712  -25.3973 C.3     1  UNL1        0.0001
     15 C          45.4613   13.6559  -24.6407 C.3     1  UNL1        0.0725
     16 C          45.4885   12.4515  -23.6917 C.3     1  UNL1        0.0188
     17 C          45.9917   12.8379  -22.2931 C.3     1  UNL1        0.0185
     18 C          46.6907   11.6679  -21.5885 C.3     1  UNL1        0.0686
     19 N          47.5403   10.9241  -22.5391 N.3     1  UNL1       -0.2984
     20 H          47.4185    9.9046  -22.3324 H       1  UNL1        0.1232
     21 C          48.9776   11.2547  -22.4380 C.3     1  UNL1        0.0590
     22 C          49.4486   11.1229  -20.9725 C.3     1  UNL1        0.0478
     23 C          49.6990    9.6505  -20.5776 C.3     1  UNL1        0.1435
     24 O          49.1187    8.7560  -21.5074 O.3     1  UNL1       -0.3537
     25 C          49.7814    8.8547  -22.7570 C.3     1  UNL1        0.1435
     26 C          49.8334   10.3036  -23.2970 C.3     1  UNL1        0.0478
     27 C          47.1600   12.3197  -25.7794 C.3     1  UNL1        0.0886
     28 C          46.6750   11.9484  -27.1976 C.3     1  UNL1        0.0748
     29 C          46.5124   13.2071  -28.0669 C.3     1  UNL1        0.0432
     30 C          46.1962   12.8427  -29.4924 C.ar    1  UNL1       -0.0234
     31 C          45.6446   13.8080  -30.3490 C.ar    1  UNL1       -0.0045
     32 C          45.3695   13.4925  -31.6818 C.ar    1  UNL1       -0.0003
     33 C          45.6497   12.2152  -32.1710 C.ar    1  UNL1       -0.0003
     34 C          46.2150   11.2517  -31.3317 C.ar    1  UNL1       -0.0032
     35 C          46.5111   11.5617  -29.9954 C.ar    1  UNL1       -0.0103
     36 C          47.0519   10.4850  -29.0839 C.3     1  UNL1        0.0953
     37 N          47.6312   11.0410  -27.8508 N.3     1  UNL1       -0.2934
     38 H          47.8189   10.2323  -27.2123 H       1  UNL1        0.1236
@<TRIPOS>BOND
     1    12    13    1
     2    13    14    1
     3    13     2    1
     4     2     3    1
     5     3     4    1
     6     4     5    1
     7     5     6   ar
     8     6     7   ar
     9     7     8   ar
    10     8     9   ar
    11     9    10   ar
    12    10    11    1
    13    11     1    1
    14     1    15    1
    15    15    16    1
    16    16    17    1
    17    17    18    1
    18    18    19    1
    19    19    21    1
    20    21    22    1
    21    22    23    1
    22    23    24    1
    23    24    25    1
    24    25    26    1
    25     1    27    1
    26    27    28    1
    27    28    29    1
    28    29    30    1
    29    30    31   ar
    30    31    32   ar
    31    32    33   ar
    32    33    34   ar
    33    34    35   ar
    34    35    36    1
    35    36    37    1
    36    11     2    1
    37    26    21    1
    38    37    28    1
    39    10     5   ar
    40    35    30   ar
    41    19    20    1
    42    37    38    1
@<TRIPOS>MOLECULE
*****
 38 42 0 0 0
SMALL
GASTEIGER

@<TRIPOS>ATOM
      1 N          47.9389   13.5928  -22.7992 N.3     1  UNL1       -0.2679
      2 C          47.3002   12.4314  -24.9554 C.3     1  UNL1        0.0207
      3 C          48.5741   11.8469  -25.6574 C.3     1  UNL1        0.0064
      4 C          49.7428   11.5914  -24.7036 C.3     1  UNL1        0.0277
      5 C          49.2545   10.7458  -23.5690 C.ar    1  UNL1       -0.0073
      6 C          49.9473    9.6093  -23.1350 C.ar    1  UNL1       -0.0015
      7 C          49.4170    8.8280  -22.1067 C.ar    1  UNL1        0.0203
      8 C          48.1992    9.1923  -21.5276 C.ar    1  UNL1        0.0985
      9 N          47.5476   10.3070  -21.9540 N.ar    1  UNL1       -0.2471
     10 C          48.0471   11.0929  -22.9484 C.ar    1  UNL1        0.0695
     11 C          47.3180   12.3575  -23.3727 C.3     1  UNL1        0.0978
     12 C          44.7068   12.4550  -25.0262 C.3     1  UNL1        0.0001
     13 C          45.9999   11.8383  -25.5888 C.3     1  UNL1        0.0017
     14 C          46.0101   11.9307  -27.1231 C.3     1  UNL1        0.0001
     15 C          48.1905   13.5616  -21.3290 C.3     1  UNL1        0.0725
     16 C          49.4571   14.3640  -21.0074 C.3     1  UNL1        0.0188
     17 C          50.7315   13.5463  -21.2643 C.3     1  UNL1        0.0185
     18 C          51.5051   13.2631  -19.9699 C.3     1  UNL1        0.0686
     19 N          50.5912   13.2597  -18.8108 N.3     1  UNL1       -0.2984
     20 H          50.9116   14.0159  -18.1606 H       1  UNL1        0.1232
     21 C          50.5736   11.9807  -18.0699 C.3     1  UNL1        0.0590
     22 C          50.4143   12.2484  -16.5566 C.3     1  UNL1        0.0478
     23 C          48.9489   12.5565  -16.1768 C.3     1  UNL1        0.1435
     24 O          48.1690   12.8638  -17.3165 O.3     1  UNL1       -0.3537
     25 C          48.0372   11.7172  -18.1401 C.3     1  UNL1        0.1435
     26 C          49.3995   11.0891  -18.5185 C.3     1  UNL1        0.0478
     27 C          47.1830   14.8214  -23.1635 C.3     1  UNL1        0.0886
     28 C          47.8684   15.5431  -24.3441 C.3     1  UNL1        0.0748
     29 C          47.5201   17.0415  -24.3456 C.3     1  UNL1        0.0432
     30 C          48.3091   17.7791  -25.3936 C.ar    1  UNL1       -0.0234
     31 C          47.8831   19.0473  -25.8176 C.ar    1  UNL1       -0.0045
     32 C          48.6190   19.7555  -26.7708 C.ar    1  UNL1       -0.0003
     33 C          49.7883   19.2072  -27.3014 C.ar    1  UNL1       -0.0003
     34 C          50.2310   17.9529  -26.8737 C.ar    1  UNL1       -0.0032
     35 C          49.5092   17.2390  -25.9046 C.ar    1  UNL1       -0.0103
     36 C          49.9626   15.8529  -25.5103 C.3     1  UNL1        0.0953
     37 N          49.3300   15.3958  -24.2628 N.3     1  UNL1       -0.2934
     38 H          49.5614   14.3796  -24.1599 H       1  UNL1        0.1236
@<TRIPOS>BOND
     1    12    13    1
     2    13    14    1
     3    13     2    1
     4     2     3    1
     5     3     4    1
     6     4     5    1
     7     5     6   ar
     8     6     7   ar
     9     7     8   ar
    10     8     9   ar
    11     9    10   ar
    12    10    11    1
    13    11     1    1
    14     1    15    1
    15    15    16    1
    16    16    17    1
    17    17    18    1
    18    18    19    1
    19    19    21    1
    20    21    22    1
    21    22    23    1
    22    23    24    1
    23    24    25    1
    24    25    26    1
    25     1    27    1
    26    27    28    1
    27    28    29    1
    28    29    30    1
    29    30    31   ar
    30    31    32   ar
    31    32    33   ar
    32    33    34   ar
    33    34    35   ar
    34    35    36    1
    35    36    37    1
    36    11     2    1
    37    26    21    1
    38    37    28    1
    39    10     5   ar
    40    35    30   ar
    41    19    20    1
    42    37    38    1
@<TRIPOS>MOLECULE
*****
 38 42 0 0 0
SMALL
GASTEIGER

@<TRIPOS>ATOM
      1 N          48.5096   12.7803  -22.2870 N.3     1  UNL1       -0.2679
      2 C          49.8747   12.0612  -20.2807 C.3     1  UNL1        0.0207
      3 C          49.3910   10.6617  -19.7659 C.3     1  UNL1        0.0064
      4 C          48.6775    9.8249  -20.8296 C.3     1  UNL1        0.0277
      5 C          49.5596    9.7367  -22.0358 C.ar    1  UNL1       -0.0073
      6 C          49.8225    8.5215  -22.6794 C.ar    1  UNL1       -0.0015
      7 C          50.6955    8.4913  -23.7683 C.ar    1  UNL1        0.0203
      8 C          51.2965    9.6769  -24.1978 C.ar    1  UNL1        0.0985
      9 N          51.0186   10.8495  -23.5680 N.ar    1  UNL1       -0.2471
     10 C          50.1629   10.9093  -22.5096 C.ar    1  UNL1        0.0695
     11 C          49.8375   12.2420  -21.8545 C.3     1  UNL1        0.0978
     12 C          51.8356   13.7571  -20.1803 C.3     1  UNL1        0.0001
     13 C          51.2534   12.4362  -19.6463 C.3     1  UNL1        0.0017
     14 C          51.1950   12.4624  -18.1105 C.3     1  UNL1        0.0001
     15 C          48.1482   12.5283  -23.7124 C.3     1  UNL1        0.0725
     16 C          46.8582   11.7015  -23.7768 C.3     1  UNL1        0.0188
     17 C          45.6136   12.5937  -23.8927 C.3     1  UNL1        0.0185
     18 C          45.1981   12.8164  -25.3529 C.3     1  UNL1        0.0686
     19 N          45.6632   14.1342  -25.8281 N.3     1  UNL1       -0.2984
     20 H          44.8730   14.5688  -26.3607 H       1  UNL1        0.1232
     21 C          46.8441   14.0647  -26.7146 C.3     1  UNL1        0.0590
     22 C          46.5178   13.2170  -27.9644 C.3     1  UNL1        0.0478
     23 C          45.7075   14.0172  -29.0083 C.3     1  UNL1        0.1435
     24 O          45.1596   15.1961  -28.4502 O.3     1  UNL1       -0.3537
     25 C          46.1964   16.1008  -28.1086 C.3     1  UNL1        0.1435
     26 C          47.2697   15.4667  -27.1923 C.3     1  UNL1        0.0478
     27 C          48.3597   14.2258  -21.9685 C.3     1  UNL1        0.0886
     28 C          48.7098   15.0864  -23.2018 C.3     1  UNL1        0.0748
     29 C          47.8796   16.3815  -23.2184 C.3     1  UNL1        0.0432
     30 C          48.3278   17.2970  -24.3256 C.ar    1  UNL1       -0.0234
     31 C          47.4827   18.3323  -24.7542 C.ar    1  UNL1       -0.0045
     32 C          47.8951   19.2062  -25.7631 C.ar    1  UNL1       -0.0003
     33 C          49.1554   19.0584  -26.3454 C.ar    1  UNL1       -0.0003
     34 C          50.0117   18.0420  -25.9143 C.ar    1  UNL1       -0.0032
     35 C          49.6153   17.1681  -24.8902 C.ar    1  UNL1       -0.0103
     36 C          50.5243   16.0296  -24.4900 C.3     1  UNL1        0.0953
     37 N          50.1382   15.4386  -23.1989 N.3     1  UNL1       -0.2934
     38 H          50.7012   14.5628  -23.0857 H       1  UNL1        0.1236
@<TRIPOS>BOND
     1    12    13    1
     2    13    14    1
     3    13     2    1
     4     2     3    1
     5     3     4    1
     6     4     5    1
     7     5     6   ar
     8     6     7   ar
     9     7     8   ar
    10     8     9   ar
    11     9    10   ar
    12    10    11    1
    13    11     1    1
    14     1    15    1
    15    15    16    1
    16    16    17    1
    17    17    18    1
    18    18    19    1
    19    19    21    1
    20    21    22    1
    21    22    23    1
    22    23    24    1
    23    24    25    1
    24    25    26    1
    25     1    27    1
    26    27    28    1
    27    28    29    1
    28    29    30    1
    29    30    31   ar
    30    31    32   ar
    31    32    33   ar
    32    33    34   ar
    33    34    35   ar
    34    35    36    1
    35    36    37    1
    36    11     2    1
    37    26    21    1
    38    37    28    1
    39    10     5   ar
    40    35    30   ar
    41    19    20    1
    42    37    38    1
@<TRIPOS>MOLECULE
*****
 38 42 0 0 0
SMALL
GASTEIGER

@<TRIPOS>ATOM
      1 N          49.2487   14.5977  -25.6478 N.3     1  UNL1       -0.2679
      2 C          46.9612   14.7680  -26.7174 C.3     1  UNL1        0.0207
      3 C          45.9046   15.2593  -25.6688 C.3     1  UNL1        0.0064
      4 C          46.5109   16.0362  -24.4984 C.3     1  UNL1        0.0277
      5 C          47.3544   17.1436  -25.0487 C.ar    1  UNL1       -0.0073
      6 C          47.2577   18.4585  -24.5779 C.ar    1  UNL1       -0.0015
      7 C          48.0314   19.4611  -25.1651 C.ar    1  UNL1        0.0203
      8 C          48.8902   19.1359  -26.2178 C.ar    1  UNL1        0.0985
      9 N          48.9799   17.8507  -26.6526 N.ar    1  UNL1       -0.2471
     10 C          48.2441   16.8511  -26.0911 C.ar    1  UNL1        0.0695
     11 C          48.3994   15.4164  -26.5690 C.3     1  UNL1        0.0978
     12 C          45.9331   13.5076  -28.7387 C.3     1  UNL1        0.0001
     13 C          46.3851   14.8634  -28.1676 C.3     1  UNL1        0.0017
     14 C          45.2466   15.8909  -28.2708 C.3     1  UNL1        0.0001
     15 C          50.6320   15.1101  -25.4250 C.3     1  UNL1        0.0725
     16 C          50.6925   15.8618  -24.0896 C.3     1  UNL1        0.0188
     17 C          50.4723   14.9221  -22.8951 C.3     1  UNL1        0.0185
     18 C          51.6000   13.8906  -22.7578 C.3     1  UNL1        0.0686
     19 N          51.3306   12.9761  -21.6309 N.3     1  UNL1       -0.2984
     20 H          50.6666   12.2438  -21.9773 H       1  UNL1        0.1232
     21 C          50.7258   13.6399  -20.4567 C.3     1  UNL1        0.0590
     22 C          49.5881   12.7659  -19.8831 C.3     1  UNL1        0.0478
     23 C          50.1318   11.6050  -19.0208 C.3     1  UNL1        0.1435
     24 O          51.5152   11.4008  -19.2349 O.3     1  UNL1       -0.3537
     25 C          52.2521   12.5117  -18.7521 C.3     1  UNL1        0.1435
     26 C          51.7642   13.8575  -19.3391 C.3     1  UNL1        0.0478
     27 C          49.2914   13.1656  -26.0487 C.3     1  UNL1        0.0886
     28 C          49.4304   12.2634  -24.8032 C.3     1  UNL1        0.0748
     29 C          48.0555   11.9910  -24.1692 C.3     1  UNL1        0.0432
     30 C          48.1637   10.9859  -23.0543 C.ar    1  UNL1       -0.0234
     31 C          47.1282   10.8804  -22.1129 C.ar    1  UNL1       -0.0045
     32 C          47.2022    9.9347  -21.0872 C.ar    1  UNL1       -0.0003
     33 C          48.3051    9.0832  -20.9984 C.ar    1  UNL1       -0.0003
     34 C          49.3335    9.1678  -21.9404 C.ar    1  UNL1       -0.0032
     35 C          49.2628   10.1026  -22.9848 C.ar    1  UNL1       -0.0103
     36 C          50.4189   10.2300  -23.9491 C.3     1  UNL1        0.0953
     37 N          50.0507   10.9783  -25.1614 N.3     1  UNL1       -0.2934
     38 H          50.9390   11.1664  -25.6833 H       1  UNL1        0.1236
@<TRIPOS>BOND
     1    12    13    1
     2    13    14    1
     3    13     2    1
     4     2     3    1
     5     3     4    1
     6     4     5    1
     7     5     6   ar
     8     6     7   ar
     9     7     8   ar
    10     8     9   ar
    11     9    10   ar
    12    10    11    1
    13    11     1    1
    14     1    15    1
    15    15    16    1
    16    16    17    1
    17    17    18    1
    18    18    19    1
    19    19    21    1
    20    21    22    1
    21    22    23    1
    22    23    24    1
    23    24    25    1
    24    25    26    1
    25     1    27    1
    26    27    28    1
    27    28    29    1
    28    29    30    1
    29    30    31   ar
    30    31    32   ar
    31    32    33   ar
    32    33    34   ar
    33    34    35   ar
    34    35    36    1
    35    36    37    1
    36    11     2    1
    37    26    21    1
    38    37    28    1
    39    10     5   ar
    40    35    30   ar
    41    19    20    1
    42    37    38    1
@<TRIPOS>MOLECULE
*****
 38 42 0 0 0
SMALL
GASTEIGER

@<TRIPOS>ATOM
      1 N          48.9611   12.9411  -25.8102 N.3     1  UNL1       -0.2679
      2 C          46.5242   13.1361  -25.1553 C.3     1  UNL1        0.0207
      3 C          45.7748   14.1104  -26.1282 C.3     1  UNL1        0.0064
      4 C          46.4481   14.2582  -27.4941 C.3     1  UNL1        0.0277
      5 C          46.6565   12.8931  -28.0718 C.ar    1  UNL1       -0.0073
      6 C          46.3014   12.5793  -29.3892 C.ar    1  UNL1       -0.0015
      7 C          46.4695   11.2752  -29.8579 C.ar    1  UNL1        0.0203
      8 C          46.9885   10.3009  -29.0018 C.ar    1  UNL1        0.0985
      9 N          47.3397   10.6280  -27.7296 N.ar    1  UNL1       -0.2471
     10 C          47.1957   11.8948  -27.2495 C.ar    1  UNL1        0.0695
     11 C          47.6391   12.2400  -25.8370 C.3     1  UNL1        0.0978
     12 C          45.8147   12.3221  -22.7962 C.3     1  UNL1        0.0001
     13 C          45.5034   12.3137  -24.3034 C.3     1  UNL1        0.0017
     14 C          44.0531   12.7595  -24.5501 C.3     1  UNL1        0.0001
     15 C          50.1242   12.1363  -26.2848 C.3     1  UNL1        0.0725
     16 C          50.8071   11.4645  -25.0872 C.3     1  UNL1        0.0188
     17 C          50.5563    9.9496  -25.0630 C.3     1  UNL1        0.0185
     18 C          50.4950    9.3983  -23.6324 C.3     1  UNL1        0.0686
     19 N          50.5014   10.5016  -22.6518 N.3     1  UNL1       -0.2984
     20 H          51.2311   10.2758  -21.9352 H       1  UNL1        0.1232
     21 C          49.2086   10.6919  -21.9609 C.3     1  UNL1        0.0590
     22 C          48.9104    9.4776  -21.0533 C.3     1  UNL1        0.0478
     23 C          49.6970    9.5435  -19.7254 C.3     1  UNL1        0.1435
     24 O          50.7484   10.4879  -19.7891 O.3     1  UNL1       -0.3537
     25 C          50.2196   11.7990  -19.8969 C.3     1  UNL1        0.1435
     26 C          49.2271   11.9518  -21.0738 C.3     1  UNL1        0.0478
     27 C          49.2563   13.5306  -24.4764 C.3     1  UNL1        0.0886
     28 C          49.1098   15.0670  -24.5242 C.3     1  UNL1        0.0748
     29 C          49.3090   15.5910  -25.9568 C.3     1  UNL1        0.0432
     30 C          49.0102   17.0636  -26.0405 C.ar    1  UNL1       -0.0234
     31 C          49.4826   17.8060  -27.1338 C.ar    1  UNL1       -0.0045
     32 C          49.1916   19.1684  -27.2388 C.ar    1  UNL1       -0.0003
     33 C          48.4213   19.7972  -26.2586 C.ar    1  UNL1       -0.0003
     34 C          47.9313   19.0640  -25.1750 C.ar    1  UNL1       -0.0032
     35 C          48.2030   17.6913  -25.0670 C.ar    1  UNL1       -0.0103
     36 C          47.7282   16.9321  -23.8503 C.3     1  UNL1        0.0953
     37 N          47.7781   15.4751  -24.0507 N.3     1  UNL1       -0.2934
     38 H          47.6023   15.0343  -23.1171 H       1  UNL1        0.1236
@<TRIPOS>BOND
     1    12    13    1
     2    13    14    1
     3    13     2    1
     4     2     3    1
     5     3     4    1
     6     4     5    1
     7     5     6   ar
     8     6     7   ar
     9     7     8   ar
    10     8     9   ar
    11     9    10   ar
    12    10    11    1
    13    11     1    1
    14     1    15    1
    15    15    16    1
    16    16    17    1
    17    17    18    1
    18    18    19    1
    19    19    21    1
    20    21    22    1
    21    22    23    1
    22    23    24    1
    23    24    25    1
    24    25    26    1
    25     1    27    1
    26    27    28    1
    27    28    29    1
    28    29    30    1
    29    30    31   ar
    30    31    32   ar
    31    32    33   ar
    32    33    34   ar
    33    34    35   ar
    34    35    36    1
    35    36    37    1
    36    11     2    1
    37    26    21    1
    38    37    28    1
    39    10     5   ar
    40    35    30   ar
    41    19    20    1
    42    37    38    1
