@<TRIPOS>MOLECULE
*****
 50 55 0 0 0
SMALL
GASTEIGER

@<TRIPOS>ATOM
      1 O          59.3446   85.9205    7.3928 O.2     1  UNL1       -0.2701
      2 C          60.0160   85.6870    8.4354 C.2     1  UNL1        0.2483
      3 N          60.1544   84.3342    8.9003 N.am    1  UNL1       -0.2945
      4 H          60.8980   84.1324    9.6044 H       1  UNL1        0.1501
      5 C          60.6682   86.8180    9.1434 C.ar    1  UNL1        0.0808
      6 C          59.8695   87.8430    9.6809 C.ar    1  UNL1        0.0080
      7 C          60.4483   88.9147   10.3644 C.ar    1  UNL1        0.0148
      8 C          61.8382   88.9804   10.5367 C.ar    1  UNL1        0.0502
      9 C          62.6404   87.9582   10.0095 C.ar    1  UNL1        0.0443
     10 C          62.0668   86.8834    9.3230 C.ar    1  UNL1        0.1457
     11 F          62.8842   85.8937    8.8851 F       1  UNL1       -0.2040
     12 N          62.4345   90.0896   11.2345 N.pl3   1  UNL1       -0.3040
     13 C          63.1769   91.1209   10.5023 C.3     1  UNL1        0.1123
     14 C          64.5582   91.2982   11.1345 C.3     1  UNL1        0.1136
     15 N          64.4694   91.4559   12.5983 N.pl3   1  UNL1       -0.2897
     16 C          63.1628   91.3296   13.2675 C.3     1  UNL1        0.1136
     17 C          62.3692   90.1429   12.7020 C.3     1  UNL1        0.1123
     18 C          65.6163   91.9184   13.3494 C.ar    1  UNL1        0.1318
     19 C          66.9202   91.8211   12.8317 C.ar    1  UNL1        0.0343
     20 C          68.0002   92.2816   13.5864 C.ar    1  UNL1        0.0083
     21 C          67.7885   92.8566   14.8476 C.ar    1  UNL1        0.0906
     22 C          66.4772   92.9101   15.3426 C.ar    1  UNL1        0.1041
     23 N          65.4412   92.4539   14.5906 N.ar    1  UNL1       -0.2292
     24 C          68.9511   93.3108   15.6928 C.3     1  UNL1        0.4200
     25 F          69.2010   92.4032   16.7075 F       1  UNL1       -0.1658
     26 F          70.0768   93.4195   14.8980 F       1  UNL1       -0.1658
     27 F          68.6845   94.5412   16.2683 F       1  UNL1       -0.1658
     28 C          59.4153   83.2171    8.2918 C.3     1  UNL1        0.1535
     29 C          60.1631   81.9109    8.4489 C.2     1  UNL1        0.2443
     30 O          60.0888   81.0333    7.5463 O.2     1  UNL1       -0.2730
     31 N          60.9592   81.6837    9.6260 N.am    1  UNL1       -0.2825
     32 H          60.9281   82.4127   10.3744 H       1  UNL1        0.1549
     33 C          61.6357   80.4511    9.9364 C.ar    1  UNL1        0.0535
     34 C          62.4743   79.8055    9.0105 C.ar    1  UNL1        0.0353
     35 C          63.1250   78.6242    9.3753 C.ar    1  UNL1        0.1002
     36 N          62.9592   78.1094   10.6220 N.ar    1  UNL1       -0.2422
     37 C          62.1696   78.7203   11.5439 C.ar    1  UNL1        0.1002
     38 C          61.5022   79.9038   11.2208 C.ar    1  UNL1        0.0353
     39 C          57.9755   83.1176    8.8435 C.3     1  UNL1        0.0573
     40 C          57.9105   83.0621   10.3481 C.ar    1  UNL1        0.0034
     41 C          57.9499   81.9250   11.1565 C.ar    1  UNL1        0.0879
     42 BR         57.9502   80.1114   10.5548 Br      1  UNL1       -0.0305
     43 N          57.8953   82.2649   12.4638 N.ar    1  UNL1       -0.3483
     44 C          57.8058   83.6049   12.4938 C.ar    1  UNL1        0.0567
     45 C          57.6935   84.4159   13.6224 C.ar    1  UNL1        0.0170
     46 C          57.5648   85.8027   13.4264 C.ar    1  UNL1        0.0015
     47 C          57.5336   86.3399   12.1212 C.ar    1  UNL1        0.0001
     48 C          57.6403   85.4967   11.0010 C.ar    1  UNL1        0.0012
     49 C          57.7979   84.1275   11.2248 C.ar    1  UNL1        0.0136
     50 H          57.8892   81.6143   13.2807 H       1  UNL1        0.1664
@<TRIPOS>BOND
     1     1     2    2
     2     2     3   am
     3     3    28    1
     4    28    39    1
     5    39    40    1
     6    40    41   ar
     7    41    42    1
     8    41    43   ar
     9    43    44   ar
    10    44    45   ar
    11    45    46   ar
    12    46    47   ar
    13    47    48   ar
    14    48    49   ar
    15    28    29    1
    16    29    30    2
    17    29    31   am
    18    31    33    1
    19    33    34   ar
    20    34    35   ar
    21    35    36   ar
    22    36    37   ar
    23    37    38   ar
    24     2     5    1
    25     5     6   ar
    26     6     7   ar
    27     7     8   ar
    28     8    12    1
    29    12    13    1
    30    13    14    1
    31    14    15    1
    32    15    18    1
    33    18    19   ar
    34    19    20   ar
    35    20    21   ar
    36    21    24    1
    37    24    25    1
    38    24    26    1
    39    24    27    1
    40    21    22   ar
    41    22    23   ar
    42    15    16    1
    43    16    17    1
    44     8     9   ar
    45     9    10   ar
    46    10    11    1
    47    49    40   ar
    48    38    33   ar
    49    10     5   ar
    50    49    44   ar
    51    17    12    1
    52    23    18   ar
    53     3     4    1
    54    43    50    1
    55    31    32    1
@<TRIPOS>MOLECULE
*****
 50 55 0 0 0
SMALL
GASTEIGER

@<TRIPOS>ATOM
      1 O          58.9936   85.8671    8.1046 O.2     1  UNL1       -0.2701
      2 C          59.8177   85.6245    9.0289 C.2     1  UNL1        0.2483
      3 N          60.0933   84.2617    9.3922 N.am    1  UNL1       -0.2945
      4 H          60.9390   84.0716    9.9736 H       1  UNL1        0.1501
      5 C          60.5020   86.7574    9.7026 C.ar    1  UNL1        0.0808
      6 C          59.7827   87.5476   10.6169 C.ar    1  UNL1        0.0080
      7 C          60.3982   88.6124   11.2785 C.ar    1  UNL1        0.0148
      8 C          61.7505   88.9047   11.0505 C.ar    1  UNL1        0.0502
      9 C          62.4759   88.1166   10.1455 C.ar    1  UNL1        0.0443
     10 C          61.8648   87.0500    9.4789 C.ar    1  UNL1        0.1457
     11 F          62.6281   86.2853    8.6592 F       1  UNL1       -0.2040
     12 N          62.3820   90.0075   11.7270 N.pl3   1  UNL1       -0.3040
     13 C          63.0939   91.0410   10.9680 C.3     1  UNL1        0.1123
     14 C          64.5032   91.2097   11.5377 C.3     1  UNL1        0.1136
     15 N          64.4818   91.3587   13.0049 N.pl3   1  UNL1       -0.2897
     16 C          63.2066   91.2326   13.7322 C.3     1  UNL1        0.1136
     17 C          62.3838   90.0520   13.1963 C.3     1  UNL1        0.1123
     18 C          65.6633   91.8127   13.7057 C.ar    1  UNL1        0.1318
     19 C          65.6042   92.2375   15.0450 C.ar    1  UNL1        0.0343
     20 C          66.7673   92.6656   15.6869 C.ar    1  UNL1        0.0083
     21 C          67.9945   92.6559   15.0088 C.ar    1  UNL1        0.0906
     22 C          68.0090   92.2529   13.6653 C.ar    1  UNL1        0.1041
     23 N          66.8636   91.8418   13.0604 N.ar    1  UNL1       -0.2292
     24 C          69.2476   93.1636   15.6752 C.3     1  UNL1        0.4200
     25 F          69.0585   94.4472   16.1573 F       1  UNL1       -0.1658
     26 F          69.5727   92.3298   16.7288 F       1  UNL1       -0.1658
     27 F          70.3015   93.1888   14.7780 F       1  UNL1       -0.1658
     28 C          59.3364   83.1324    8.8296 C.3     1  UNL1        0.1535
     29 C          60.1532   81.8585    8.8466 C.2     1  UNL1        0.2443
     30 O          60.0725   81.0491    7.8829 O.2     1  UNL1       -0.2730
     31 N          61.0213   81.5845    9.9611 N.am    1  UNL1       -0.2825
     32 H          60.9956   82.2522   10.7649 H       1  UNL1        0.1549
     33 C          61.7715   80.3686   10.1401 C.ar    1  UNL1        0.0535
     34 C          61.8147   79.6919   11.3720 C.ar    1  UNL1        0.0353
     35 C          62.5391   78.5022   11.4809 C.ar    1  UNL1        0.1002
     36 N          63.1869   77.9949   10.3994 N.ar    1  UNL1       -0.2422
     37 C          63.1486   78.6167    9.1918 C.ar    1  UNL1        0.1002
     38 C          62.4347   79.8074    9.0391 C.ar    1  UNL1        0.0353
     39 C          57.9773   82.9456    9.5405 C.3     1  UNL1        0.0573
     40 C          58.1039   82.4690   10.9645 C.ar    1  UNL1        0.0034
     41 C          58.0964   83.2480   12.1225 C.ar    1  UNL1        0.0879
     42 BR         58.0690   85.1571   12.1989 Br      1  UNL1       -0.0305
     43 N          58.2051   82.4706   13.2232 N.ar    1  UNL1       -0.3483
     44 C          58.2975   81.2074   12.7757 C.ar    1  UNL1        0.0567
     45 C          58.4571   80.0529   13.5411 C.ar    1  UNL1        0.0170
     46 C          58.5795   78.8261   12.8643 C.ar    1  UNL1        0.0015
     47 C          58.5577   78.7831   11.4533 C.ar    1  UNL1        0.0001
     48 C          58.4039   79.9649   10.7070 C.ar    1  UNL1        0.0012
     49 C          58.2538   81.1651   11.4047 C.ar    1  UNL1        0.0136
     50 H          58.2439   82.7920   14.2160 H       1  UNL1        0.1664
@<TRIPOS>BOND
     1     1     2    2
     2     2     3   am
     3     3    28    1
     4    28    39    1
     5    39    40    1
     6    40    41   ar
     7    41    42    1
     8    41    43   ar
     9    43    44   ar
    10    44    45   ar
    11    45    46   ar
    12    46    47   ar
    13    47    48   ar
    14    48    49   ar
    15    28    29    1
    16    29    30    2
    17    29    31   am
    18    31    33    1
    19    33    34   ar
    20    34    35   ar
    21    35    36   ar
    22    36    37   ar
    23    37    38   ar
    24     2     5    1
    25     5     6   ar
    26     6     7   ar
    27     7     8   ar
    28     8    12    1
    29    12    13    1
    30    13    14    1
    31    14    15    1
    32    15    18    1
    33    18    19   ar
    34    19    20   ar
    35    20    21   ar
    36    21    24    1
    37    24    25    1
    38    24    26    1
    39    24    27    1
    40    21    22   ar
    41    22    23   ar
    42    15    16    1
    43    16    17    1
    44     8     9   ar
    45     9    10   ar
    46    10    11    1
    47    49    40   ar
    48    38    33   ar
    49    10     5   ar
    50    49    44   ar
    51    17    12    1
    52    23    18   ar
    53     3     4    1
    54    43    50    1
    55    31    32    1
