@<TRIPOS>MOLECULE
*****
 42 46 0 0 0
SMALL
GASTEIGER

@<TRIPOS>ATOM
      1 C         -27.7866   49.7959   -6.7898 C.3     1  UNL1        0.0634
      2 C         -27.5363   50.1134   -8.2410 C.ar    1  UNL1        0.0323
      3 C         -26.4127   50.9067   -8.3444 C.ar    1  UNL1        0.1401
      4 C         -25.8407   51.2562   -9.5897 C.ar    1  UNL1        0.0888
      5 C         -26.5095   50.8402  -10.7665 C.ar    1  UNL1        0.0282
      6 C         -27.7021   50.1177  -10.6374 C.ar    1  UNL1        0.0999
      7 N         -28.5323   49.7568  -11.6295 N.ar    1  UNL1       -0.2135
      8 C         -29.5843   49.2186  -10.9644 C.ar    1  UNL1        0.2018
      9 N         -29.4335   49.1987   -9.6090 N.ar    1  UNL1       -0.2977
     10 C         -30.4517   48.8452   -8.6179 C.3     1  UNL1        0.1332
     11 C         -28.2271   49.7753   -9.4163 C.ar    1  UNL1        0.0789
     12 O         -26.0145   51.3560   -7.1020 O.3     1  UNL1       -0.4824
     13 C         -26.9634   50.9709   -6.1074 C.3     1  UNL1        0.1370
     14 C         -26.2170   50.6548   -4.7948 C.3     1  UNL1        0.0439
     15 C         -27.9023   52.1688   -5.8523 C.3     1  UNL1        0.0439
     16 C         -24.6174   52.0814   -9.6825 C.2     1  UNL1        0.2525
     17 O         -24.7199   53.3352   -9.5947 O.2     1  UNL1       -0.2697
     18 N         -23.3272   51.4707   -9.8679 N.am    1  UNL1       -0.2803
     19 H         -23.2600   50.4291   -9.8862 H       1  UNL1        0.1552
     20 C         -22.0954   52.2062   -9.9525 C.ar    1  UNL1        0.0505
     21 C         -21.7263   52.7843  -11.1747 C.ar    1  UNL1        0.0147
     22 C         -20.5537   53.5351  -11.2757 C.ar    1  UNL1        0.0012
     23 C         -19.7412   53.7226  -10.1555 C.ar    1  UNL1        0.0039
     24 C         -20.0916   53.1516   -8.9199 C.ar    1  UNL1        0.0726
     25 C         -21.2886   52.4194   -8.8200 C.ar    1  UNL1        0.0185
     26 C         -19.2537   53.4119   -7.6932 C.3     1  UNL1        0.4186
     27 F         -20.0793   53.4973   -6.5878 F       1  UNL1       -0.1659
     28 F         -18.3436   52.3872   -7.4986 F       1  UNL1       -0.1659
     29 F         -18.5494   54.5965   -7.8226 F       1  UNL1       -0.1659
     30 C         -28.4601   47.5055   -5.8504 C.3     1  UNL1        0.0005
     31 C         -27.2962   48.3429   -6.4043 C.3     1  UNL1        0.0076
     32 C         -26.5933   47.5499   -7.5264 C.3     1  UNL1        0.0005
     33 N         -30.7546   48.7612  -11.6553 N.pl3   1  UNL1       -0.2814
     34 H         -31.6735   48.8790  -11.1727 H       1  UNL1        0.1551
     35 C         -30.7174   47.9920  -12.8698 C.ar    1  UNL1        0.0889
     36 C         -31.1262   48.5540  -14.0973 C.ar    1  UNL1        0.1543
     37 F         -31.5471   49.8420  -14.1684 F       1  UNL1       -0.2028
     38 C         -31.0758   47.7948  -15.2700 C.ar    1  UNL1        0.0310
     39 C         -30.6098   46.4797  -15.2361 C.ar    1  UNL1        0.0033
     40 C         -30.1864   45.9193  -14.0298 C.ar    1  UNL1        0.0128
     41 C         -30.2320   46.6692  -12.8487 C.ar    1  UNL1        0.0733
     42 CL        -29.7147   45.9133  -11.3472 Cl      1  UNL1       -0.0809
@<TRIPOS>BOND
     1    30    31    1
     2    31    32    1
     3    31     1    1
     4     1     2    1
     5     2     3   ar
     6     3     4   ar
     7     4    16    1
     8    16    17    2
     9    16    18   am
    10    18    20    1
    11    20    21   ar
    12    21    22   ar
    13    22    23   ar
    14    23    24   ar
    15    24    26    1
    16    26    27    1
    17    26    28    1
    18    26    29    1
    19    24    25   ar
    20     4     5   ar
    21     5     6   ar
    22     6     7   ar
    23     7     8   ar
    24     8    33    1
    25    33    35    1
    26    35    36   ar
    27    36    37    1
    28    36    38   ar
    29    38    39   ar
    30    39    40   ar
    31    40    41   ar
    32    41    42    1
    33     8     9   ar
    34     9    10    1
    35     9    11   ar
    36     3    12    1
    37    12    13    1
    38    13    14    1
    39    13    15    1
    40    13     1    1
    41    11     2   ar
    42    25    20   ar
    43    11     6   ar
    44    41    35   ar
    45    18    19    1
    46    33    34    1
@<TRIPOS>MOLECULE
*****
 42 46 0 0 0
SMALL
GASTEIGER

@<TRIPOS>ATOM
      1 C         -29.8343   49.6576   -8.8653 C.3     1  UNL1        0.0634
      2 C         -28.4556   49.1517   -8.5297 C.ar    1  UNL1        0.0323
      3 C         -27.5247   49.8423   -9.2775 C.ar    1  UNL1        0.1401
      4 C         -26.1317   49.6916   -9.0849 C.ar    1  UNL1        0.0888
      5 C         -25.6928   48.7273   -8.1455 C.ar    1  UNL1        0.0282
      6 C         -26.6550   47.9688   -7.4674 C.ar    1  UNL1        0.0999
      7 N         -26.4252   46.9308   -6.6466 N.ar    1  UNL1       -0.2135
      8 C         -27.6732   46.4728   -6.3795 C.ar    1  UNL1        0.2018
      9 N         -28.6684   47.1956   -6.9689 N.ar    1  UNL1       -0.2977
     10 C         -30.0918   46.8556   -7.0131 C.3     1  UNL1        0.1332
     11 C         -28.0023   48.1470   -7.6591 C.ar    1  UNL1        0.0789
     12 O         -28.1427   50.5943  -10.2555 O.3     1  UNL1       -0.4824
     13 C         -29.5443   50.3240  -10.2780 C.3     1  UNL1        0.1370
     14 C         -30.3019   51.6216  -10.6276 C.3     1  UNL1        0.0439
     15 C         -29.8148   49.2918  -11.3928 C.3     1  UNL1        0.0439
     16 C         -25.1470   50.4629   -9.8733 C.2     1  UNL1        0.2525
     17 O         -25.2054   50.4190  -11.1322 O.2     1  UNL1       -0.2697
     18 N         -24.1370   51.2547   -9.2214 N.am    1  UNL1       -0.2803
     19 H         -24.1395   51.3174   -8.1795 H       1  UNL1        0.1552
     20 C         -23.1573   52.0403   -9.9206 C.ar    1  UNL1        0.0505
     21 C         -23.4777   53.3493  -10.3052 C.ar    1  UNL1        0.0147
     22 C         -22.5324   54.1469  -10.9526 C.ar    1  UNL1        0.0012
     23 C         -21.2549   53.6481  -11.2160 C.ar    1  UNL1        0.0039
     24 C         -20.9119   52.3381  -10.8397 C.ar    1  UNL1        0.0726
     25 C         -21.8612   51.5503  -10.1635 C.ar    1  UNL1        0.0185
     26 C         -19.5117   51.8222  -11.0589 C.3     1  UNL1        0.4186
     27 F         -19.4612   51.1391  -12.2596 F       1  UNL1       -0.1659
     28 F         -18.6073   52.8694  -11.0971 F       1  UNL1       -0.1659
     29 F         -19.1389   50.9663  -10.0370 F       1  UNL1       -0.1659
     30 C         -31.5838   50.0434   -7.0288 C.3     1  UNL1        0.0005
     31 C         -30.3854   50.6568   -7.7706 C.3     1  UNL1        0.0076
     32 C         -29.3548   51.1579   -6.7368 C.3     1  UNL1        0.0005
     33 N         -27.8880   45.3023   -5.5796 N.pl3   1  UNL1       -0.2814
     34 H         -28.5536   44.5858   -5.9466 H       1  UNL1        0.1551
     35 C         -27.3943   45.1484   -4.2377 C.ar    1  UNL1        0.0889
     36 C         -26.1420   44.5486   -3.9897 C.ar    1  UNL1        0.1543
     37 F         -25.3606   44.1184   -5.0121 F       1  UNL1       -0.2028
     38 C         -25.6734   44.4144   -2.6796 C.ar    1  UNL1        0.0310
     39 C         -26.4362   44.8834   -1.6091 C.ar    1  UNL1        0.0033
     40 C         -27.6691   45.4943   -1.8443 C.ar    1  UNL1        0.0128
     41 C         -28.1493   45.6345   -3.1516 C.ar    1  UNL1        0.0733
     42 CL        -29.7204   46.3855   -3.3988 Cl      1  UNL1       -0.0809
@<TRIPOS>BOND
     1    30    31    1
     2    31    32    1
     3    31     1    1
     4     1     2    1
     5     2     3   ar
     6     3     4   ar
     7     4    16    1
     8    16    17    2
     9    16    18   am
    10    18    20    1
    11    20    21   ar
    12    21    22   ar
    13    22    23   ar
    14    23    24   ar
    15    24    26    1
    16    26    27    1
    17    26    28    1
    18    26    29    1
    19    24    25   ar
    20     4     5   ar
    21     5     6   ar
    22     6     7   ar
    23     7     8   ar
    24     8    33    1
    25    33    35    1
    26    35    36   ar
    27    36    37    1
    28    36    38   ar
    29    38    39   ar
    30    39    40   ar
    31    40    41   ar
    32    41    42    1
    33     8     9   ar
    34     9    10    1
    35     9    11   ar
    36     3    12    1
    37    12    13    1
    38    13    14    1
    39    13    15    1
    40    13     1    1
    41    11     2   ar
    42    25    20   ar
    43    11     6   ar
    44    41    35   ar
    45    18    19    1
    46    33    34    1
@<TRIPOS>MOLECULE
*****
 42 46 0 0 0
SMALL
GASTEIGER

@<TRIPOS>ATOM
      1 C         -29.7527   49.5769   -8.8414 C.3     1  UNL1        0.0634
      2 C         -28.3559   49.1348   -8.4910 C.ar    1  UNL1        0.0323
      3 C         -27.4516   49.8356   -9.2616 C.ar    1  UNL1        0.1401
      4 C         -26.0540   49.7442   -9.0656 C.ar    1  UNL1        0.0888
      5 C         -25.5791   48.8281   -8.0959 C.ar    1  UNL1        0.0282
      6 C         -26.5119   48.0560   -7.3926 C.ar    1  UNL1        0.0999
      7 N         -26.2432   47.0547   -6.5388 N.ar    1  UNL1       -0.2135
      8 C         -27.4730   46.5586   -6.2558 C.ar    1  UNL1        0.2018
      9 N         -28.4947   47.2237   -6.8673 N.ar    1  UNL1       -0.2977
     10 C         -29.9042   46.8287   -6.8991 C.3     1  UNL1        0.1332
     11 C         -27.8650   48.1768   -7.5887 C.ar    1  UNL1        0.0789
     12 O         -28.0974   50.5315  -10.2629 O.3     1  UNL1       -0.4824
     13 C         -29.4878   50.2076  -10.2752 C.3     1  UNL1        0.1370
     14 C         -30.2940   51.4636  -10.6660 C.3     1  UNL1        0.0439
     15 C         -29.7187   49.1303  -11.3558 C.3     1  UNL1        0.0439
     16 C         -25.0991   50.5262   -9.8795 C.2     1  UNL1        0.2525
     17 O         -25.2422   50.5496  -11.1322 O.2     1  UNL1       -0.2697
     18 N         -24.0226   51.2532   -9.2591 N.am    1  UNL1       -0.2803
     19 H         -23.9540   51.2616   -8.2175 H       1  UNL1        0.1552
     20 C         -23.0663   52.0450   -9.9830 C.ar    1  UNL1        0.0505
     21 C         -23.4195   53.3373  -10.3943 C.ar    1  UNL1        0.0147
     22 C         -22.4975   54.1417  -11.0665 C.ar    1  UNL1        0.0012
     23 C         -21.2107   53.6664  -11.3285 C.ar    1  UNL1        0.0039
     24 C         -20.8349   52.3734  -10.9256 C.ar    1  UNL1        0.0726
     25 C         -21.7610   51.5794  -10.2248 C.ar    1  UNL1        0.0185
     26 C         -19.4249   51.8849  -11.1440 C.3     1  UNL1        0.4186
     27 F         -19.3606   51.2018  -12.3440 F       1  UNL1       -0.1659
     28 F         -18.5412   52.9495  -11.1828 F       1  UNL1       -0.1659
     29 F         -19.0356   51.0373  -10.1211 F       1  UNL1       -0.1659
     30 C         -31.5840   49.9976   -7.0945 C.3     1  UNL1        0.0005
     31 C         -30.3416   50.5895   -7.7791 C.3     1  UNL1        0.0076
     32 C         -29.3553   51.0801   -6.6981 C.3     1  UNL1        0.0005
     33 N         -27.6434   45.4073   -5.4181 N.pl3   1  UNL1       -0.2814
     34 H         -27.3991   44.4771   -5.8256 H       1  UNL1        0.1551
     35 C         -28.2982   45.4389   -4.1382 C.ar    1  UNL1        0.0889
     36 C         -29.5397   44.7986   -3.9424 C.ar    1  UNL1        0.1543
     37 F         -30.1402   44.1189   -4.9516 F       1  UNL1       -0.2028
     38 C         -30.1586   44.8321   -2.6894 C.ar    1  UNL1        0.0310
     39 C         -29.5467   45.4892   -1.6210 C.ar    1  UNL1        0.0033
     40 C         -28.3099   46.1113   -1.7991 C.ar    1  UNL1        0.0128
     41 C         -27.6801   46.0849   -3.0489 C.ar    1  UNL1        0.0733
     42 CL        -26.1356   46.9057   -3.2345 Cl      1  UNL1       -0.0809
@<TRIPOS>BOND
     1    30    31    1
     2    31    32    1
     3    31     1    1
     4     1     2    1
     5     2     3   ar
     6     3     4   ar
     7     4    16    1
     8    16    17    2
     9    16    18   am
    10    18    20    1
    11    20    21   ar
    12    21    22   ar
    13    22    23   ar
    14    23    24   ar
    15    24    26    1
    16    26    27    1
    17    26    28    1
    18    26    29    1
    19    24    25   ar
    20     4     5   ar
    21     5     6   ar
    22     6     7   ar
    23     7     8   ar
    24     8    33    1
    25    33    35    1
    26    35    36   ar
    27    36    37    1
    28    36    38   ar
    29    38    39   ar
    30    39    40   ar
    31    40    41   ar
    32    41    42    1
    33     8     9   ar
    34     9    10    1
    35     9    11   ar
    36     3    12    1
    37    12    13    1
    38    13    14    1
    39    13    15    1
    40    13     1    1
    41    11     2   ar
    42    25    20   ar
    43    11     6   ar
    44    41    35   ar
    45    18    19    1
    46    33    34    1
@<TRIPOS>MOLECULE
*****
 42 46 0 0 0
SMALL
GASTEIGER

@<TRIPOS>ATOM
      1 C         -29.0683   48.6366   -8.2553 C.3     1  UNL1        0.0634
      2 C         -27.8807   49.2931   -7.6011 C.ar    1  UNL1        0.0323
      3 C         -27.0394   49.7848   -8.5774 C.ar    1  UNL1        0.1401
      4 C         -25.9076   50.5777   -8.2769 C.ar    1  UNL1        0.0888
      5 C         -25.5915   50.7923   -6.9134 C.ar    1  UNL1        0.0282
      6 C         -26.4048   50.2023   -5.9381 C.ar    1  UNL1        0.0999
      7 N         -26.1862   50.1882   -4.6130 N.ar    1  UNL1       -0.2135
      8 C         -27.1722   49.3801   -4.1511 C.ar    1  UNL1        0.2018
      9 N         -28.0117   48.9175   -5.1213 N.ar    1  UNL1       -0.2977
     10 C         -29.0548   47.9014   -4.9678 C.3     1  UNL1        0.1332
     11 C         -27.5091   49.4515   -6.2558 C.ar    1  UNL1        0.0789
     12 O         -27.4117   49.3221   -9.8229 O.3     1  UNL1       -0.4824
     13 C         -28.4708   48.3724   -9.7034 C.3     1  UNL1        0.1370
     14 C         -29.4211   48.5234  -10.9094 C.3     1  UNL1        0.0439
     15 C         -27.8536   46.9587   -9.7492 C.3     1  UNL1        0.0439
     16 C         -25.0335   51.1236   -9.3371 C.2     1  UNL1        0.2525
     17 O         -25.4400   51.1072  -10.5307 O.2     1  UNL1       -0.2697
     18 N         -23.7395   51.6683   -9.0193 N.am    1  UNL1       -0.2803
     19 H         -23.4452   51.7187   -8.0191 H       1  UNL1        0.1552
     20 C         -22.8428   52.2282   -9.9930 C.ar    1  UNL1        0.0505
     21 C         -23.2657   53.3185  -10.7653 C.ar    1  UNL1        0.0147
     22 C         -22.4022   53.9052  -11.6922 C.ar    1  UNL1        0.0012
     23 C         -21.1048   53.4138  -11.8521 C.ar    1  UNL1        0.0039
     24 C         -20.6595   52.3210  -11.0885 C.ar    1  UNL1        0.0726
     25 C         -21.5267   51.7529  -10.1374 C.ar    1  UNL1        0.0185
     26 C         -19.2371   51.8344  -11.2083 C.3     1  UNL1        0.4186
     27 F         -19.0843   51.1660  -12.4086 F       1  UNL1       -0.1659
     28 F         -18.3533   52.8990  -11.1689 F       1  UNL1       -0.1659
     29 F         -18.9239   50.9742  -10.1700 F       1  UNL1       -0.1659
     30 C         -31.5840   48.7753   -7.7715 C.3     1  UNL1        0.0005
     31 C         -30.3487   49.5643   -8.2343 C.3     1  UNL1        0.0076
     32 C         -30.2312   50.8549   -7.3962 C.3     1  UNL1        0.0005
     33 N         -27.2667   49.0289   -2.7640 N.pl3   1  UNL1       -0.2814
     34 H         -26.7922   49.6562   -2.0768 H       1  UNL1        0.1551
     35 C         -27.8063   47.7834   -2.2890 C.ar    1  UNL1        0.0889
     36 C         -29.0684   47.7319   -1.6613 C.ar    1  UNL1        0.1543
     37 F         -29.8161   48.8535   -1.5065 F       1  UNL1       -0.2028
     38 C         -29.5817   46.5115   -1.2128 C.ar    1  UNL1        0.0310
     39 C         -28.8541   45.3343   -1.3935 C.ar    1  UNL1        0.0033
     40 C         -27.6118   45.3713   -2.0289 C.ar    1  UNL1        0.0128
     41 C         -27.0869   46.5871   -2.4824 C.ar    1  UNL1        0.0733
     42 CL        -25.5057   46.5903   -3.2526 Cl      1  UNL1       -0.0809
@<TRIPOS>BOND
     1    30    31    1
     2    31    32    1
     3    31     1    1
     4     1     2    1
     5     2     3   ar
     6     3     4   ar
     7     4    16    1
     8    16    17    2
     9    16    18   am
    10    18    20    1
    11    20    21   ar
    12    21    22   ar
    13    22    23   ar
    14    23    24   ar
    15    24    26    1
    16    26    27    1
    17    26    28    1
    18    26    29    1
    19    24    25   ar
    20     4     5   ar
    21     5     6   ar
    22     6     7   ar
    23     7     8   ar
    24     8    33    1
    25    33    35    1
    26    35    36   ar
    27    36    37    1
    28    36    38   ar
    29    38    39   ar
    30    39    40   ar
    31    40    41   ar
    32    41    42    1
    33     8     9   ar
    34     9    10    1
    35     9    11   ar
    36     3    12    1
    37    12    13    1
    38    13    14    1
    39    13    15    1
    40    13     1    1
    41    11     2   ar
    42    25    20   ar
    43    11     6   ar
    44    41    35   ar
    45    18    19    1
    46    33    34    1
@<TRIPOS>MOLECULE
*****
 42 46 0 0 0
SMALL
GASTEIGER

@<TRIPOS>ATOM
      1 C         -29.5002   49.2811   -8.8912 C.3     1  UNL1        0.0634
      2 C         -28.3886   49.7653   -7.9972 C.ar    1  UNL1        0.0323
      3 C         -28.5907   49.2834   -6.7207 C.ar    1  UNL1        0.1401
      4 C         -27.6413   49.4503   -5.6858 C.ar    1  UNL1        0.0888
      5 C         -26.4850   50.2186   -5.9646 C.ar    1  UNL1        0.0282
      6 C         -26.3471   50.7798   -7.2401 C.ar    1  UNL1        0.0999
      7 N         -25.3926   51.6356   -7.6407 N.ar    1  UNL1       -0.2135
      8 C         -25.7944   51.9755   -8.8903 C.ar    1  UNL1        0.2018
      9 N         -26.9348   51.3477   -9.2973 N.ar    1  UNL1       -0.2977
     10 C         -27.7064   51.6288  -10.5095 C.3     1  UNL1        0.1332
     11 C         -27.2747   50.5878   -8.2333 C.ar    1  UNL1        0.0789
     12 O         -29.8460   48.7230   -6.6019 O.3     1  UNL1       -0.4824
     13 C         -30.5981   48.9325   -7.7972 C.3     1  UNL1        0.1370
     14 C         -31.4960   47.7035   -8.0490 C.3     1  UNL1        0.0439
     15 C         -31.5088   50.1594   -7.5809 C.3     1  UNL1        0.0439
     16 C         -27.8591   48.9002   -4.3309 C.2     1  UNL1        0.2525
     17 O         -26.9829   49.0960   -3.4454 O.2     1  UNL1       -0.2697
     18 N         -29.0502   48.1541   -4.0197 N.am    1  UNL1       -0.2803
     19 H         -29.7853   48.0484   -4.7533 H       1  UNL1        0.1552
     20 C         -29.3365   47.6025   -2.7238 C.ar    1  UNL1        0.0505
     21 C         -29.0661   46.2489   -2.4815 C.ar    1  UNL1        0.0147
     22 C         -29.2999   45.6963   -1.2210 C.ar    1  UNL1        0.0012
     23 C         -29.7994   46.4915   -0.1873 C.ar    1  UNL1        0.0039
     24 C         -30.0783   47.8513   -0.4079 C.ar    1  UNL1        0.0726
     25 C         -29.8142   48.4068   -1.6732 C.ar    1  UNL1        0.0185
     26 C         -30.5498   48.7279    0.7251 C.3     1  UNL1        0.4186
     27 F         -31.0004   49.9303    0.2130 F       1  UNL1       -0.1659
     28 F         -31.5815   48.1170    1.4166 F       1  UNL1       -0.1659
     29 F         -29.5193   48.9749    1.6157 F       1  UNL1       -0.1659
     30 C         -29.4904   48.2615  -11.2455 C.3     1  UNL1        0.0005
     31 C         -29.0548   48.0556   -9.7858 C.3     1  UNL1        0.0076
     32 C         -27.5513   47.7089   -9.7520 C.3     1  UNL1        0.0005
     33 N         -25.0828   52.9463   -9.6696 N.pl3   1  UNL1       -0.2814
     34 H         -25.6145   53.7853   -9.9928 H       1  UNL1        0.1551
     35 C         -23.7547   52.7431  -10.1822 C.ar    1  UNL1        0.0889
     36 C         -23.2727   51.4457  -10.4545 C.ar    1  UNL1        0.1543
     37 F         -24.0565   50.3557  -10.2585 F       1  UNL1       -0.2028
     38 C         -21.9820   51.2666  -10.9604 C.ar    1  UNL1        0.0310
     39 C         -21.1659   52.3708  -11.2104 C.ar    1  UNL1        0.0033
     40 C         -21.6390   53.6602  -10.9610 C.ar    1  UNL1        0.0128
     41 C         -22.9295   53.8527  -10.4543 C.ar    1  UNL1        0.0733
     42 CL        -23.4738   55.4932  -10.1290 Cl      1  UNL1       -0.0809
@<TRIPOS>BOND
     1    30    31    1
     2    31    32    1
     3    31     1    1
     4     1     2    1
     5     2     3   ar
     6     3     4   ar
     7     4    16    1
     8    16    17    2
     9    16    18   am
    10    18    20    1
    11    20    21   ar
    12    21    22   ar
    13    22    23   ar
    14    23    24   ar
    15    24    26    1
    16    26    27    1
    17    26    28    1
    18    26    29    1
    19    24    25   ar
    20     4     5   ar
    21     5     6   ar
    22     6     7   ar
    23     7     8   ar
    24     8    33    1
    25    33    35    1
    26    35    36   ar
    27    36    37    1
    28    36    38   ar
    29    38    39   ar
    30    39    40   ar
    31    40    41   ar
    32    41    42    1
    33     8     9   ar
    34     9    10    1
    35     9    11   ar
    36     3    12    1
    37    12    13    1
    38    13    14    1
    39    13    15    1
    40    13     1    1
    41    11     2   ar
    42    25    20   ar
    43    11     6   ar
    44    41    35   ar
    45    18    19    1
    46    33    34    1
@<TRIPOS>MOLECULE
*****
 42 46 0 0 0
SMALL
GASTEIGER

@<TRIPOS>ATOM
      1 C         -28.2885   49.3814   -7.4834 C.3     1  UNL1        0.0634
      2 C         -27.8813   49.9139   -8.8324 C.ar    1  UNL1        0.0323
      3 C         -26.6646   50.5538   -8.7190 C.ar    1  UNL1        0.1401
      4 C         -25.9524   51.0376   -9.8410 C.ar    1  UNL1        0.0888
      5 C         -26.5665   50.9306  -11.1124 C.ar    1  UNL1        0.0282
      6 C         -27.8448   50.3646  -11.1917 C.ar    1  UNL1        0.0999
      7 N         -28.6272   50.3004  -12.2814 N.ar    1  UNL1       -0.2135
      8 C         -29.7887   49.8001  -11.7923 C.ar    1  UNL1        0.2018
      9 N         -29.7550   49.5205  -10.4578 N.ar    1  UNL1       -0.2977
     10 C         -30.8878   49.1381   -9.6125 C.3     1  UNL1        0.1332
     11 C         -28.5077   49.8856  -10.0893 C.ar    1  UNL1        0.0789
     12 O         -26.3196   50.7182   -7.3931 O.3     1  UNL1       -0.4824
     13 C         -27.3881   50.2949   -6.5461 C.3     1  UNL1        0.1370
     14 C         -26.7978   49.6536   -5.2732 C.3     1  UNL1        0.0439
     15 C         -28.1919   51.5444   -6.1289 C.3     1  UNL1        0.0439
     16 C         -24.6343   51.6934   -9.7052 C.2     1  UNL1        0.2525
     17 O         -24.1534   51.8622   -8.5517 O.2     1  UNL1       -0.2697
     18 N         -23.9052   52.1325  -10.8661 N.am    1  UNL1       -0.2803
     19 H         -24.2984   51.9363  -11.8129 H       1  UNL1        0.1552
     20 C         -22.6149   52.7633  -10.8127 C.ar    1  UNL1        0.0505
     21 C         -22.5361   54.1397  -10.5609 C.ar    1  UNL1        0.0147
     22 C         -21.2945   54.7710  -10.4670 C.ar    1  UNL1        0.0012
     23 C         -20.1184   54.0328  -10.6162 C.ar    1  UNL1        0.0039
     24 C         -20.1736   52.6514  -10.8697 C.ar    1  UNL1        0.0726
     25 C         -21.4281   52.0181  -10.9358 C.ar    1  UNL1        0.0185
     26 C         -18.9055   51.8402  -10.9602 C.3     1  UNL1        0.4186
     27 F         -17.9305   52.4310  -10.1784 F       1  UNL1       -0.1659
     28 F         -19.1210   50.5481  -10.5129 F       1  UNL1       -0.1659
     29 F         -18.4570   51.7755  -12.2681 F       1  UNL1       -0.1659
     30 C         -29.3220   47.0333   -7.4622 C.3     1  UNL1        0.0005
     31 C         -28.0128   47.8303   -7.3467 C.3     1  UNL1        0.0076
     32 C         -26.9758   47.2422   -8.3268 C.3     1  UNL1        0.0005
     33 N         -30.9443   49.6345  -12.6250 N.pl3   1  UNL1       -0.2814
     34 H         -31.7825   50.2174  -12.4040 H       1  UNL1        0.1551
     35 C         -31.0784   48.5957  -13.6103 C.ar    1  UNL1        0.0889
     36 C         -30.9329   47.2378  -13.2573 C.ar    1  UNL1        0.1543
     37 F         -30.6819   46.8742  -11.9744 F       1  UNL1       -0.2028
     38 C         -31.0745   46.2401  -14.2260 C.ar    1  UNL1        0.0310
     39 C         -31.3723   46.5801  -15.5465 C.ar    1  UNL1        0.0033
     40 C         -31.5356   47.9197  -15.9032 C.ar    1  UNL1        0.0128
     41 C         -31.3962   48.9280  -14.9424 C.ar    1  UNL1        0.0733
     42 CL        -31.5832   50.6038  -15.4427 Cl      1  UNL1       -0.0809
@<TRIPOS>BOND
     1    30    31    1
     2    31    32    1
     3    31     1    1
     4     1     2    1
     5     2     3   ar
     6     3     4   ar
     7     4    16    1
     8    16    17    2
     9    16    18   am
    10    18    20    1
    11    20    21   ar
    12    21    22   ar
    13    22    23   ar
    14    23    24   ar
    15    24    26    1
    16    26    27    1
    17    26    28    1
    18    26    29    1
    19    24    25   ar
    20     4     5   ar
    21     5     6   ar
    22     6     7   ar
    23     7     8   ar
    24     8    33    1
    25    33    35    1
    26    35    36   ar
    27    36    37    1
    28    36    38   ar
    29    38    39   ar
    30    39    40   ar
    31    40    41   ar
    32    41    42    1
    33     8     9   ar
    34     9    10    1
    35     9    11   ar
    36     3    12    1
    37    12    13    1
    38    13    14    1
    39    13    15    1
    40    13     1    1
    41    11     2   ar
    42    25    20   ar
    43    11     6   ar
    44    41    35   ar
    45    18    19    1
    46    33    34    1
@<TRIPOS>MOLECULE
*****
 42 46 0 0 0
SMALL
GASTEIGER

@<TRIPOS>ATOM
      1 C         -29.2015   50.4340  -10.8041 C.3     1  UNL1        0.0634
      2 C         -27.9942   49.9336  -10.0548 C.ar    1  UNL1        0.0323
      3 C         -26.9536   50.8226  -10.2260 C.ar    1  UNL1        0.1401
      4 C         -25.7277   50.7011   -9.5313 C.ar    1  UNL1        0.0888
      5 C         -25.5467   49.5699   -8.6990 C.ar    1  UNL1        0.0282
      6 C         -26.5807   48.6293   -8.6157 C.ar    1  UNL1        0.0999
      7 N         -26.5371   47.4434   -7.9867 N.ar    1  UNL1       -0.2135
      8 C         -27.7200   46.8750   -8.3280 C.ar    1  UNL1        0.2018
      9 N         -28.5096   47.6635   -9.1121 N.ar    1  UNL1       -0.2977
     10 C         -29.7527   47.2725   -9.7797 C.3     1  UNL1        0.1332
     11 C         -27.7688   48.7797   -9.2863 C.ar    1  UNL1        0.0789
     12 O         -27.2556   51.7474  -11.2046 O.3     1  UNL1       -0.4824
     13 C         -28.4962   51.4202  -11.8306 C.3     1  UNL1        0.1370
     14 C         -29.2357   52.7242  -12.1952 C.3     1  UNL1        0.0439
     15 C         -28.1871   50.6593  -13.1371 C.3     1  UNL1        0.0439
     16 C         -24.6334   51.6806   -9.7023 C.2     1  UNL1        0.2525
     17 O         -24.9158   52.9088   -9.7446 O.2     1  UNL1       -0.2697
     18 N         -23.2657   51.2467   -9.8172 N.am    1  UNL1       -0.2803
     19 H         -23.0499   50.2293   -9.7278 H       1  UNL1        0.1552
     20 C         -22.1502   52.1399   -9.9709 C.ar    1  UNL1        0.0505
     21 C         -22.0055   52.8540  -11.1680 C.ar    1  UNL1        0.0147
     22 C         -20.9522   53.7559  -11.3298 C.ar    1  UNL1        0.0012
     23 C         -20.0368   53.9595  -10.2950 C.ar    1  UNL1        0.0039
     24 C         -20.1623   53.2538   -9.0860 C.ar    1  UNL1        0.0726
     25 C         -21.2420   52.3672   -8.9208 C.ar    1  UNL1        0.0185
     26 C         -19.2176   53.5243   -7.9420 C.3     1  UNL1        0.4186
     27 F         -19.6661   52.8616   -6.8149 F       1  UNL1       -0.1659
     28 F         -17.9424   53.0816   -8.2484 F       1  UNL1       -0.1659
     29 F         -19.1507   54.8802   -7.6713 F       1  UNL1       -0.1659
     30 C         -31.5824   50.3564   -9.8515 C.3     1  UNL1        0.0005
     31 C         -30.2523   51.1268   -9.8468 C.3     1  UNL1        0.0076
     32 C         -29.7966   51.3378   -8.3875 C.3     1  UNL1        0.0005
     33 N         -28.0584   45.5430   -7.9189 N.pl3   1  UNL1       -0.2814
     34 H         -27.7718   44.7603   -8.5485 H       1  UNL1        0.1551
     35 C         -28.9194   45.2418   -6.8072 C.ar    1  UNL1        0.0889
     36 C         -28.5601   45.6043   -5.4923 C.ar    1  UNL1        0.1543
     37 F         -27.4012   46.2647   -5.2434 F       1  UNL1       -0.2028
     38 C         -29.4127   45.3113   -4.4239 C.ar    1  UNL1        0.0310
     39 C         -30.6302   44.6685   -4.6526 C.ar    1  UNL1        0.0033
     40 C         -31.0036   44.3207   -5.9519 C.ar    1  UNL1        0.0128
     41 C         -30.1585   44.6086   -7.0300 C.ar    1  UNL1        0.0733
     42 CL        -30.6571   44.1273   -8.6466 Cl      1  UNL1       -0.0809
@<TRIPOS>BOND
     1    30    31    1
     2    31    32    1
     3    31     1    1
     4     1     2    1
     5     2     3   ar
     6     3     4   ar
     7     4    16    1
     8    16    17    2
     9    16    18   am
    10    18    20    1
    11    20    21   ar
    12    21    22   ar
    13    22    23   ar
    14    23    24   ar
    15    24    26    1
    16    26    27    1
    17    26    28    1
    18    26    29    1
    19    24    25   ar
    20     4     5   ar
    21     5     6   ar
    22     6     7   ar
    23     7     8   ar
    24     8    33    1
    25    33    35    1
    26    35    36   ar
    27    36    37    1
    28    36    38   ar
    29    38    39   ar
    30    39    40   ar
    31    40    41   ar
    32    41    42    1
    33     8     9   ar
    34     9    10    1
    35     9    11   ar
    36     3    12    1
    37    12    13    1
    38    13    14    1
    39    13    15    1
    40    13     1    1
    41    11     2   ar
    42    25    20   ar
    43    11     6   ar
    44    41    35   ar
    45    18    19    1
    46    33    34    1
@<TRIPOS>MOLECULE
*****
 42 46 0 0 0
SMALL
GASTEIGER

@<TRIPOS>ATOM
      1 C         -29.1377   50.3037  -11.0618 C.3     1  UNL1        0.0634
      2 C         -29.4986   48.8548  -11.2614 C.ar    1  UNL1        0.0323
      3 C         -29.0976   48.1314  -10.1576 C.ar    1  UNL1        0.1401
      4 C         -29.4218   46.7656   -9.9849 C.ar    1  UNL1        0.0888
      5 C         -30.1092   46.1096  -11.0346 C.ar    1  UNL1        0.0282
      6 C         -30.4211   46.8397  -12.1881 C.ar    1  UNL1        0.0999
      7 N         -30.9481   46.3565  -13.3250 N.ar    1  UNL1       -0.2135
      8 C         -30.9136   47.4280  -14.1552 C.ar    1  UNL1        0.2018
      9 N         -30.4206   48.5617  -13.5791 N.ar    1  UNL1       -0.2977
     10 C         -30.0991   49.8206  -14.2541 C.3     1  UNL1        0.1332
     11 C         -30.1114   48.1700  -12.3237 C.ar    1  UNL1        0.0789
     12 O         -28.2917   48.8949   -9.3381 O.3     1  UNL1       -0.4824
     13 C         -28.0128   50.1542   -9.9500 C.3     1  UNL1        0.1370
     14 C         -27.9372   51.2397   -8.8564 C.3     1  UNL1        0.0439
     15 C         -26.6320   50.0595  -10.6325 C.3     1  UNL1        0.0439
     16 C         -29.0112   46.0124   -8.7807 C.2     1  UNL1        0.2525
     17 O         -28.4518   44.8914   -8.9242 O.2     1  UNL1       -0.2697
     18 N         -29.2410   46.5447   -7.4631 N.am    1  UNL1       -0.2803
     19 H         -29.6585   47.4968   -7.3693 H       1  UNL1        0.1552
     20 C         -28.8572   45.8774   -6.2494 C.ar    1  UNL1        0.0505
     21 C         -29.6333   44.8083   -5.7815 C.ar    1  UNL1        0.0147
     22 C         -29.2626   44.1188   -4.6256 C.ar    1  UNL1        0.0012
     23 C         -28.1090   44.4850   -3.9290 C.ar    1  UNL1        0.0039
     24 C         -27.3159   45.5542   -4.3798 C.ar    1  UNL1        0.0726
     25 C         -27.6814   46.2263   -5.5604 C.ar    1  UNL1        0.0185
     26 C         -26.0323   45.9054   -3.6700 C.3     1  UNL1        0.4186
     27 F         -25.5252   44.7734   -3.0599 F       1  UNL1       -0.1659
     28 F         -25.0972   46.3919   -4.5671 F       1  UNL1       -0.1659
     29 F         -26.2536   46.8756   -2.7078 F       1  UNL1       -0.1659
     30 C         -30.8656   52.0587  -11.7808 C.3     1  UNL1        0.0005
     31 C         -30.3830   51.1730  -10.6210 C.3     1  UNL1        0.0076
     32 C         -31.5839   50.3883  -10.0518 C.3     1  UNL1        0.0005
     33 N         -31.3261   47.3298  -15.5250 N.pl3   1  UNL1       -0.2814
     34 H         -32.2392   47.7662  -15.7836 H       1  UNL1        0.1551
     35 C         -30.6586   46.5167  -16.5054 C.ar    1  UNL1        0.0889
     36 C         -30.7166   45.1088  -16.4413 C.ar    1  UNL1        0.1543
     37 F         -31.4204   44.4840  -15.4638 F       1  UNL1       -0.2028
     38 C         -30.0688   44.3333  -17.4072 C.ar    1  UNL1        0.0310
     39 C         -29.3701   44.9469  -18.4480 C.ar    1  UNL1        0.0033
     40 C         -29.3208   46.3395  -18.5309 C.ar    1  UNL1        0.0128
     41 C         -29.9653   47.1270  -17.5697 C.ar    1  UNL1        0.0733
     42 CL        -29.8534   48.8775  -17.6981 Cl      1  UNL1       -0.0809
@<TRIPOS>BOND
     1    30    31    1
     2    31    32    1
     3    31     1    1
     4     1     2    1
     5     2     3   ar
     6     3     4   ar
     7     4    16    1
     8    16    17    2
     9    16    18   am
    10    18    20    1
    11    20    21   ar
    12    21    22   ar
    13    22    23   ar
    14    23    24   ar
    15    24    26    1
    16    26    27    1
    17    26    28    1
    18    26    29    1
    19    24    25   ar
    20     4     5   ar
    21     5     6   ar
    22     6     7   ar
    23     7     8   ar
    24     8    33    1
    25    33    35    1
    26    35    36   ar
    27    36    37    1
    28    36    38   ar
    29    38    39   ar
    30    39    40   ar
    31    40    41   ar
    32    41    42    1
    33     8     9   ar
    34     9    10    1
    35     9    11   ar
    36     3    12    1
    37    12    13    1
    38    13    14    1
    39    13    15    1
    40    13     1    1
    41    11     2   ar
    42    25    20   ar
    43    11     6   ar
    44    41    35   ar
    45    18    19    1
    46    33    34    1
