@<TRIPOS>MOLECULE
*****
 46 51 0 0 0
SMALL
GASTEIGER

@<TRIPOS>ATOM
      1 C          58.1749   83.6389    9.1226 C.ar    1  UNL1        0.0702
      2 C          57.9577   83.7774   10.4984 C.ar    1  UNL1        0.0191
      3 C          57.9614   82.6551   11.3283 C.ar    1  UNL1        0.0356
      4 C          58.1696   81.3815   10.7727 C.ar    1  UNL1        0.1318
      5 N          58.3415   81.2702    9.4257 N.ar    1  UNL1       -0.2279
      6 C          58.3453   82.3481    8.5988 C.ar    1  UNL1        0.1149
      7 N          58.2144   80.1997   11.6021 N.pl3   1  UNL1       -0.2932
      8 C          58.3217   80.3071   13.0674 C.3     1  UNL1        0.0923
      9 C          59.0069   79.0679   13.6738 C.3     1  UNL1        0.0252
     10 C          60.1346   78.5410   12.7578 C.3     1  UNL1        0.0472
     11 C          59.5795   78.1526   11.3582 C.3     1  UNL1        0.0252
     12 C          58.2637   78.8623   10.9972 C.3     1  UNL1        0.0923
     13 C          61.3022   79.5522   12.6885 C.3     1  UNL1        0.2054
     14 O          61.4117   80.1316   11.3852 O.3     1  UNL1       -0.4755
     15 C          61.5374   81.4999   11.0807 C.ar    1  UNL1        0.1388
     16 C          61.4665   82.5200   12.0514 C.ar    1  UNL1        0.0369
     17 C          61.5983   83.8584   11.6771 C.ar    1  UNL1        0.0033
     18 C          61.8022   84.1987   10.3390 C.ar    1  UNL1        0.0066
     19 C          61.8733   83.1979    9.3551 C.ar    1  UNL1        0.0785
     20 C          61.7381   81.8520    9.7395 C.ar    1  UNL1        0.0433
     21 C          62.0864   83.5513    7.9340 C.2     1  UNL1        0.3381
     22 O          61.1958   83.3085    7.0750 O.2     1  UNL1       -0.2451
     23 O          63.2742   84.1564    7.5314 O.3     1  UNL1       -0.4771
     24 H          63.4301   84.4023    6.5610 H       1  UNL1        0.2954
     25 C          58.7831   86.0503    8.6201 C.2     1  UNL1        0.2839
     26 O          59.1691   86.2636    9.8009 O.2     1  UNL1       -0.2665
     27 N          58.1591   84.8021    8.2774 N.am    1  UNL1       -0.2766
     28 H          57.5857   84.7627    7.4044 H       1  UNL1        0.1553
     29 C          61.5066   86.9892    7.2160 C.3     1  UNL1        0.0345
     30 C          60.1218   87.5119    6.9783 C.ar    1  UNL1        0.0202
     31 C          58.9349   87.0996    7.5944 C.ar    1  UNL1        0.1946
     32 O          57.9152   87.7944    7.1219 O.2     1  UNL1       -0.4492
     33 C          58.3797   88.6367    6.2316 C.ar    1  UNL1        0.1452
     34 C          57.6559   89.5593    5.4847 C.ar    1  UNL1        0.0375
     35 C          58.3586   90.3705    4.5770 C.ar    1  UNL1        0.0031
     36 C          59.7669   90.2485    4.4301 C.ar    1  UNL1        0.0002
     37 C          60.4661   89.2966    5.2104 C.ar    1  UNL1        0.0028
     38 C          59.7366   88.5081    6.1016 C.ar    1  UNL1        0.0337
     39 C          60.4985   91.1109    3.4678 C.ar    1  UNL1        0.0000
     40 C          61.8755   90.9244    3.2433 C.ar    1  UNL1        0.0005
     41 C          62.5627   91.7381    2.3376 C.ar    1  UNL1        0.0059
     42 C          61.8850   92.7458    1.6448 C.ar    1  UNL1        0.0215
     43 S          62.7669   93.7858    0.4854 S.3     1  UNL1       -0.1414
     44 C          60.5174   92.9400    1.8597 C.ar    1  UNL1        0.0059
     45 C          59.8267   92.1291    2.7653 C.ar    1  UNL1        0.0005
     46 H          62.5023   92.9101   -0.5842 H       1  UNL1        0.1071
@<TRIPOS>BOND
     1    29    30    1
     2    30    31   ar
     3    31    25    1
     4    25    26    2
     5    25    27   am
     6    27     1    1
     7     1     2   ar
     8     2     3   ar
     9     3     4   ar
    10     4     7    1
    11     7     8    1
    12     8     9    1
    13     9    10    1
    14    10    13    1
    15    13    14    1
    16    14    15    1
    17    15    16   ar
    18    16    17   ar
    19    17    18   ar
    20    18    19   ar
    21    19    21    1
    22    21    22    2
    23    21    23    1
    24    19    20   ar
    25    10    11    1
    26    11    12    1
    27     4     5   ar
    28     5     6   ar
    29    31    32   ar
    30    32    33   ar
    31    33    34   ar
    32    34    35   ar
    33    35    36   ar
    34    36    39    1
    35    39    40   ar
    36    40    41   ar
    37    41    42   ar
    38    42    43    1
    39    42    44   ar
    40    44    45   ar
    41    36    37   ar
    42    37    38   ar
    43    38    30   ar
    44     6     1   ar
    45    38    33   ar
    46    12     7    1
    47    45    39   ar
    48    20    15   ar
    49    27    28    1
    50    23    24    1
    51    43    46    1
@<TRIPOS>MOLECULE
*****
 46 51 0 0 0
SMALL
GASTEIGER

@<TRIPOS>ATOM
      1 C          58.2199   83.6201    9.1460 C.ar    1  UNL1        0.0702
      2 C          57.8807   83.7462   10.4982 C.ar    1  UNL1        0.0191
      3 C          57.8817   82.6266   11.3317 C.ar    1  UNL1        0.0356
      4 C          58.2110   81.3673   10.8025 C.ar    1  UNL1        0.1318
      5 N          58.5011   81.2657    9.4751 N.ar    1  UNL1       -0.2279
      6 C          58.5098   82.3415    8.6454 C.ar    1  UNL1        0.1149
      7 N          58.2565   80.1908   11.6392 N.pl3   1  UNL1       -0.2932
      8 C          58.3233   80.3076   13.1062 C.3     1  UNL1        0.0923
      9 C          59.0159   79.0847   13.7370 C.3     1  UNL1        0.0252
     10 C          60.1769   78.5748   12.8537 C.3     1  UNL1        0.0472
     11 C          59.6660   78.1689   11.4422 C.3     1  UNL1        0.0252
     12 C          58.3469   78.8516   11.0432 C.3     1  UNL1        0.0923
     13 C          61.3265   79.6078   12.8092 C.3     1  UNL1        0.2054
     14 O          61.6151   80.0073   11.4663 O.3     1  UNL1       -0.4755
     15 C          61.7051   81.3256   10.9817 C.ar    1  UNL1        0.1388
     16 C          62.0482   81.6409    9.6510 C.ar    1  UNL1        0.0369
     17 C          62.1202   82.9728    9.2392 C.ar    1  UNL1        0.0033
     18 C          61.8525   84.0042   10.1408 C.ar    1  UNL1        0.0066
     19 C          61.5113   83.7122   11.4722 C.ar    1  UNL1        0.0785
     20 C          61.4423   82.3682   11.8802 C.ar    1  UNL1        0.0433
     21 C          61.2290   84.8004   12.4344 C.2     1  UNL1        0.3381
     22 O          61.9491   84.9503   13.4585 O.2     1  UNL1       -0.2451
     23 O          60.1637   85.6706   12.2175 O.3     1  UNL1       -0.4771
     24 H          59.9618   86.4188   12.8700 H       1  UNL1        0.2954
     25 C          58.7996   86.0396    8.6492 C.2     1  UNL1        0.2839
     26 O          59.1522   86.2637    9.8384 O.2     1  UNL1       -0.2665
     27 N          58.2056   84.7798    8.2960 N.am    1  UNL1       -0.2766
     28 H          57.6551   84.7275    7.4091 H       1  UNL1        0.1553
     29 C          61.5199   86.9123    7.1970 C.3     1  UNL1        0.0345
     30 C          60.1449   87.4712    6.9864 C.ar    1  UNL1        0.0202
     31 C          58.9594   87.0877    7.6234 C.ar    1  UNL1        0.1946
     32 O          57.9494   87.8098    7.1716 O.2     1  UNL1       -0.4492
     33 C          58.4188   88.6424    6.2749 C.ar    1  UNL1        0.1452
     34 C          57.7053   89.5856    5.5438 C.ar    1  UNL1        0.0375
     35 C          58.4118   90.3811    4.6252 C.ar    1  UNL1        0.0031
     36 C          59.8135   90.2233    4.4518 C.ar    1  UNL1        0.0002
     37 C          60.5022   89.2515    5.2166 C.ar    1  UNL1        0.0028
     38 C          59.7693   88.4795    6.1194 C.ar    1  UNL1        0.0337
     39 C          60.5491   91.0694    3.4781 C.ar    1  UNL1        0.0000
     40 C          59.8805   92.0756    2.7559 C.ar    1  UNL1        0.0005
     41 C          60.5748   92.8704    1.8390 C.ar    1  UNL1        0.0059
     42 C          61.9433   92.6720    1.6325 C.ar    1  UNL1        0.0215
     43 S          62.8299   93.6913    0.4584 S.3     1  UNL1       -0.1414
     44 C          62.6176   91.6756    2.3443 C.ar    1  UNL1        0.0059
     45 C          61.9267   90.8780    3.2615 C.ar    1  UNL1        0.0005
     46 H          63.1447   94.6461    1.4434 H       1  UNL1        0.1071
@<TRIPOS>BOND
     1    29    30    1
     2    30    31   ar
     3    31    25    1
     4    25    26    2
     5    25    27   am
     6    27     1    1
     7     1     2   ar
     8     2     3   ar
     9     3     4   ar
    10     4     7    1
    11     7     8    1
    12     8     9    1
    13     9    10    1
    14    10    13    1
    15    13    14    1
    16    14    15    1
    17    15    16   ar
    18    16    17   ar
    19    17    18   ar
    20    18    19   ar
    21    19    21    1
    22    21    22    2
    23    21    23    1
    24    19    20   ar
    25    10    11    1
    26    11    12    1
    27     4     5   ar
    28     5     6   ar
    29    31    32   ar
    30    32    33   ar
    31    33    34   ar
    32    34    35   ar
    33    35    36   ar
    34    36    39    1
    35    39    40   ar
    36    40    41   ar
    37    41    42   ar
    38    42    43    1
    39    42    44   ar
    40    44    45   ar
    41    36    37   ar
    42    37    38   ar
    43    38    30   ar
    44     6     1   ar
    45    38    33   ar
    46    12     7    1
    47    45    39   ar
    48    20    15   ar
    49    27    28    1
    50    23    24    1
    51    43    46    1
@<TRIPOS>MOLECULE
*****
 46 51 0 0 0
SMALL
GASTEIGER

@<TRIPOS>ATOM
      1 C          61.1689   84.2489   11.9186 C.ar    1  UNL1        0.0702
      2 C          60.7527   83.6777   13.1269 C.ar    1  UNL1        0.0191
      3 C          59.9157   82.5607   13.1262 C.ar    1  UNL1        0.0356
      4 C          59.4797   82.0205   11.9046 C.ar    1  UNL1        0.1318
      5 N          59.8691   82.6179   10.7435 N.ar    1  UNL1       -0.2279
      6 C          60.6858   83.7032   10.7193 C.ar    1  UNL1        0.1149
      7 N          58.6409   80.8454   11.8611 N.pl3   1  UNL1       -0.2932
      8 C          58.6094   79.8959   12.9869 C.3     1  UNL1        0.0923
      9 C          58.2404   78.4765   12.5157 C.3     1  UNL1        0.0252
     10 C          58.8551   78.1625   11.1331 C.3     1  UNL1        0.0472
     11 C          58.3602   79.1740   10.0608 C.3     1  UNL1        0.0252
     12 C          57.8819   80.5122   10.6486 C.3     1  UNL1        0.0923
     13 C          60.3964   78.0803   11.2242 C.3     1  UNL1        0.2054
     14 O          61.0183   79.1334   10.4822 O.3     1  UNL1       -0.4755
     15 C          62.0228   80.0060   10.9407 C.ar    1  UNL1        0.1388
     16 C          62.8522   80.7540   10.0802 C.ar    1  UNL1        0.0369
     17 C          63.8306   81.6000   10.6053 C.ar    1  UNL1        0.0033
     18 C          63.9960   81.7138   11.9865 C.ar    1  UNL1        0.0066
     19 C          63.1818   80.9753   12.8619 C.ar    1  UNL1        0.0785
     20 C          62.1994   80.1239   12.3257 C.ar    1  UNL1        0.0433
     21 C          63.3533   81.0885   14.3273 C.2     1  UNL1        0.3381
     22 O          64.2780   81.7974   14.8094 O.2     1  UNL1       -0.2451
     23 O          62.4937   80.4122   15.1892 O.3     1  UNL1       -0.4771
     24 H          62.6024   80.4829   16.1940 H       1  UNL1        0.2954
     25 C          61.7643   86.5834   12.7140 C.2     1  UNL1        0.2839
     26 O          60.6329   86.7591   13.2412 O.2     1  UNL1       -0.2665
     27 N          62.0235   85.4052   11.9333 N.am    1  UNL1       -0.2766
     28 H          62.8316   85.4227   11.2707 H       1  UNL1        0.1553
     29 C          63.8477   86.8647   15.1328 C.3     1  UNL1        0.0345
     30 C          63.7263   87.7345   13.9179 C.ar    1  UNL1        0.0202
     31 C          62.8143   87.6087   12.8640 C.ar    1  UNL1        0.1946
     32 O          63.0181   88.5631   11.9734 O.2     1  UNL1       -0.4492
     33 C          64.0148   89.3020   12.3956 C.ar    1  UNL1        0.1452
     34 C          64.5650   90.4146   11.7691 C.ar    1  UNL1        0.0375
     35 C          65.6401   91.0635   12.4007 C.ar    1  UNL1        0.0031
     36 C          66.1466   90.5937   13.6426 C.ar    1  UNL1        0.0002
     37 C          65.5572   89.4575   14.2472 C.ar    1  UNL1        0.0028
     38 C          64.4915   88.8381   13.5924 C.ar    1  UNL1        0.0337
     39 C          67.2829   91.2874   14.3003 C.ar    1  UNL1        0.0000
     40 C          67.0511   92.3313   15.2155 C.ar    1  UNL1        0.0005
     41 C          68.1224   92.9838   15.8329 C.ar    1  UNL1        0.0059
     42 C          69.4365   92.6023   15.5460 C.ar    1  UNL1        0.0215
     43 S          70.8062   93.4389   16.3382 S.3     1  UNL1       -0.1414
     44 C          69.6786   91.5667   14.6387 C.ar    1  UNL1        0.0059
     45 C          68.6101   90.9123   14.0184 C.ar    1  UNL1        0.0005
     46 H          70.8070   92.5325   17.4149 H       1  UNL1        0.1071
@<TRIPOS>BOND
     1    29    30    1
     2    30    31   ar
     3    31    25    1
     4    25    26    2
     5    25    27   am
     6    27     1    1
     7     1     2   ar
     8     2     3   ar
     9     3     4   ar
    10     4     7    1
    11     7     8    1
    12     8     9    1
    13     9    10    1
    14    10    13    1
    15    13    14    1
    16    14    15    1
    17    15    16   ar
    18    16    17   ar
    19    17    18   ar
    20    18    19   ar
    21    19    21    1
    22    21    22    2
    23    21    23    1
    24    19    20   ar
    25    10    11    1
    26    11    12    1
    27     4     5   ar
    28     5     6   ar
    29    31    32   ar
    30    32    33   ar
    31    33    34   ar
    32    34    35   ar
    33    35    36   ar
    34    36    39    1
    35    39    40   ar
    36    40    41   ar
    37    41    42   ar
    38    42    43    1
    39    42    44   ar
    40    44    45   ar
    41    36    37   ar
    42    37    38   ar
    43    38    30   ar
    44     6     1   ar
    45    38    33   ar
    46    12     7    1
    47    45    39   ar
    48    20    15   ar
    49    27    28    1
    50    23    24    1
    51    43    46    1
@<TRIPOS>MOLECULE
*****
 46 51 0 0 0
SMALL
GASTEIGER

@<TRIPOS>ATOM
      1 C          58.2754   83.7651    8.9539 C.ar    1  UNL1        0.0702
      2 C          57.5518   83.7917   10.1518 C.ar    1  UNL1        0.0191
      3 C          57.5447   82.6794   10.9950 C.ar    1  UNL1        0.0356
      4 C          58.2566   81.5251   10.6276 C.ar    1  UNL1        0.1318
      5 N          58.9222   81.5118    9.4388 N.ar    1  UNL1       -0.2279
      6 C          58.9463   82.5831    8.6038 C.ar    1  UNL1        0.1149
      7 N          58.3017   80.3661   11.4886 N.pl3   1  UNL1       -0.2932
      8 C          58.4844   80.5106   12.9432 C.3     1  UNL1        0.0923
      9 C          59.1560   79.2653   13.5523 C.3     1  UNL1        0.0252
     10 C          60.2187   78.6732   12.5991 C.3     1  UNL1        0.0472
     11 C          59.5825   78.2658   11.2400 C.3     1  UNL1        0.0252
     12 C          58.2756   79.0115   10.9219 C.3     1  UNL1        0.0923
     13 C          61.4152   79.6400   12.4438 C.3     1  UNL1        0.2054
     14 O          61.6248   80.4039   13.6350 O.3     1  UNL1       -0.4755
     15 C          61.9164   81.7785   13.7123 C.ar    1  UNL1        0.1388
     16 C          60.9783   82.7882   13.4152 C.ar    1  UNL1        0.0369
     17 C          61.3376   84.1336   13.5119 C.ar    1  UNL1        0.0033
     18 C          62.6284   84.4915   13.9045 C.ar    1  UNL1        0.0066
     19 C          63.5796   83.5011   14.2027 C.ar    1  UNL1        0.0785
     20 C          63.2108   82.1479   14.1015 C.ar    1  UNL1        0.0433
     21 C          64.9508   83.8729   14.6167 C.2     1  UNL1        0.3381
     22 O          65.2002   85.0389   15.0267 O.2     1  UNL1       -0.2451
     23 O          65.9802   82.9369   14.5574 O.3     1  UNL1       -0.4771
     24 H          66.9224   83.1812   14.8385 H       1  UNL1        0.2954
     25 C          58.7471   86.2119    8.4769 C.2     1  UNL1        0.2839
     26 O          58.9756   86.4680    9.6898 O.2     1  UNL1       -0.2665
     27 N          58.2667   84.9142    8.0897 N.am    1  UNL1       -0.2766
     28 H          57.8033   84.8198    7.1575 H       1  UNL1        0.1553
     29 C          61.5028   87.0728    7.0860 C.3     1  UNL1        0.0345
     30 C          60.1353   87.6375    6.8445 C.ar    1  UNL1        0.0202
     31 C          58.9342   87.2591    7.4549 C.ar    1  UNL1        0.1946
     32 O          57.9376   87.9854    6.9806 O.2     1  UNL1       -0.4492
     33 C          58.4305   88.8159    6.0945 C.ar    1  UNL1        0.1452
     34 C          57.7376   89.7619    5.3476 C.ar    1  UNL1        0.0375
     35 C          58.4677   90.5543    4.4449 C.ar    1  UNL1        0.0031
     36 C          59.8723   90.3906    4.3030 C.ar    1  UNL1        0.0002
     37 C          60.5396   89.4160    5.0831 C.ar    1  UNL1        0.0028
     38 C          59.7834   88.6472    5.9693 C.ar    1  UNL1        0.0337
     39 C          60.6331   91.2334    3.3460 C.ar    1  UNL1        0.0000
     40 C          62.0275   91.0903    3.2182 C.ar    1  UNL1        0.0005
     41 C          62.7421   91.8855    2.3173 C.ar    1  UNL1        0.0059
     42 C          62.0748   92.8312    1.5330 C.ar    1  UNL1        0.0215
     43 S          62.9919   93.8476    0.3800 S.3     1  UNL1       -0.1414
     44 C          60.6901   92.9818    1.6515 C.ar    1  UNL1        0.0059
     45 C          59.9719   92.1893    2.5519 C.ar    1  UNL1        0.0005
     46 H          62.8287   92.9115   -0.6583 H       1  UNL1        0.1071
@<TRIPOS>BOND
     1    29    30    1
     2    30    31   ar
     3    31    25    1
     4    25    26    2
     5    25    27   am
     6    27     1    1
     7     1     2   ar
     8     2     3   ar
     9     3     4   ar
    10     4     7    1
    11     7     8    1
    12     8     9    1
    13     9    10    1
    14    10    13    1
    15    13    14    1
    16    14    15    1
    17    15    16   ar
    18    16    17   ar
    19    17    18   ar
    20    18    19   ar
    21    19    21    1
    22    21    22    2
    23    21    23    1
    24    19    20   ar
    25    10    11    1
    26    11    12    1
    27     4     5   ar
    28     5     6   ar
    29    31    32   ar
    30    32    33   ar
    31    33    34   ar
    32    34    35   ar
    33    35    36   ar
    34    36    39    1
    35    39    40   ar
    36    40    41   ar
    37    41    42   ar
    38    42    43    1
    39    42    44   ar
    40    44    45   ar
    41    36    37   ar
    42    37    38   ar
    43    38    30   ar
    44     6     1   ar
    45    38    33   ar
    46    12     7    1
    47    45    39   ar
    48    20    15   ar
    49    27    28    1
    50    23    24    1
    51    43    46    1
@<TRIPOS>MOLECULE
*****
 46 51 0 0 0
SMALL
GASTEIGER

@<TRIPOS>ATOM
      1 C          61.1641   84.1358   12.1960 C.ar    1  UNL1        0.0702
      2 C          61.5215   83.0439   12.9955 C.ar    1  UNL1        0.0191
      3 C          60.7256   81.8975   13.0183 C.ar    1  UNL1        0.0356
      4 C          59.5534   81.8505   12.2450 C.ar    1  UNL1        0.1318
      5 N          59.2084   82.9409   11.5043 N.ar    1  UNL1       -0.2279
      6 C          59.9689   84.0659   11.4637 C.ar    1  UNL1        0.1149
      7 N          58.7214   80.6701   12.2153 N.pl3   1  UNL1       -0.2932
      8 C          58.8971   79.5952   13.2071 C.3     1  UNL1        0.0923
      9 C          58.4488   78.2327   12.6455 C.3     1  UNL1        0.0252
     10 C          58.8001   78.0960   11.1468 C.3     1  UNL1        0.0472
     11 C          58.1167   79.2145   10.3103 C.3     1  UNL1        0.0252
     12 C          57.7534   80.4640   11.1301 C.3     1  UNL1        0.0923
     13 C          60.3321   78.0380   10.9459 C.3     1  UNL1        0.2054
     14 O          60.7344   78.7865    9.7951 O.3     1  UNL1       -0.4755
     15 C          61.5016   79.9664    9.7850 C.ar    1  UNL1        0.1388
     16 C          62.7261   80.1010   10.4707 C.ar    1  UNL1        0.0369
     17 C          63.4341   81.3030   10.4179 C.ar    1  UNL1        0.0033
     18 C          62.9366   82.3819    9.6853 C.ar    1  UNL1        0.0066
     19 C          61.7168   82.2699    8.9967 C.ar    1  UNL1        0.0785
     20 C          61.0085   81.0565    9.0557 C.ar    1  UNL1        0.0433
     21 C          61.1817   83.4104    8.2204 C.2     1  UNL1        0.3381
     22 O          59.9869   83.4043    7.8176 O.2     1  UNL1       -0.2451
     23 O          61.9939   84.5028    7.9269 O.3     1  UNL1       -0.4771
     24 H          61.6374   85.2886    7.3960 H       1  UNL1        0.2954
     25 C          61.7774   86.4443   13.0514 C.2     1  UNL1        0.2839
     26 O          60.6990   86.5603   13.6937 O.2     1  UNL1       -0.2665
     27 N          61.9876   85.3145   12.1888 N.am    1  UNL1       -0.2766
     28 H          62.7265   85.3886   11.4532 H       1  UNL1        0.1553
     29 C          63.9666   86.7679   15.3694 C.3     1  UNL1        0.0345
     30 C          63.7698   87.6355   14.1628 C.ar    1  UNL1        0.0202
     31 C          62.8118   87.4912   13.1531 C.ar    1  UNL1        0.1946
     32 O          62.9533   88.4500   12.2551 O.2     1  UNL1       -0.4492
     33 C          63.9533   89.2093   12.6308 C.ar    1  UNL1        0.1452
     34 C          64.4500   90.3334   11.9806 C.ar    1  UNL1        0.0375
     35 C          65.5400   91.0043   12.5615 C.ar    1  UNL1        0.0031
     36 C          66.1144   90.5446   13.7774 C.ar    1  UNL1        0.0002
     37 C          65.5780   89.3961   14.4076 C.ar    1  UNL1        0.0028
     38 C          64.4956   88.7550   13.8030 C.ar    1  UNL1        0.0337
     39 C          67.2659   91.2615   14.3816 C.ar    1  UNL1        0.0000
     40 C          68.5841   90.9469   14.0015 C.ar    1  UNL1        0.0005
     41 C          69.6669   91.6224   14.5724 C.ar    1  UNL1        0.0059
     42 C          69.4478   92.6197   15.5274 C.ar    1  UNL1        0.0215
     43 S          70.8357   93.4834   16.2564 S.3     1  UNL1       -0.1414
     44 C          68.1428   92.9406   15.9125 C.ar    1  UNL1        0.0059
     45 C          67.0574   92.2667   15.3447 C.ar    1  UNL1        0.0005
     46 H          70.8134   94.4739   15.2567 H       1  UNL1        0.1071
@<TRIPOS>BOND
     1    29    30    1
     2    30    31   ar
     3    31    25    1
     4    25    26    2
     5    25    27   am
     6    27     1    1
     7     1     2   ar
     8     2     3   ar
     9     3     4   ar
    10     4     7    1
    11     7     8    1
    12     8     9    1
    13     9    10    1
    14    10    13    1
    15    13    14    1
    16    14    15    1
    17    15    16   ar
    18    16    17   ar
    19    17    18   ar
    20    18    19   ar
    21    19    21    1
    22    21    22    2
    23    21    23    1
    24    19    20   ar
    25    10    11    1
    26    11    12    1
    27     4     5   ar
    28     5     6   ar
    29    31    32   ar
    30    32    33   ar
    31    33    34   ar
    32    34    35   ar
    33    35    36   ar
    34    36    39    1
    35    39    40   ar
    36    40    41   ar
    37    41    42   ar
    38    42    43    1
    39    42    44   ar
    40    44    45   ar
    41    36    37   ar
    42    37    38   ar
    43    38    30   ar
    44     6     1   ar
    45    38    33   ar
    46    12     7    1
    47    45    39   ar
    48    20    15   ar
    49    27    28    1
    50    23    24    1
    51    43    46    1
