@<TRIPOS>MOLECULE
*****
 53 58 0 0 0
SMALL
GASTEIGER

@<TRIPOS>ATOM
      1 N           9.9930   78.2994   25.3282 N.am    1  UNL1       -0.2945
      2 C           9.8139   78.5052   23.9175 C.2     1  UNL1        0.2483
      3 O          10.7076   79.0959   23.2507 O.2     1  UNL1       -0.2701
      4 H           9.4293   77.5502   25.7903 H       1  UNL1        0.1501
      5 C           8.6073   77.9995   23.2234 C.ar    1  UNL1        0.0808
      6 C           7.6926   77.1922   23.9208 C.ar    1  UNL1        0.0080
      7 C           6.5451   76.7076   23.2879 C.ar    1  UNL1        0.0148
      8 C           6.2955   77.0105   21.9407 C.ar    1  UNL1        0.0502
      9 C           7.2137   77.8037   21.2370 C.ar    1  UNL1        0.0443
     10 C           8.3626   78.2926   21.8671 C.ar    1  UNL1        0.1457
     11 F           9.2499   79.0127   21.1349 F       1  UNL1       -0.2040
     12 N           5.1141   76.5153   21.2829 N.pl3   1  UNL1       -0.3040
     13 C           3.9075   77.3465   21.2150 C.3     1  UNL1        0.1123
     14 C           2.6598   76.4815   21.3988 C.3     1  UNL1        0.1136
     15 N           2.7286   75.2966   20.5316 N.pl3   1  UNL1       -0.2897
     16 C           3.9454   74.4751   20.5831 C.3     1  UNL1        0.1136
     17 C           5.1870   75.3477   20.3982 C.3     1  UNL1        0.1123
     18 C           1.5520   74.7820   19.8756 C.ar    1  UNL1        0.1318
     19 C           1.1751   73.4349   20.0018 C.ar    1  UNL1        0.0343
     20 C           0.0305   72.9752   19.3487 C.ar    1  UNL1        0.0083
     21 C          -0.7268   73.8462   18.5514 C.ar    1  UNL1        0.0906
     22 C          -0.3263   75.1885   18.4652 C.ar    1  UNL1        0.1041
     23 N           0.7906   75.6141   19.1124 N.ar    1  UNL1       -0.2292
     24 C          -1.9921   73.3744   17.8814 C.3     1  UNL1        0.4200
     25 F          -2.0936   72.0024   18.0155 F       1  UNL1       -0.1658
     26 F          -1.9807   73.6965   16.5352 F       1  UNL1       -0.1658
     27 F          -3.1011   73.9675   18.4593 F       1  UNL1       -0.1658
     28 C          11.1129   78.8851   26.0727 C.3     1  UNL1        0.1535
     29 N          10.5524   78.8496   28.5584 N.am    1  UNL1       -0.2825
     30 C          10.6133   79.5773   27.3199 C.2     1  UNL1        0.2443
     31 O          10.2361   80.7796   27.2660 O.2     1  UNL1       -0.2730
     32 H          11.1435   77.9916   28.6424 H       1  UNL1        0.1549
     33 CA          8.9994   80.7928   31.3852 C.ar    1  UNL1        0.1577
     34 C           9.8598   80.4609   30.3250 C.ar    1  UNL1        0.0404
     35 C           9.7407   79.2110   29.6914 C.ar    1  UNL1        0.0536
     36 C           8.7467   78.3255   30.1273 C.ar    1  UNL1        0.0353
     37 C           7.9161   78.6840   31.1891 C.ar    1  UNL1        0.1003
     38 N           8.0582   79.8953   31.7865 N.ar    1  UNL1       -0.2372
     39 O           8.5640   82.2763   33.1917 O.2     1  UNL1       -0.2434
     40 C           9.0907   82.1052   32.0601 C.2     1  UNL1        0.3560
     41 OXT         9.7580   83.1728   31.4626 O.3     1  UNL1       -0.4761
     42 HXT        10.1997   83.0897   30.5551 H       1  UNL1        0.2955
     43 C          12.1325   77.7860   26.4184 C.3     1  UNL1        0.0569
     44 C          13.0010   77.4438   25.2397 C.ar    1  UNL1       -0.0017
     45 C          12.7116   76.5109   24.2479 C.ar    1  UNL1        0.0681
     46 N          13.6402   76.5611   23.2660 N.ar    1  UNL1       -0.3523
     47 C          14.5077   77.5236   23.6237 C.ar    1  UNL1        0.0563
     48 C          15.6150   77.9712   22.9043 C.ar    1  UNL1        0.0170
     49 C          16.3723   79.0237   23.4497 C.ar    1  UNL1        0.0015
     50 C          16.0107   79.5982   24.6878 C.ar    1  UNL1        0.0001
     51 C          14.8866   79.1280   25.3906 C.ar    1  UNL1        0.0012
     52 C          14.1528   78.0851   24.8237 C.ar    1  UNL1        0.0131
     53 H          13.6593   75.9865   22.3944 H       1  UNL1        0.1660
@<TRIPOS>BOND
     1    39    40    2
     2    40    41    1
     3    40    33    1
     4    33    34   ar
     5    34    35   ar
     6    35    29    1
     7    29    30   am
     8    30    31    2
     9    30    28    1
    10    28    43    1
    11    43    44    1
    12    44    45   ar
    13    45    46   ar
    14    46    47   ar
    15    47    48   ar
    16    48    49   ar
    17    49    50   ar
    18    50    51   ar
    19    51    52   ar
    20    28     1    1
    21     1     2   am
    22     2     3    2
    23     2     5    1
    24     5     6   ar
    25     6     7   ar
    26     7     8   ar
    27     8    12    1
    28    12    13    1
    29    13    14    1
    30    14    15    1
    31    15    18    1
    32    18    19   ar
    33    19    20   ar
    34    20    21   ar
    35    21    24    1
    36    24    25    1
    37    24    26    1
    38    24    27    1
    39    21    22   ar
    40    22    23   ar
    41    15    16    1
    42    16    17    1
    43     8     9   ar
    44     9    10   ar
    45    10    11    1
    46    35    36   ar
    47    36    37   ar
    48    37    38   ar
    49    38    33   ar
    50    52    44   ar
    51    10     5   ar
    52    52    47   ar
    53    17    12    1
    54    23    18   ar
    55    41    42    1
    56    29    32    1
    57    46    53    1
    58     1     4    1
@<TRIPOS>MOLECULE
*****
 53 58 0 0 0
SMALL
GASTEIGER

@<TRIPOS>ATOM
      1 N           7.8028   75.0411   25.4484 N.am    1  UNL1       -0.2945
      2 C           8.6648   75.7020   26.3890 C.2     1  UNL1        0.2483
      3 O           8.7888   75.2423   27.5574 O.2     1  UNL1       -0.2701
      4 H           7.9553   75.2237   24.4305 H       1  UNL1        0.1501
      5 C           9.4427   76.8991   25.9949 C.ar    1  UNL1        0.0808
      6 C          10.8065   76.7687   25.6821 C.ar    1  UNL1        0.0080
      7 C          11.5590   77.8833   25.3034 C.ar    1  UNL1        0.0148
      8 C          10.9655   79.1534   25.2419 C.ar    1  UNL1        0.0502
      9 C           9.6081   79.2900   25.5678 C.ar    1  UNL1        0.0443
     10 C           8.8505   78.1767   25.9455 C.ar    1  UNL1        0.1457
     11 F           7.5544   78.3624   26.3023 F       1  UNL1       -0.2040
     12 N          11.7352   80.3060   24.8511 N.pl3   1  UNL1       -0.3040
     13 C          13.1997   80.2335   24.8133 C.3     1  UNL1        0.1123
     14 C          13.8060   81.5446   25.3157 C.3     1  UNL1        0.1136
     15 N          13.1568   82.6900   24.6620 N.pl3   1  UNL1       -0.2897
     16 C          11.6893   82.7527   24.6806 C.3     1  UNL1        0.1136
     17 C          11.0921   81.4386   24.1768 C.3     1  UNL1        0.1123
     18 C          13.9123   83.8559   24.2756 C.ar    1  UNL1        0.1318
     19 C          14.0064   84.9774   25.1159 C.ar    1  UNL1        0.0343
     20 C          14.7452   86.0875   24.7041 C.ar    1  UNL1        0.0083
     21 C          15.3711   86.0943   23.4487 C.ar    1  UNL1        0.0906
     22 C          15.2673   84.9476   22.6463 C.ar    1  UNL1        0.1041
     23 N          14.5446   83.8772   23.0696 N.ar    1  UNL1       -0.2292
     24 C          16.2128   87.2667   23.0132 C.3     1  UNL1        0.4200
     25 F          17.4077   87.2519   23.7079 F       1  UNL1       -0.1658
     26 F          15.5577   88.4591   23.2678 F       1  UNL1       -0.1658
     27 F          16.4788   87.1998   21.6565 F       1  UNL1       -0.1658
     28 C           6.9282   73.9273   25.8308 C.3     1  UNL1        0.1535
     29 N           5.6618   75.7036   27.1481 N.am    1  UNL1       -0.2825
     30 C           6.0407   74.3260   26.9874 C.2     1  UNL1        0.2443
     31 O           5.6527   73.4559   27.8139 O.2     1  UNL1       -0.2730
     32 H           5.7301   76.3229   26.3088 H       1  UNL1        0.1549
     33 CA          5.5468   77.0743   30.6533 C.ar    1  UNL1        0.1577
     34 C           6.0273   76.4293   29.5011 C.ar    1  UNL1        0.0404
     35 C           5.1956   76.2958   28.3749 C.ar    1  UNL1        0.0536
     36 C           3.9009   76.8284   28.4252 C.ar    1  UNL1        0.0353
     37 C           3.4535   77.4539   29.5889 C.ar    1  UNL1        0.1003
     38 N           4.2765   77.5627   30.6637 N.ar    1  UNL1       -0.2372
     39 O           7.3638   78.0584   31.8295 O.2     1  UNL1       -0.2434
     40 C           6.4034   77.2433   31.8466 C.2     1  UNL1        0.3560
     41 OXT         6.1667   76.5099   33.0077 O.3     1  UNL1       -0.4761
     42 HXT         5.4082   75.8424   33.0758 H       1  UNL1        0.2955
     43 C           6.0928   73.4878   24.6158 C.3     1  UNL1        0.0569
     44 C           6.0048   74.5744   23.5803 C.ar    1  UNL1       -0.0017
     45 C           6.7385   74.6470   22.3996 C.ar    1  UNL1        0.0681
     46 N           6.3056   75.6761   21.6364 N.ar    1  UNL1       -0.3523
     47 C           5.2990   76.2479   22.3195 C.ar    1  UNL1        0.0563
     48 C           4.5088   77.3231   21.9153 C.ar    1  UNL1        0.0170
     49 C           3.4770   77.7412   22.7752 C.ar    1  UNL1        0.0015
     50 C           3.2610   77.0834   24.0058 C.ar    1  UNL1        0.0001
     51 C           4.0724   75.9994   24.3867 C.ar    1  UNL1        0.0012
     52 C           5.0861   75.6051   23.5123 C.ar    1  UNL1        0.0131
     53 H           6.6645   75.9496   20.6947 H       1  UNL1        0.1660
@<TRIPOS>BOND
     1    39    40    2
     2    40    41    1
     3    40    33    1
     4    33    34   ar
     5    34    35   ar
     6    35    29    1
     7    29    30   am
     8    30    31    2
     9    30    28    1
    10    28    43    1
    11    43    44    1
    12    44    45   ar
    13    45    46   ar
    14    46    47   ar
    15    47    48   ar
    16    48    49   ar
    17    49    50   ar
    18    50    51   ar
    19    51    52   ar
    20    28     1    1
    21     1     2   am
    22     2     3    2
    23     2     5    1
    24     5     6   ar
    25     6     7   ar
    26     7     8   ar
    27     8    12    1
    28    12    13    1
    29    13    14    1
    30    14    15    1
    31    15    18    1
    32    18    19   ar
    33    19    20   ar
    34    20    21   ar
    35    21    24    1
    36    24    25    1
    37    24    26    1
    38    24    27    1
    39    21    22   ar
    40    22    23   ar
    41    15    16    1
    42    16    17    1
    43     8     9   ar
    44     9    10   ar
    45    10    11    1
    46    35    36   ar
    47    36    37   ar
    48    37    38   ar
    49    38    33   ar
    50    52    44   ar
    51    10     5   ar
    52    52    47   ar
    53    17    12    1
    54    23    18   ar
    55    41    42    1
    56    29    32    1
    57    46    53    1
    58     1     4    1
@<TRIPOS>MOLECULE
*****
 53 58 0 0 0
SMALL
GASTEIGER

@<TRIPOS>ATOM
      1 N           8.6028   75.5123   25.0200 N.am    1  UNL1       -0.2945
      2 C           9.7264   75.9009   25.8268 C.2     1  UNL1        0.2483
      3 O          10.1434   75.1308   26.7351 O.2     1  UNL1       -0.2701
      4 H           8.4774   75.9816   24.0944 H       1  UNL1        0.1501
      5 C          10.4295   77.1815   25.5831 C.ar    1  UNL1        0.0808
      6 C           9.9730   78.3540   26.2089 C.ar    1  UNL1        0.0080
      7 C          10.6232   79.5723   25.9975 C.ar    1  UNL1        0.0148
      8 C          11.7362   79.6450   25.1458 C.ar    1  UNL1        0.0502
      9 C          12.1858   78.4797   24.5078 C.ar    1  UNL1        0.0443
     10 C          11.5391   77.2575   24.7180 C.ar    1  UNL1        0.1457
     11 F          11.9753   76.1655   24.0405 F       1  UNL1       -0.2040
     12 N          12.4117   80.8974   24.9247 N.pl3   1  UNL1       -0.3040
     13 C          13.8303   81.0383   25.2697 C.3     1  UNL1        0.1123
     14 C          14.0941   82.4232   25.8626 C.3     1  UNL1        0.1136
     15 N          13.4843   83.4626   25.0208 N.pl3   1  UNL1       -0.2897
     16 C          12.0692   83.3117   24.6569 C.3     1  UNL1        0.1136
     17 C          11.8149   81.9251   24.0652 C.3     1  UNL1        0.1123
     18 C          14.1432   84.7262   24.7998 C.ar    1  UNL1        0.1318
     19 C          14.6264   85.0863   23.5312 C.ar    1  UNL1        0.0343
     20 C          15.2609   86.3175   23.3591 C.ar    1  UNL1        0.0083
     21 C          15.4369   87.1810   24.4505 C.ar    1  UNL1        0.0906
     22 C          14.9244   86.7916   25.6976 C.ar    1  UNL1        0.1041
     23 N          14.3077   85.5889   25.8406 N.ar    1  UNL1       -0.2292
     24 C          16.0759   88.5342   24.2677 C.3     1  UNL1        0.4200
     25 F          16.0213   89.2281   25.4619 F       1  UNL1       -0.1658
     26 F          15.4121   89.2597   23.2936 F       1  UNL1       -0.1658
     27 F          17.3988   88.4016   23.8829 F       1  UNL1       -0.1658
     28 C           7.8081   74.3124   25.3037 C.3     1  UNL1        0.1535
     29 N           6.7234   74.5717   27.5950 N.am    1  UNL1       -0.2825
     30 C           6.6153   74.6603   26.1640 C.2     1  UNL1        0.2443
     31 O           5.5289   75.0076   25.6256 O.2     1  UNL1       -0.2730
     32 H           7.6837   74.5897   28.0074 H       1  UNL1        0.1549
     33 CA          3.9678   75.4266   30.0146 C.ar    1  UNL1        0.1577
     34 C           5.0958   75.5740   29.1898 C.ar    1  UNL1        0.0404
     35 C           5.6119   74.4602   28.5034 C.ar    1  UNL1        0.0536
     36 C           4.9723   73.2224   28.6485 C.ar    1  UNL1        0.0353
     37 C           3.8603   73.1104   29.4832 C.ar    1  UNL1        0.1003
     38 N           3.3877   74.2017   30.1389 N.ar    1  UNL1       -0.2372
     39 O           4.1253   77.5541   31.0646 O.2     1  UNL1       -0.2434
     40 C           3.3937   76.5825   30.7362 C.2     1  UNL1        0.3560
     41 OXT         2.0400   76.6211   31.0647 O.3     1  UNL1       -0.4761
     42 HXT         1.4074   75.8679   30.8240 H       1  UNL1        0.2955
     43 C           7.3677   73.6618   23.9808 C.3     1  UNL1        0.0569
     44 C           8.3445   73.9411   22.8725 C.ar    1  UNL1       -0.0017
     45 C           8.2287   74.9351   21.9049 C.ar    1  UNL1        0.0681
     46 N           9.3517   74.9973   21.1540 N.ar    1  UNL1       -0.3523
     47 C          10.1795   74.0586   21.6447 C.ar    1  UNL1        0.0563
     48 C          11.4775   73.7744   21.2225 C.ar    1  UNL1        0.0170
     49 C          12.1859   72.7687   21.9049 C.ar    1  UNL1        0.0015
     50 C          11.5878   72.0772   22.9809 C.ar    1  UNL1        0.0001
     51 C          10.2771   72.3870   23.3869 C.ar    1  UNL1        0.0012
     52 C           9.6001   73.3911   22.6935 C.ar    1  UNL1        0.0131
     53 H           9.5438   75.6612   20.3713 H       1  UNL1        0.1660
@<TRIPOS>BOND
     1    39    40    2
     2    40    41    1
     3    40    33    1
     4    33    34   ar
     5    34    35   ar
     6    35    29    1
     7    29    30   am
     8    30    31    2
     9    30    28    1
    10    28    43    1
    11    43    44    1
    12    44    45   ar
    13    45    46   ar
    14    46    47   ar
    15    47    48   ar
    16    48    49   ar
    17    49    50   ar
    18    50    51   ar
    19    51    52   ar
    20    28     1    1
    21     1     2   am
    22     2     3    2
    23     2     5    1
    24     5     6   ar
    25     6     7   ar
    26     7     8   ar
    27     8    12    1
    28    12    13    1
    29    13    14    1
    30    14    15    1
    31    15    18    1
    32    18    19   ar
    33    19    20   ar
    34    20    21   ar
    35    21    24    1
    36    24    25    1
    37    24    26    1
    38    24    27    1
    39    21    22   ar
    40    22    23   ar
    41    15    16    1
    42    16    17    1
    43     8     9   ar
    44     9    10   ar
    45    10    11    1
    46    35    36   ar
    47    36    37   ar
    48    37    38   ar
    49    38    33   ar
    50    52    44   ar
    51    10     5   ar
    52    52    47   ar
    53    17    12    1
    54    23    18   ar
    55    41    42    1
    56    29    32    1
    57    46    53    1
    58     1     4    1
@<TRIPOS>MOLECULE
*****
 53 58 0 0 0
SMALL
GASTEIGER

@<TRIPOS>ATOM
      1 N           8.2341   75.6434   24.6504 N.am    1  UNL1       -0.2945
      2 C           9.2103   76.0783   25.6108 C.2     1  UNL1        0.2483
      3 O           9.4289   75.3848   26.6420 O.2     1  UNL1       -0.2701
      4 H           8.2938   76.0292   23.6807 H       1  UNL1        0.1501
      5 C           9.9945   77.3151   25.3898 C.ar    1  UNL1        0.0808
      6 C           9.5018   78.5432   25.8631 C.ar    1  UNL1        0.0080
      7 C          10.2264   79.7220   25.6701 C.ar    1  UNL1        0.0148
      8 C          11.4530   79.6983   24.9889 C.ar    1  UNL1        0.0502
      9 C          11.9409   78.4767   24.5020 C.ar    1  UNL1        0.0443
     10 C          11.2198   77.2939   24.6945 C.ar    1  UNL1        0.1457
     11 F          11.7033   76.1431   24.1619 F       1  UNL1       -0.2040
     12 N          12.2054   80.9096   24.7879 N.pl3   1  UNL1       -0.3040
     13 C          13.6157   80.9735   25.1860 C.3     1  UNL1        0.1123
     14 C          13.9340   82.3454   25.7821 C.3     1  UNL1        0.1136
     15 N          13.4156   83.4116   24.9130 N.pl3   1  UNL1       -0.2897
     16 C          12.0090   83.3374   24.4962 C.3     1  UNL1        0.1136
     17 C          11.7000   81.9632   23.9016 C.3     1  UNL1        0.1123
     18 C          14.1520   84.6349   24.7114 C.ar    1  UNL1        0.1318
     19 C          14.7370   84.9399   23.4715 C.ar    1  UNL1        0.0343
     20 C          15.4442   86.1333   23.3177 C.ar    1  UNL1        0.0083
     21 C          15.5911   87.0128   24.4006 C.ar    1  UNL1        0.0906
     22 C          14.9769   86.6796   25.6177 C.ar    1  UNL1        0.1041
     23 N          14.2908   85.5130   25.7431 N.ar    1  UNL1       -0.2292
     24 C          16.3098   88.3275   24.2340 C.3     1  UNL1        0.4200
     25 F          16.5620   88.8693   25.4804 F       1  UNL1       -0.1658
     26 F          15.5393   89.2156   23.5035 F       1  UNL1       -0.1658
     27 F          17.5102   88.1471   23.5691 F       1  UNL1       -0.1658
     28 C           7.3560   74.4926   24.8872 C.3     1  UNL1        0.1535
     29 N           5.2076   75.6183   24.1053 N.am    1  UNL1       -0.2825
     30 C           5.9405   74.9534   25.1483 C.2     1  UNL1        0.2443
     31 O           5.4162   74.7703   26.2808 O.2     1  UNL1       -0.2730
     32 H           5.5350   75.4787   23.1224 H       1  UNL1        0.1549
     33 CA          2.1071   77.6665   23.4968 C.ar    1  UNL1        0.1577
     34 C           3.2568   76.9004   23.2406 C.ar    1  UNL1        0.0404
     35 C           4.0581   76.4610   24.3096 C.ar    1  UNL1        0.0536
     36 C           3.6774   76.7884   25.6173 C.ar    1  UNL1        0.0353
     37 C           2.5350   77.5588   25.8343 C.ar    1  UNL1        0.1003
     38 N           1.7836   77.9748   24.7823 N.ar    1  UNL1       -0.2372
     39 O           1.4789   79.2173   21.8073 O.2     1  UNL1       -0.2434
     40 C           1.2370   78.1291   22.3944 C.2     1  UNL1        0.3560
     41 OXT         0.1390   77.3754   21.9841 O.3     1  UNL1       -0.4761
     42 HXT        -0.1001   76.4935   22.4208 H       1  UNL1        0.2955
     43 C           7.4163   73.5416   23.6792 C.3     1  UNL1        0.0569
     44 C           8.4975   73.9392   22.7130 C.ar    1  UNL1       -0.0017
     45 C           8.4892   75.0571   21.8836 C.ar    1  UNL1        0.0681
     46 N           9.6788   75.1874   21.2537 N.ar    1  UNL1       -0.3523
     47 C          10.4415   74.1681   21.6851 C.ar    1  UNL1        0.0563
     48 C          11.7688   73.9061   21.3482 C.ar    1  UNL1        0.0170
     49 C          12.3937   72.7981   21.9488 C.ar    1  UNL1        0.0015
     50 C          11.6859   71.9856   22.8614 C.ar    1  UNL1        0.0001
     51 C          10.3480   72.2755   23.1847 C.ar    1  UNL1        0.0012
     52 C           9.7554   73.3825   22.5758 C.ar    1  UNL1        0.0131
     53 H           9.9543   75.9447   20.5897 H       1  UNL1        0.1660
@<TRIPOS>BOND
     1    39    40    2
     2    40    41    1
     3    40    33    1
     4    33    34   ar
     5    34    35   ar
     6    35    29    1
     7    29    30   am
     8    30    31    2
     9    30    28    1
    10    28    43    1
    11    43    44    1
    12    44    45   ar
    13    45    46   ar
    14    46    47   ar
    15    47    48   ar
    16    48    49   ar
    17    49    50   ar
    18    50    51   ar
    19    51    52   ar
    20    28     1    1
    21     1     2   am
    22     2     3    2
    23     2     5    1
    24     5     6   ar
    25     6     7   ar
    26     7     8   ar
    27     8    12    1
    28    12    13    1
    29    13    14    1
    30    14    15    1
    31    15    18    1
    32    18    19   ar
    33    19    20   ar
    34    20    21   ar
    35    21    24    1
    36    24    25    1
    37    24    26    1
    38    24    27    1
    39    21    22   ar
    40    22    23   ar
    41    15    16    1
    42    16    17    1
    43     8     9   ar
    44     9    10   ar
    45    10    11    1
    46    35    36   ar
    47    36    37   ar
    48    37    38   ar
    49    38    33   ar
    50    52    44   ar
    51    10     5   ar
    52    52    47   ar
    53    17    12    1
    54    23    18   ar
    55    41    42    1
    56    29    32    1
    57    46    53    1
    58     1     4    1
@<TRIPOS>MOLECULE
*****
 53 58 0 0 0
SMALL
GASTEIGER

@<TRIPOS>ATOM
      1 N          10.9279   78.6185   24.3932 N.am    1  UNL1       -0.2945
      2 C          10.8432   77.5494   23.4371 C.2     1  UNL1        0.2483
      3 O          11.8824   76.9091   23.1174 O.2     1  UNL1       -0.2701
      4 H          10.0511   78.9109   24.8815 H       1  UNL1        0.1501
      5 C           9.5421   77.1608   22.8456 C.ar    1  UNL1        0.0808
      6 C           9.0820   77.8150   21.6901 C.ar    1  UNL1        0.0080
      7 C           7.8600   77.4621   21.1121 C.ar    1  UNL1        0.0148
      8 C           7.0673   76.4559   21.6853 C.ar    1  UNL1        0.0502
      9 C           7.5163   75.8110   22.8472 C.ar    1  UNL1        0.0443
     10 C           8.7398   76.1597   23.4281 C.ar    1  UNL1        0.1457
     11 F           9.1112   75.5465   24.5805 F       1  UNL1       -0.2040
     12 N           5.8074   76.0865   21.0938 N.pl3   1  UNL1       -0.3040
     13 C           4.7547   77.0927   20.9184 C.3     1  UNL1        0.1123
     14 C           3.3844   76.4787   21.2087 C.3     1  UNL1        0.1136
     15 N           3.2384   75.1994   20.4995 N.pl3   1  UNL1       -0.2897
     16 C           4.3025   74.1991   20.6573 C.3     1  UNL1        0.1136
     17 C           5.6681   74.8214   20.3651 C.3     1  UNL1        0.1123
     18 C           1.9801   74.8105   19.9123 C.ar    1  UNL1        0.1318
     19 C           1.2023   75.7225   19.1802 C.ar    1  UNL1        0.0343
     20 C          -0.0113   75.3076   18.6299 C.ar    1  UNL1        0.0083
     21 C          -0.4645   73.9945   18.8258 C.ar    1  UNL1        0.0906
     22 C           0.3502   73.1094   19.5486 C.ar    1  UNL1        0.1041
     23 N           1.5296   73.5354   20.0729 N.ar    1  UNL1       -0.2292
     24 C          -1.7489   73.5200   18.1951 C.3     1  UNL1        0.4200
     25 F          -1.7599   72.1381   18.1697 F       1  UNL1       -0.1658
     26 F          -1.8617   73.9961   16.9003 F       1  UNL1       -0.1658
     27 F          -2.8418   73.9667   18.9175 F       1  UNL1       -0.1658
     28 C          12.2088   79.1106   24.9116 C.3     1  UNL1        0.1535
     29 N          13.4606   81.3296   24.9697 N.am    1  UNL1       -0.2825
     30 C          12.2096   80.6209   24.9701 C.2     1  UNL1        0.2443
     31 O          11.1187   81.2502   25.0373 O.2     1  UNL1       -0.2730
     32 H          14.3005   80.8237   24.6075 H       1  UNL1        0.1549
     33 CA         14.1927   84.3075   27.1548 C.ar    1  UNL1        0.1577
     34 C          13.9558   82.9773   26.7687 C.ar    1  UNL1        0.0404
     35 C          13.6457   82.6815   25.4293 C.ar    1  UNL1        0.0536
     36 C          13.5958   83.7293   24.5009 C.ar    1  UNL1        0.0353
     37 C          13.8270   85.0392   24.9210 C.ar    1  UNL1        0.1003
     38 N          14.1179   85.2961   26.2224 N.ar    1  UNL1       -0.2372
     39 O          13.9322   85.5793   29.1469 O.2     1  UNL1       -0.2434
     40 C          14.5361   84.6470   28.5524 C.2     1  UNL1        0.3560
     41 OXT        15.5276   83.9465   29.2366 O.3     1  UNL1       -0.4761
     42 HXT        16.0430   83.1881   28.8068 H       1  UNL1        0.2955
     43 C          12.4709   78.5011   26.2998 C.3     1  UNL1        0.0569
     44 C          11.3139   77.6611   26.7648 C.ar    1  UNL1       -0.0017
     45 C          11.3101   76.2774   26.9159 C.ar    1  UNL1        0.0681
     46 N          10.1555   75.8673   27.4882 N.ar    1  UNL1       -0.3523
     47 C           9.4343   76.9800   27.7090 C.ar    1  UNL1        0.0563
     48 C           8.1854   77.0679   28.3226 C.ar    1  UNL1        0.0170
     49 C           7.6221   78.3463   28.4876 C.ar    1  UNL1        0.0015
     50 C           8.3112   79.4947   28.0403 C.ar    1  UNL1        0.0001
     51 C           9.5715   79.3760   27.4269 C.ar    1  UNL1        0.0012
     52 C          10.1066   78.0956   27.2794 C.ar    1  UNL1        0.0131
     53 H           9.8938   74.8867   27.7335 H       1  UNL1        0.1660
@<TRIPOS>BOND
     1    39    40    2
     2    40    41    1
     3    40    33    1
     4    33    34   ar
     5    34    35   ar
     6    35    29    1
     7    29    30   am
     8    30    31    2
     9    30    28    1
    10    28    43    1
    11    43    44    1
    12    44    45   ar
    13    45    46   ar
    14    46    47   ar
    15    47    48   ar
    16    48    49   ar
    17    49    50   ar
    18    50    51   ar
    19    51    52   ar
    20    28     1    1
    21     1     2   am
    22     2     3    2
    23     2     5    1
    24     5     6   ar
    25     6     7   ar
    26     7     8   ar
    27     8    12    1
    28    12    13    1
    29    13    14    1
    30    14    15    1
    31    15    18    1
    32    18    19   ar
    33    19    20   ar
    34    20    21   ar
    35    21    24    1
    36    24    25    1
    37    24    26    1
    38    24    27    1
    39    21    22   ar
    40    22    23   ar
    41    15    16    1
    42    16    17    1
    43     8     9   ar
    44     9    10   ar
    45    10    11    1
    46    35    36   ar
    47    36    37   ar
    48    37    38   ar
    49    38    33   ar
    50    52    44   ar
    51    10     5   ar
    52    52    47   ar
    53    17    12    1
    54    23    18   ar
    55    41    42    1
    56    29    32    1
    57    46    53    1
    58     1     4    1
@<TRIPOS>MOLECULE
*****
 53 58 0 0 0
SMALL
GASTEIGER

@<TRIPOS>ATOM
      1 N           7.8895   75.1117   24.7430 N.am    1  UNL1       -0.2945
      2 C           8.8981   75.5599   25.6630 C.2     1  UNL1        0.2483
      3 O           9.1867   74.8564   26.6699 O.2     1  UNL1       -0.2701
      4 H           7.8907   75.5150   23.7787 H       1  UNL1        0.1501
      5 C           9.6341   76.8232   25.4267 C.ar    1  UNL1        0.0808
      6 C          11.0311   76.7949   25.2763 C.ar    1  UNL1        0.0080
      7 C          11.7457   77.9735   25.0480 C.ar    1  UNL1        0.0148
      8 C          11.0789   79.2062   24.9778 C.ar    1  UNL1        0.0502
      9 C           9.6863   79.2404   25.1422 C.ar    1  UNL1        0.0443
     10 C           8.9666   78.0628   25.3690 C.ar    1  UNL1        0.1457
     11 F           7.6278   78.1477   25.5741 F       1  UNL1       -0.2040
     12 N          11.8095   80.4245   24.7415 N.pl3   1  UNL1       -0.3040
     13 C          13.2753   80.4244   24.7934 C.3     1  UNL1        0.1123
     14 C          13.7802   81.7110   25.4481 C.3     1  UNL1        0.1136
     15 N          13.1128   82.8797   24.8569 N.pl3   1  UNL1       -0.2897
     16 C          11.6457   82.8717   24.7849 C.3     1  UNL1        0.1136
     17 C          11.1501   81.5827   24.1291 C.3     1  UNL1        0.1123
     18 C          13.8282   84.1101   24.6252 C.ar    1  UNL1        0.1318
     19 C          14.4385   84.3791   23.3891 C.ar    1  UNL1        0.0343
     20 C          15.1241   85.5809   23.2057 C.ar    1  UNL1        0.0083
     21 C          15.2242   86.5053   24.2560 C.ar    1  UNL1        0.0906
     22 C          14.5859   86.2066   25.4697 C.ar    1  UNL1        0.1041
     23 N          13.9216   85.0310   25.6242 N.ar    1  UNL1       -0.2292
     24 C          15.9190   87.8281   24.0552 C.3     1  UNL1        0.4200
     25 F          15.2356   88.5611   23.1032 F       1  UNL1       -0.1658
     26 F          17.2211   87.6353   23.6271 F       1  UNL1       -0.1658
     27 F          15.9538   88.5460   25.2381 F       1  UNL1       -0.1658
     28 C           7.0580   73.9312   25.0012 C.3     1  UNL1        0.1535
     29 N           6.2426   75.3400   26.9619 N.am    1  UNL1       -0.2825
     30 C           6.3783   74.0479   26.3460 C.2     1  UNL1        0.2443
     31 O           5.9510   73.0142   26.9287 O.2     1  UNL1       -0.2730
     32 H           6.3150   76.1788   26.3424 H       1  UNL1        0.1549
     33 CA          4.6665   76.3900   30.2164 C.ar    1  UNL1        0.1577
     34 C           4.8782   76.2507   28.8343 C.ar    1  UNL1        0.0404
     35 C           6.0147   75.5678   28.3652 C.ar    1  UNL1        0.0536
     36 C           6.9080   75.0245   29.2974 C.ar    1  UNL1        0.0353
     37 C           6.6716   75.1900   30.6621 C.ar    1  UNL1        0.1003
     38 N           5.5690   75.8599   31.0863 N.ar    1  UNL1       -0.2372
     39 O           2.3405   76.5396   30.6866 O.2     1  UNL1       -0.2434
     40 C           3.4730   77.0891   30.7391 C.2     1  UNL1        0.3560
     41 OXT         3.5759   78.3615   31.2980 O.3     1  UNL1       -0.4761
     42 HXT         4.4614   78.8481   31.3659 H       1  UNL1        0.2955
     43 C           6.0273   73.7700   23.8702 C.3     1  UNL1        0.0569
     44 C           5.6457   75.0963   23.2737 C.ar    1  UNL1       -0.0017
     45 C           6.1016   75.6168   22.0659 C.ar    1  UNL1        0.0681
     46 N           5.4465   76.7615   21.7669 N.ar    1  UNL1       -0.3523
     47 C           4.5743   76.9635   22.7696 C.ar    1  UNL1        0.0563
     48 C           3.6452   77.9966   22.8842 C.ar    1  UNL1        0.0170
     49 C           2.7967   77.9968   24.0063 C.ar    1  UNL1        0.0015
     50 C           2.8953   76.9768   24.9777 C.ar    1  UNL1        0.0001
     51 C           3.8407   75.9451   24.8346 C.ar    1  UNL1        0.0012
     52 C           4.6666   75.9693   23.7100 C.ar    1  UNL1        0.0131
     53 H           5.5752   77.3504   20.9143 H       1  UNL1        0.1660
@<TRIPOS>BOND
     1    39    40    2
     2    40    41    1
     3    40    33    1
     4    33    34   ar
     5    34    35   ar
     6    35    29    1
     7    29    30   am
     8    30    31    2
     9    30    28    1
    10    28    43    1
    11    43    44    1
    12    44    45   ar
    13    45    46   ar
    14    46    47   ar
    15    47    48   ar
    16    48    49   ar
    17    49    50   ar
    18    50    51   ar
    19    51    52   ar
    20    28     1    1
    21     1     2   am
    22     2     3    2
    23     2     5    1
    24     5     6   ar
    25     6     7   ar
    26     7     8   ar
    27     8    12    1
    28    12    13    1
    29    13    14    1
    30    14    15    1
    31    15    18    1
    32    18    19   ar
    33    19    20   ar
    34    20    21   ar
    35    21    24    1
    36    24    25    1
    37    24    26    1
    38    24    27    1
    39    21    22   ar
    40    22    23   ar
    41    15    16    1
    42    16    17    1
    43     8     9   ar
    44     9    10   ar
    45    10    11    1
    46    35    36   ar
    47    36    37   ar
    48    37    38   ar
    49    38    33   ar
    50    52    44   ar
    51    10     5   ar
    52    52    47   ar
    53    17    12    1
    54    23    18   ar
    55    41    42    1
    56    29    32    1
    57    46    53    1
    58     1     4    1
@<TRIPOS>MOLECULE
*****
 53 58 0 0 0
SMALL
GASTEIGER

@<TRIPOS>ATOM
      1 N           9.9523   75.3302   26.2790 N.am    1  UNL1       -0.2945
      2 C          10.0063   75.2021   24.8489 C.2     1  UNL1        0.2483
      3 O          11.1236   75.1527   24.2647 O.2     1  UNL1       -0.2701
      4 H           9.0708   75.0471   26.7642 H       1  UNL1        0.1501
      5 C           8.7649   75.0892   24.0492 C.ar    1  UNL1        0.0808
      6 C           7.7913   76.0992   24.1325 C.ar    1  UNL1        0.0080
      7 C           6.6146   76.0162   23.3839 C.ar    1  UNL1        0.0148
      8 C           6.3822   74.9149   22.5459 C.ar    1  UNL1        0.0502
      9 C           7.3449   73.8975   22.4713 C.ar    1  UNL1        0.0443
     10 C           8.5251   73.9774   23.2175 C.ar    1  UNL1        0.1457
     11 F           9.4054   72.9464   23.1551 F       1  UNL1       -0.2040
     12 N           5.1720   74.8240   21.7706 N.pl3   1  UNL1       -0.3040
     13 C           4.3017   75.9957   21.6264 C.3     1  UNL1        0.1123
     14 C           2.8332   75.5709   21.6705 C.3     1  UNL1        0.1136
     15 N           2.6054   74.4300   20.7721 N.pl3   1  UNL1       -0.2897
     16 C           3.4899   73.2643   20.9013 C.3     1  UNL1        0.1136
     17 C           4.9552   73.6982   20.8558 C.3     1  UNL1        0.1123
     18 C           1.3935   74.3191   19.9985 C.ar    1  UNL1        0.1318
     19 C           0.8639   75.4215   19.3078 C.ar    1  UNL1        0.0343
     20 C          -0.3129   75.2737   18.5722 C.ar    1  UNL1        0.0083
     21 C          -0.9771   74.0385   18.5411 C.ar    1  UNL1        0.0906
     22 C          -0.4061   72.9575   19.2304 C.ar    1  UNL1        0.1041
     23 N           0.7423   73.1245   19.9379 N.ar    1  UNL1       -0.2292
     24 C          -2.2213   73.8528   17.7104 C.3     1  UNL1        0.4200
     25 F          -2.7329   72.5882   17.9336 F       1  UNL1       -0.1658
     26 F          -1.9341   73.9921   16.3636 F       1  UNL1       -0.1658
     27 F          -3.1791   74.7931   18.0485 F       1  UNL1       -0.1658
     28 C          11.1497   75.5627   27.0938 C.3     1  UNL1        0.1535
     29 N          12.0369   77.4096   25.5787 N.am    1  UNL1       -0.2825
     30 C          11.6583   76.9719   26.8948 C.2     1  UNL1        0.2443
     31 O          11.7658   77.7491   27.8823 O.2     1  UNL1       -0.2730
     32 H          11.6545   76.8761   24.7652 H       1  UNL1        0.1549
     33 CA         13.2877   80.8913   24.8771 C.ar    1  UNL1        0.1577
     34 C          12.3995   79.8225   25.0852 C.ar    1  UNL1        0.0404
     35 C          12.9013   78.5255   25.2946 C.ar    1  UNL1        0.0536
     36 C          14.2888   78.3325   25.3063 C.ar    1  UNL1        0.0353
     37 C          15.1410   79.4147   25.0867 C.ar    1  UNL1        0.1003
     38 N          14.6280   80.6552   24.8806 N.ar    1  UNL1       -0.2372
     39 O          13.5686   83.1714   24.2638 O.2     1  UNL1       -0.2434
     40 C          12.7898   82.2681   24.6698 C.2     1  UNL1        0.3560
     41 OXT        11.4572   82.5924   24.9165 O.3     1  UNL1       -0.4761
     42 HXT        10.7889   81.9051   25.2428 H       1  UNL1        0.2955
     43 C          10.8260   75.2930   28.5736 C.3     1  UNL1        0.0569
     44 C           9.3563   75.4376   28.8558 C.ar    1  UNL1       -0.0017
     45 C           8.3915   74.4430   28.7237 C.ar    1  UNL1        0.0681
     46 N           7.2004   74.8736   29.1979 N.ar    1  UNL1       -0.3523
     47 C           7.4064   76.1272   29.6372 C.ar    1  UNL1        0.0563
     48 C           6.4803   76.9684   30.2524 C.ar    1  UNL1        0.0170
     49 C           6.9205   78.2372   30.6711 C.ar    1  UNL1        0.0015
     50 C           8.2607   78.6324   30.4674 C.ar    1  UNL1        0.0001
     51 C           9.1741   77.7616   29.8462 C.ar    1  UNL1        0.0012
     52 C           8.7097   76.5085   29.4442 C.ar    1  UNL1        0.0131
     53 H           6.3106   74.3288   29.2390 H       1  UNL1        0.1660
@<TRIPOS>BOND
     1    39    40    2
     2    40    41    1
     3    40    33    1
     4    33    34   ar
     5    34    35   ar
     6    35    29    1
     7    29    30   am
     8    30    31    2
     9    30    28    1
    10    28    43    1
    11    43    44    1
    12    44    45   ar
    13    45    46   ar
    14    46    47   ar
    15    47    48   ar
    16    48    49   ar
    17    49    50   ar
    18    50    51   ar
    19    51    52   ar
    20    28     1    1
    21     1     2   am
    22     2     3    2
    23     2     5    1
    24     5     6   ar
    25     6     7   ar
    26     7     8   ar
    27     8    12    1
    28    12    13    1
    29    13    14    1
    30    14    15    1
    31    15    18    1
    32    18    19   ar
    33    19    20   ar
    34    20    21   ar
    35    21    24    1
    36    24    25    1
    37    24    26    1
    38    24    27    1
    39    21    22   ar
    40    22    23   ar
    41    15    16    1
    42    16    17    1
    43     8     9   ar
    44     9    10   ar
    45    10    11    1
    46    35    36   ar
    47    36    37   ar
    48    37    38   ar
    49    38    33   ar
    50    52    44   ar
    51    10     5   ar
    52    52    47   ar
    53    17    12    1
    54    23    18   ar
    55    41    42    1
    56    29    32    1
    57    46    53    1
    58     1     4    1
@<TRIPOS>MOLECULE
*****
 53 58 0 0 0
SMALL
GASTEIGER

@<TRIPOS>ATOM
      1 N          10.2371   78.8103   24.9005 N.am    1  UNL1       -0.2945
      2 C           9.8426   79.1592   23.5637 C.2     1  UNL1        0.2483
      3 O          10.5376   79.9738   22.8963 O.2     1  UNL1       -0.2701
      4 H           9.8624   77.9232   25.3071 H       1  UNL1        0.1501
      5 C           8.6472   78.5462   22.9403 C.ar    1  UNL1        0.0808
      6 C           8.2865   78.9048   21.6302 C.ar    1  UNL1        0.0080
      7 C           7.1656   78.3360   21.0203 C.ar    1  UNL1        0.0148
      8 C           6.3754   77.4060   21.7129 C.ar    1  UNL1        0.0502
      9 C           6.7236   77.0566   23.0259 C.ar    1  UNL1        0.0443
     10 C           7.8459   77.6220   23.6398 C.ar    1  UNL1        0.1457
     11 F           8.1164   77.2951   24.9289 F       1  UNL1       -0.2040
     12 N           5.2196   76.8151   21.0894 N.pl3   1  UNL1       -0.3040
     13 C           4.1267   77.6676   20.6097 C.3     1  UNL1        0.1123
     14 C           2.7779   77.0010   20.8844 C.3     1  UNL1        0.1136
     15 N           2.8023   75.5996   20.4416 N.pl3   1  UNL1       -0.2897
     16 C           3.9080   74.7503   20.9043 C.3     1  UNL1        0.1136
     17 C           5.2517   75.4241   20.6254 C.3     1  UNL1        0.1123
     18 C           1.6489   74.9906   19.8266 C.ar    1  UNL1        0.1318
     19 C           1.3784   73.6206   19.9767 C.ar    1  UNL1        0.0343
     20 C           0.2529   73.0687   19.3630 C.ar    1  UNL1        0.0083
     21 C          -0.5911   73.8712   18.5811 C.ar    1  UNL1        0.0906
     22 C          -0.2956   75.2387   18.4703 C.ar    1  UNL1        0.1041
     23 N           0.8046   75.7543   19.0792 N.ar    1  UNL1       -0.2292
     24 C          -1.8366   73.2981   17.9542 C.3     1  UNL1        0.4200
     25 F          -1.8732   73.6440   16.6164 F       1  UNL1       -0.1658
     26 F          -2.9689   73.7917   18.5790 F       1  UNL1       -0.1658
     27 F          -1.8481   71.9184   18.0640 F       1  UNL1       -0.1658
     28 C          11.3420   79.4803   25.5948 C.3     1  UNL1        0.1535
     29 N          10.7189   79.0022   28.0191 N.am    1  UNL1       -0.2825
     30 C          10.8974   79.9564   26.9585 C.2     1  UNL1        0.2443
     31 O          10.6678   81.1809   27.1553 O.2     1  UNL1       -0.2730
     32 H          11.2011   78.0798   27.9232 H       1  UNL1        0.1549
     33 CA          9.0607   80.6417   30.9756 C.ar    1  UNL1        0.1577
     34 C           9.8997   80.4600   29.8631 C.ar    1  UNL1        0.0404
     35 C           9.9278   79.2188   29.2025 C.ar    1  UNL1        0.0536
     36 C           9.0985   78.1891   29.6653 C.ar    1  UNL1        0.0353
     37 C           8.2853   78.4015   30.7785 C.ar    1  UNL1        0.1003
     38 N           8.2834   79.6086   31.4008 N.ar    1  UNL1       -0.2372
     39 O           8.9098   81.9777   32.9368 O.2     1  UNL1       -0.2434
     40 C           8.9983   81.9400   31.6806 C.2     1  UNL1        0.3560
     41 OXT         9.0370   83.1408   30.9746 O.3     1  UNL1       -0.4761
     42 HXT         9.1086   83.1679   29.9648 H       1  UNL1        0.2955
     43 C          12.5389   78.5197   25.7051 C.3     1  UNL1        0.0569
     44 C          12.5756   77.5447   24.5612 C.ar    1  UNL1       -0.0017
     45 C          13.4955   77.5364   23.5165 C.ar    1  UNL1        0.0681
     46 N          13.3242   76.4394   22.7443 N.ar    1  UNL1       -0.3523
     47 C          12.3113   75.7501   23.2972 C.ar    1  UNL1        0.0563
     48 C          11.7980   74.5233   22.8783 C.ar    1  UNL1        0.0170
     49 C          10.7527   73.9564   23.6298 C.ar    1  UNL1        0.0015
     50 C          10.2491   74.6209   24.7694 C.ar    1  UNL1        0.0001
     51 C          10.7883   75.8567   25.1703 C.ar    1  UNL1        0.0012
     52 C          11.8263   76.3932   24.4073 C.ar    1  UNL1        0.0131
     53 H          13.8864   76.1717   21.9061 H       1  UNL1        0.1660
@<TRIPOS>BOND
     1    39    40    2
     2    40    41    1
     3    40    33    1
     4    33    34   ar
     5    34    35   ar
     6    35    29    1
     7    29    30   am
     8    30    31    2
     9    30    28    1
    10    28    43    1
    11    43    44    1
    12    44    45   ar
    13    45    46   ar
    14    46    47   ar
    15    47    48   ar
    16    48    49   ar
    17    49    50   ar
    18    50    51   ar
    19    51    52   ar
    20    28     1    1
    21     1     2   am
    22     2     3    2
    23     2     5    1
    24     5     6   ar
    25     6     7   ar
    26     7     8   ar
    27     8    12    1
    28    12    13    1
    29    13    14    1
    30    14    15    1
    31    15    18    1
    32    18    19   ar
    33    19    20   ar
    34    20    21   ar
    35    21    24    1
    36    24    25    1
    37    24    26    1
    38    24    27    1
    39    21    22   ar
    40    22    23   ar
    41    15    16    1
    42    16    17    1
    43     8     9   ar
    44     9    10   ar
    45    10    11    1
    46    35    36   ar
    47    36    37   ar
    48    37    38   ar
    49    38    33   ar
    50    52    44   ar
    51    10     5   ar
    52    52    47   ar
    53    17    12    1
    54    23    18   ar
    55    41    42    1
    56    29    32    1
    57    46    53    1
    58     1     4    1
@<TRIPOS>MOLECULE
*****
 53 58 0 0 0
SMALL
GASTEIGER

@<TRIPOS>ATOM
      1 N           8.0930   75.2653   25.3482 N.am    1  UNL1       -0.2945
      2 C           9.1035   75.7929   26.2230 C.2     1  UNL1        0.2483
      3 O           9.3935   75.1815   27.2879 O.2     1  UNL1       -0.2701
      4 H           8.0926   75.5813   24.3519 H       1  UNL1        0.1501
      5 C           9.8397   77.0296   25.8740 C.ar    1  UNL1        0.0808
      6 C          11.2386   77.0646   26.0035 C.ar    1  UNL1        0.0080
      7 C          11.9545   78.2187   25.6757 C.ar    1  UNL1        0.0148
      8 C          11.2844   79.3657   25.2235 C.ar    1  UNL1        0.0502
      9 C           9.8869   79.3396   25.1071 C.ar    1  UNL1        0.0443
     10 C           9.1663   78.1858   25.4322 C.ar    1  UNL1        0.1457
     11 F           7.8119   78.2210   25.3545 F       1  UNL1       -0.2040
     12 N          12.0165   80.5581   24.8829 N.pl3   1  UNL1       -0.3040
     13 C          13.4808   80.5709   24.9673 C.3     1  UNL1        0.1123
     14 C          13.9668   81.9192   25.5011 C.3     1  UNL1        0.1136
     15 N          13.3095   83.0194   24.7812 N.pl3   1  UNL1       -0.2897
     16 C          11.8444   82.9966   24.6777 C.3     1  UNL1        0.1136
     17 C          11.3678   81.6458   24.1432 C.3     1  UNL1        0.1123
     18 C          14.0263   84.2243   24.4436 C.ar    1  UNL1        0.1318
     19 C          14.5716   84.4160   23.1636 C.ar    1  UNL1        0.0343
     20 C          15.2608   85.5953   22.8773 C.ar    1  UNL1        0.0083
     21 C          15.4294   86.5742   23.8679 C.ar    1  UNL1        0.0906
     22 C          14.8545   86.3520   25.1287 C.ar    1  UNL1        0.1041
     23 N          14.1852   85.1968   25.3836 N.ar    1  UNL1       -0.2292
     24 C          16.1283   87.8732   23.5571 C.3     1  UNL1        0.4200
     25 F          17.3183   87.6054   22.9068 F       1  UNL1       -0.1658
     26 F          16.3976   88.5730   24.7206 F       1  UNL1       -0.1658
     27 F          15.3398   88.6700   22.7452 F       1  UNL1       -0.1658
     28 C           7.2613   74.1130   25.7117 C.3     1  UNL1        0.1535
     29 N           5.8537   75.8007   27.0020 N.am    1  UNL1       -0.2825
     30 C           6.3563   74.4599   26.8714 C.2     1  UNL1        0.2443
     31 O           6.0614   73.5809   27.7264 O.2     1  UNL1       -0.2730
     32 H           5.8533   76.4004   26.1458 H       1  UNL1        0.1549
     33 CA          5.6432   77.1716   30.5026 C.ar    1  UNL1        0.1577
     34 C           6.1603   76.5391   29.3594 C.ar    1  UNL1        0.0404
     35 C           5.3512   76.3809   28.2201 C.ar    1  UNL1        0.0536
     36 C           4.0414   76.8771   28.2485 C.ar    1  UNL1        0.0353
     37 C           3.5577   77.4910   29.4038 C.ar    1  UNL1        0.1003
     38 N           4.3597   77.6242   30.4916 N.ar    1  UNL1       -0.2372
     39 O           7.4263   78.1920   31.6997 O.2     1  UNL1       -0.2434
     40 C           6.4751   77.3660   31.7095 C.2     1  UNL1        0.3560
     41 OXT         6.2251   76.6449   32.8754 O.3     1  UNL1       -0.4761
     42 HXT         5.4732   75.9694   32.9381 H       1  UNL1        0.2955
     43 C           6.4465   73.6594   24.4879 C.3     1  UNL1        0.0569
     44 C           6.1125   74.8139   23.5845 C.ar    1  UNL1       -0.0017
     45 C           4.9094   75.5133   23.5540 C.ar    1  UNL1        0.0681
     46 N           5.0026   76.5789   22.7265 N.ar    1  UNL1       -0.3523
     47 C           6.2564   76.5646   22.2418 C.ar    1  UNL1        0.0563
     48 C           6.8381   77.4929   21.3795 C.ar    1  UNL1        0.0170
     49 C           8.1866   77.3064   21.0247 C.ar    1  UNL1        0.0015
     50 C           8.9146   76.2086   21.5333 C.ar    1  UNL1        0.0001
     51 C           8.3024   75.2890   22.4040 C.ar    1  UNL1        0.0012
     52 C           6.9648   75.5013   22.7406 C.ar    1  UNL1        0.0131
     53 H           4.2580   77.2838   22.5295 H       1  UNL1        0.1660
@<TRIPOS>BOND
     1    39    40    2
     2    40    41    1
     3    40    33    1
     4    33    34   ar
     5    34    35   ar
     6    35    29    1
     7    29    30   am
     8    30    31    2
     9    30    28    1
    10    28    43    1
    11    43    44    1
    12    44    45   ar
    13    45    46   ar
    14    46    47   ar
    15    47    48   ar
    16    48    49   ar
    17    49    50   ar
    18    50    51   ar
    19    51    52   ar
    20    28     1    1
    21     1     2   am
    22     2     3    2
    23     2     5    1
    24     5     6   ar
    25     6     7   ar
    26     7     8   ar
    27     8    12    1
    28    12    13    1
    29    13    14    1
    30    14    15    1
    31    15    18    1
    32    18    19   ar
    33    19    20   ar
    34    20    21   ar
    35    21    24    1
    36    24    25    1
    37    24    26    1
    38    24    27    1
    39    21    22   ar
    40    22    23   ar
    41    15    16    1
    42    16    17    1
    43     8     9   ar
    44     9    10   ar
    45    10    11    1
    46    35    36   ar
    47    36    37   ar
    48    37    38   ar
    49    38    33   ar
    50    52    44   ar
    51    10     5   ar
    52    52    47   ar
    53    17    12    1
    54    23    18   ar
    55    41    42    1
    56    29    32    1
    57    46    53    1
    58     1     4    1
