@<TRIPOS>MOLECULE
*****
 40 44 0 0 0
SMALL
GASTEIGER

@<TRIPOS>ATOM
      1 C         -25.5880   -8.5928  -11.0789 C.2     1  UNL1        0.2506
      2 O         -26.4329   -8.7180  -10.1509 O.2     1  UNL1       -0.2699
      3 N         -26.0133   -8.1591  -12.3855 N.am    1  UNL1       -0.2680
      4 C         -25.3981   -8.7336  -13.5860 C.3     1  UNL1        0.1412
      5 C         -24.3798   -7.7581  -14.1729 C.3     1  UNL1        0.2268
      6 O         -24.7300   -6.4036  -13.8939 O.3     1  UNL1       -0.4739
      7 C         -25.9746   -5.8652  -14.2305 C.ar    1  UNL1        0.1362
      8 C         -26.0098   -4.8230  -15.1612 C.ar    1  UNL1        0.0366
      9 C         -27.2246   -4.2667  -15.5604 C.ar    1  UNL1        0.0031
     10 C         -28.4324   -4.7358  -15.0215 C.ar    1  UNL1       -0.0000
     11 C         -28.3967   -5.7642  -14.0639 C.ar    1  UNL1        0.0004
     12 C         -27.1803   -6.3412  -13.6580 C.ar    1  UNL1        0.0317
     13 C         -27.2293   -7.3457  -12.5186 C.3     1  UNL1        0.1236
     14 C         -29.7271   -4.1432  -15.4430 C.ar    1  UNL1        0.0015
     15 C         -29.7878   -3.2738  -16.5682 C.ar    1  UNL1        0.0016
     16 C         -31.0094   -2.7070  -16.9774 C.ar    1  UNL1        0.0206
     17 C         -32.1486   -3.0257  -16.2462 C.ar    1  UNL1        0.0985
     18 N         -33.4082   -2.6042  -16.4582 N.ar    1  UNL1       -0.2241
     19 C         -34.1032   -3.2180  -15.4643 C.ar    1  UNL1        0.1750
     20 N         -33.3313   -3.9892  -14.6613 N.ar    1  UNL1       -0.3349
     21 C         -32.1005   -3.8551  -15.1691 C.ar    1  UNL1        0.0757
     22 C         -30.9149   -4.4372  -14.7295 C.ar    1  UNL1        0.0185
     23 H         -33.6309   -4.5560  -13.8372 H       1  UNL1        0.1675
     24 C         -23.5875  -10.1324  -11.0067 C.ar    1  UNL1        0.0503
     25 C         -22.2342  -10.3250  -10.6711 C.ar    1  UNL1        0.0329
     26 C         -21.4519   -9.2845  -10.1445 C.ar    1  UNL1        0.1097
     27 C         -22.0480   -8.0214   -9.9089 C.ar    1  UNL1        0.0520
     28 C         -23.3964   -7.8297  -10.2445 C.ar    1  UNL1        0.0099
     29 C         -24.1650   -8.8618  -10.7939 C.ar    1  UNL1        0.0668
     30 S         -19.7262   -9.5798   -9.8416 S.O2    1  UNL1        0.0106
     31 C         -19.2392  -11.2424  -10.2624 C.3     1  UNL1        0.1816
     32 O         -19.4270   -9.3451   -8.3878 O.2     1  UNL1       -0.1686
     33 O         -18.9002   -8.6461  -10.6817 O.2     1  UNL1       -0.1686
     34 C         -21.3084   -6.8936   -9.2915 C.2     1  UNL1        0.1747
     35 C         -21.1813   -5.5768   -9.9941 C.3     1  UNL1        0.0773
     36 O         -20.8404   -7.0083   -8.1273 O.2     1  UNL1       -0.2913
     37 N         -24.3583  -11.1996  -11.6034 N.pl3   1  UNL1       -0.3325
     38 H         -25.2876  -11.4438  -11.1930 H       1  UNL1        0.1468
     39 C         -25.0498  -12.7359  -13.4051 C.3     1  UNL1        0.0229
     40 C         -23.8974  -11.9718  -12.7603 C.3     1  UNL1        0.0871
@<TRIPOS>BOND
     1    39    40    1
     2    40    37    1
     3    37    24    1
     4    24    25   ar
     5    25    26   ar
     6    26    30    1
     7    30    31    1
     8    30    32    2
     9    30    33    2
    10    26    27   ar
    11    27    34    1
    12    34    35    1
    13    34    36    2
    14    27    28   ar
    15    28    29   ar
    16    29     1    1
    17     1     2    2
    18     1     3   am
    19     3     4    1
    20     4     5    1
    21     5     6    1
    22     6     7    1
    23     7     8   ar
    24     8     9   ar
    25     9    10   ar
    26    10    14    1
    27    14    15   ar
    28    15    16   ar
    29    16    17   ar
    30    17    18   ar
    31    18    19   ar
    32    19    20   ar
    33    20    21   ar
    34    21    22   ar
    35    10    11   ar
    36    11    12   ar
    37    12    13    1
    38    29    24   ar
    39    13     3    1
    40    12     7   ar
    41    22    14   ar
    42    21    17   ar
    43    37    38    1
    44    20    23    1
@<TRIPOS>MOLECULE
*****
 40 44 0 0 0
SMALL
GASTEIGER

@<TRIPOS>ATOM
      1 C         -24.8348   -6.0791  -12.8619 C.2     1  UNL1        0.2506
      2 O         -24.5061   -5.3030  -11.9236 O.2     1  UNL1       -0.2699
      3 N         -23.9522   -7.1485  -13.2538 N.am    1  UNL1       -0.2680
      4 C         -23.8170   -7.5074  -14.6689 C.3     1  UNL1        0.1412
      5 C         -24.6225   -8.7696  -14.9703 C.3     1  UNL1        0.2268
      6 O         -24.7187   -9.6161  -13.8260 O.3     1  UNL1       -0.4739
      7 C         -23.5948  -10.0681  -13.1297 C.ar    1  UNL1        0.1362
      8 C         -23.3442  -11.4431  -13.1082 C.ar    1  UNL1        0.0366
      9 C         -22.2209  -11.9511  -12.4566 C.ar    1  UNL1        0.0031
     10 C         -21.3305  -11.0890  -11.7983 C.ar    1  UNL1       -0.0000
     11 C         -21.5967   -9.7088  -11.7946 C.ar    1  UNL1        0.0004
     12 C         -22.7203   -9.1807  -12.4546 C.ar    1  UNL1        0.0317
     13 C         -23.0017   -7.6977  -12.2776 C.3     1  UNL1        0.1236
     14 C         -20.1350  -11.6279  -11.1016 C.ar    1  UNL1        0.0015
     15 C         -19.7092  -12.9659  -11.3341 C.ar    1  UNL1        0.0016
     16 C         -18.5771  -13.4871  -10.6800 C.ar    1  UNL1        0.0206
     17 C         -17.8937  -12.6516   -9.8030 C.ar    1  UNL1        0.0985
     18 N         -16.7961  -12.9373   -9.0800 N.ar    1  UNL1       -0.2241
     19 C         -16.5621  -11.7752   -8.4147 C.ar    1  UNL1        0.1750
     20 N         -17.4598  -10.8006   -8.6967 N.ar    1  UNL1       -0.3349
     21 C         -18.2934  -11.3717   -9.5739 C.ar    1  UNL1        0.0757
     22 C         -19.4064  -10.8158  -10.1983 C.ar    1  UNL1        0.0185
     23 H         -17.4911   -9.8290   -8.3155 H       1  UNL1        0.1675
     24 C         -27.2432   -6.7355  -13.2446 C.ar    1  UNL1        0.0503
     25 C         -28.4469   -6.5248  -13.9431 C.ar    1  UNL1        0.0329
     26 C         -28.5769   -5.4969  -14.8909 C.ar    1  UNL1        0.1097
     27 C         -27.4591   -4.6764  -15.1798 C.ar    1  UNL1        0.0520
     28 C         -26.2600   -4.8860  -14.4828 C.ar    1  UNL1        0.0099
     29 C         -26.1431   -5.8945  -13.5198 C.ar    1  UNL1        0.0668
     30 S         -30.1588   -5.2323  -15.6555 S.O2    1  UNL1        0.0106
     31 C         -31.1056   -3.9652  -14.8329 C.3     1  UNL1        0.1816
     32 O         -30.9458   -6.5121  -15.6308 O.2     1  UNL1       -0.1686
     33 O         -29.9628   -4.7902  -17.0789 O.2     1  UNL1       -0.1686
     34 C         -27.4953   -3.6158  -16.2162 C.2     1  UNL1        0.1747
     35 C         -26.7943   -3.7937  -17.5280 C.3     1  UNL1        0.0773
     36 O         -28.1848   -2.5773  -16.0321 O.2     1  UNL1       -0.2913
     37 N         -27.1492   -7.7606  -12.2300 N.pl3   1  UNL1       -0.3325
     38 H         -26.9788   -8.7489  -12.5229 H       1  UNL1        0.1468
     39 C         -26.5176   -8.5046   -9.9647 C.3     1  UNL1        0.0229
     40 C         -27.2903   -7.4864  -10.7976 C.3     1  UNL1        0.0871
@<TRIPOS>BOND
     1    39    40    1
     2    40    37    1
     3    37    24    1
     4    24    25   ar
     5    25    26   ar
     6    26    30    1
     7    30    31    1
     8    30    32    2
     9    30    33    2
    10    26    27   ar
    11    27    34    1
    12    34    35    1
    13    34    36    2
    14    27    28   ar
    15    28    29   ar
    16    29     1    1
    17     1     2    2
    18     1     3   am
    19     3     4    1
    20     4     5    1
    21     5     6    1
    22     6     7    1
    23     7     8   ar
    24     8     9   ar
    25     9    10   ar
    26    10    14    1
    27    14    15   ar
    28    15    16   ar
    29    16    17   ar
    30    17    18   ar
    31    18    19   ar
    32    19    20   ar
    33    20    21   ar
    34    21    22   ar
    35    10    11   ar
    36    11    12   ar
    37    12    13    1
    38    29    24   ar
    39    13     3    1
    40    12     7   ar
    41    22    14   ar
    42    21    17   ar
    43    37    38    1
    44    20    23    1
@<TRIPOS>MOLECULE
*****
 40 44 0 0 0
SMALL
GASTEIGER

@<TRIPOS>ATOM
      1 C         -20.9874   -7.2063   -9.3670 C.2     1  UNL1        0.2506
      2 O         -20.5943   -6.0078   -9.3667 O.2     1  UNL1       -0.2699
      3 N         -22.3336   -7.5219   -9.7724 N.am    1  UNL1       -0.2680
      4 C         -23.0781   -8.5812   -9.0844 C.3     1  UNL1        0.1412
      5 C         -23.0873   -9.8522   -9.9314 C.3     1  UNL1        0.2268
      6 O         -23.0137   -9.5546  -11.3247 O.3     1  UNL1       -0.4739
      7 C         -23.9173   -8.6975  -11.9581 C.ar    1  UNL1        0.1362
      8 C         -24.7433   -9.2311  -12.9514 C.ar    1  UNL1        0.0366
      9 C         -25.6867   -8.4323  -13.5968 C.ar    1  UNL1        0.0031
     10 C         -25.8115   -7.0736  -13.2685 C.ar    1  UNL1       -0.0000
     11 C         -24.9618   -6.5288  -12.2902 C.ar    1  UNL1        0.0004
     12 C         -24.0118   -7.3235  -11.6245 C.ar    1  UNL1        0.0317
     13 C         -23.0453   -6.6189  -10.6868 C.3     1  UNL1        0.1236
     14 C         -26.8135   -6.2204  -13.9563 C.ar    1  UNL1        0.0015
     15 C         -26.4215   -4.9891  -14.5529 C.ar    1  UNL1        0.0016
     16 C         -27.3623   -4.1727  -15.2081 C.ar    1  UNL1        0.0206
     17 C         -28.6816   -4.6105  -15.2509 C.ar    1  UNL1        0.0985
     18 N         -29.7348   -3.9977  -15.8205 N.ar    1  UNL1       -0.2241
     19 C         -30.7571   -4.8573  -15.5677 C.ar    1  UNL1        0.1750
     20 N         -30.3788   -5.9585  -14.8752 N.ar    1  UNL1       -0.3349
     21 C         -29.0659   -5.7854  -14.6831 C.ar    1  UNL1        0.0757
     22 C         -28.1697   -6.6232  -14.0254 C.ar    1  UNL1        0.0185
     23 H         -30.9766   -6.7563  -14.5646 H       1  UNL1        0.1675
     24 C         -19.6499   -9.2852   -9.8838 C.ar    1  UNL1        0.0503
     25 C         -18.7764  -10.2921   -9.4320 C.ar    1  UNL1        0.0329
     26 C         -18.2817  -10.3010   -8.1178 C.ar    1  UNL1        0.1097
     27 C         -18.7014   -9.2950   -7.2133 C.ar    1  UNL1        0.0520
     28 C         -19.5712   -8.2912   -7.6644 C.ar    1  UNL1        0.0099
     29 C         -20.0406   -8.2713   -8.9824 C.ar    1  UNL1        0.0668
     30 S         -17.1044  -11.5486   -7.6546 S.O2    1  UNL1        0.0106
     31 C         -15.9091  -11.8628   -8.9396 C.3     1  UNL1        0.1816
     32 O         -17.8283  -12.8294   -7.3486 O.2     1  UNL1       -0.1686
     33 O         -16.3447  -11.0977   -6.4383 O.2     1  UNL1       -0.1686
     34 C         -18.2792   -9.2748   -5.7915 C.2     1  UNL1        0.1747
     35 C         -17.4971   -8.1251   -5.2346 C.3     1  UNL1        0.0773
     36 O         -18.6423  -10.1962   -5.0126 O.2     1  UNL1       -0.2913
     37 N         -20.0997   -9.2610  -11.2572 N.pl3   1  UNL1       -0.3325
     38 H         -20.6520  -10.0687  -11.6236 H       1  UNL1        0.1468
     39 C         -20.7975   -8.1397  -13.3406 C.3     1  UNL1        0.0229
     40 C         -19.8120   -8.1563  -12.1759 C.3     1  UNL1        0.0871
@<TRIPOS>BOND
     1    39    40    1
     2    40    37    1
     3    37    24    1
     4    24    25   ar
     5    25    26   ar
     6    26    30    1
     7    30    31    1
     8    30    32    2
     9    30    33    2
    10    26    27   ar
    11    27    34    1
    12    34    35    1
    13    34    36    2
    14    27    28   ar
    15    28    29   ar
    16    29     1    1
    17     1     2    2
    18     1     3   am
    19     3     4    1
    20     4     5    1
    21     5     6    1
    22     6     7    1
    23     7     8   ar
    24     8     9   ar
    25     9    10   ar
    26    10    14    1
    27    14    15   ar
    28    15    16   ar
    29    16    17   ar
    30    17    18   ar
    31    18    19   ar
    32    19    20   ar
    33    20    21   ar
    34    21    22   ar
    35    10    11   ar
    36    11    12   ar
    37    12    13    1
    38    29    24   ar
    39    13     3    1
    40    12     7   ar
    41    22    14   ar
    42    21    17   ar
    43    37    38    1
    44    20    23    1
@<TRIPOS>MOLECULE
*****
 40 44 0 0 0
SMALL
GASTEIGER

@<TRIPOS>ATOM
      1 C         -21.5675   -6.9435  -10.2356 C.2     1  UNL1        0.2506
      2 O         -21.1383   -5.7637  -10.3561 O.2     1  UNL1       -0.2699
      3 N         -22.9532   -7.2358  -10.5014 N.am    1  UNL1       -0.2680
      4 C         -23.6680   -8.2154   -9.6774 C.3     1  UNL1        0.1412
      5 C         -23.7911   -9.5414  -10.4255 C.3     1  UNL1        0.2268
      6 O         -23.8299   -9.3450  -11.8379 O.3     1  UNL1       -0.4739
      7 C         -24.7577   -8.5008  -12.4535 C.ar    1  UNL1        0.1362
      8 C         -25.6836   -9.0711  -13.3316 C.ar    1  UNL1        0.0366
      9 C         -26.6539   -8.2845  -13.9513 C.ar    1  UNL1        0.0031
     10 C         -26.7067   -6.9024  -13.7138 C.ar    1  UNL1       -0.0000
     11 C         -25.7582   -6.3229  -12.8533 C.ar    1  UNL1        0.0004
     12 C         -24.7793   -7.1043  -12.2142 C.ar    1  UNL1        0.0317
     13 C         -23.7130   -6.3728  -11.4157 C.3     1  UNL1        0.1236
     14 C         -27.7374   -6.0622  -14.3746 C.ar    1  UNL1        0.0015
     15 C         -29.1179   -6.3839  -14.2468 C.ar    1  UNL1        0.0016
     16 C         -30.1037   -5.5944  -14.8681 C.ar    1  UNL1        0.0206
     17 C         -29.6818   -4.4945  -15.6072 C.ar    1  UNL1        0.0985
     18 N         -30.4435   -3.6102  -16.2758 N.ar    1  UNL1       -0.2241
     19 C         -29.5246   -2.7591  -16.8040 C.ar    1  UNL1        0.1750
     20 N         -28.2465   -3.0809  -16.4906 N.ar    1  UNL1       -0.3349
     21 C         -28.3648   -4.1793  -15.7356 C.ar    1  UNL1        0.0757
     22 C         -27.3571   -4.9319  -15.1390 C.ar    1  UNL1        0.0185
     23 H         -27.3731   -2.5842  -16.7745 H       1  UNL1        0.1675
     24 C         -20.3159   -9.0812  -10.7268 C.ar    1  UNL1        0.0503
     25 C         -19.4407  -10.0883  -10.2785 C.ar    1  UNL1        0.0329
     26 C         -18.8656  -10.0463   -8.9981 C.ar    1  UNL1        0.1097
     27 C         -19.2036   -8.9860   -8.1219 C.ar    1  UNL1        0.0520
     28 C         -20.0750   -7.9820   -8.5695 C.ar    1  UNL1        0.0099
     29 C         -20.6249   -8.0139   -9.8558 C.ar    1  UNL1        0.0668
     30 S         -17.6925  -11.3015   -8.5448 S.O2    1  UNL1        0.0106
     31 C         -17.9946  -12.8457   -9.3832 C.3     1  UNL1        0.1816
     32 O         -17.7621  -11.5382   -7.0625 O.2     1  UNL1       -0.1686
     33 O         -16.3067  -10.8543   -8.9178 O.2     1  UNL1       -0.1686
     34 C         -18.6935   -8.9075   -6.7313 C.2     1  UNL1        0.1747
     35 C         -19.6298   -8.7471   -5.5732 C.3     1  UNL1        0.0773
     36 O         -17.4630   -9.0524   -6.5019 O.2     1  UNL1       -0.2913
     37 N         -20.8495   -9.1122  -12.0697 N.pl3   1  UNL1       -0.3325
     38 H         -21.4160   -9.9369  -12.3707 H       1  UNL1        0.1468
     39 C         -21.5379   -8.2081  -14.2591 C.3     1  UNL1        0.0229
     40 C         -20.6287   -8.0413  -13.0452 C.3     1  UNL1        0.0871
@<TRIPOS>BOND
     1    39    40    1
     2    40    37    1
     3    37    24    1
     4    24    25   ar
     5    25    26   ar
     6    26    30    1
     7    30    31    1
     8    30    32    2
     9    30    33    2
    10    26    27   ar
    11    27    34    1
    12    34    35    1
    13    34    36    2
    14    27    28   ar
    15    28    29   ar
    16    29     1    1
    17     1     2    2
    18     1     3   am
    19     3     4    1
    20     4     5    1
    21     5     6    1
    22     6     7    1
    23     7     8   ar
    24     8     9   ar
    25     9    10   ar
    26    10    14    1
    27    14    15   ar
    28    15    16   ar
    29    16    17   ar
    30    17    18   ar
    31    18    19   ar
    32    19    20   ar
    33    20    21   ar
    34    21    22   ar
    35    10    11   ar
    36    11    12   ar
    37    12    13    1
    38    29    24   ar
    39    13     3    1
    40    12     7   ar
    41    22    14   ar
    42    21    17   ar
    43    37    38    1
    44    20    23    1
@<TRIPOS>MOLECULE
*****
 40 44 0 0 0
SMALL
GASTEIGER

@<TRIPOS>ATOM
      1 C         -21.0282   -7.9940  -10.0533 C.2     1  UNL1        0.2506
      2 O         -20.5490   -6.8274  -10.0396 O.2     1  UNL1       -0.2699
      3 N         -22.4210   -8.1962  -10.3624 N.am    1  UNL1       -0.2680
      4 C         -23.1870   -9.2286   -9.6575 C.3     1  UNL1        0.1412
      5 C         -23.3544  -10.4585  -10.5477 C.3     1  UNL1        0.2268
      6 O         -23.3654  -10.1076  -11.9304 O.3     1  UNL1       -0.4739
      7 C         -24.2489   -9.1625  -12.4582 C.ar    1  UNL1        0.1362
      8 C         -25.1852   -9.5935  -13.4022 C.ar    1  UNL1        0.0366
      9 C         -26.1135   -8.7033  -13.9409 C.ar    1  UNL1        0.0031
     10 C         -26.1124   -7.3545  -13.5537 C.ar    1  UNL1       -0.0000
     11 C         -25.1529   -6.9133  -12.6261 C.ar    1  UNL1        0.0004
     12 C         -24.2161   -7.8008  -12.0675 C.ar    1  UNL1        0.0317
     13 C         -23.1317   -7.2070  -11.1836 C.3     1  UNL1        0.1236
     14 C         -27.0983   -6.4040  -14.1280 C.ar    1  UNL1        0.0015
     15 C         -26.6628   -5.1813  -14.7119 C.ar    1  UNL1        0.0016
     16 C         -27.5880   -4.2732  -15.2600 C.ar    1  UNL1        0.0206
     17 C         -28.9358   -4.6124  -15.2103 C.ar    1  UNL1        0.0985
     18 N         -29.9813   -3.9026  -15.6710 N.ar    1  UNL1       -0.2241
     19 C         -31.0423   -4.6954  -15.3655 C.ar    1  UNL1        0.1750
     20 N         -30.6949   -5.8481  -14.7443 N.ar    1  UNL1       -0.3349
     21 C         -29.3617   -5.7783  -14.6538 C.ar    1  UNL1        0.0757
     22 C         -28.4822   -6.7045  -14.1003 C.ar    1  UNL1        0.0185
     23 H         -31.3248   -6.6124  -14.4136 H       1  UNL1        0.1675
     24 C         -19.1205   -9.0808   -8.8055 C.ar    1  UNL1        0.0503
     25 C         -18.2807  -10.1974   -8.6353 C.ar    1  UNL1        0.0329
     26 C         -18.4394  -11.3610   -9.4053 C.ar    1  UNL1        0.1097
     27 C         -19.4433  -11.3988  -10.4037 C.ar    1  UNL1        0.0520
     28 C         -20.2807  -10.2861  -10.5722 C.ar    1  UNL1        0.0099
     29 C         -20.1360   -9.1387   -9.7845 C.ar    1  UNL1        0.0668
     30 S         -17.4046  -12.7637   -9.0604 S.O2    1  UNL1        0.0106
     31 C         -16.0545  -12.3576   -7.9691 C.3     1  UNL1        0.1816
     32 O         -16.8389  -13.2953  -10.3470 O.2     1  UNL1       -0.1686
     33 O         -18.2162  -13.8352   -8.3875 O.2     1  UNL1       -0.1686
     34 C         -19.6290  -12.5630  -11.3039 C.2     1  UNL1        0.1747
     35 C         -20.6766  -12.5519  -12.3745 C.3     1  UNL1        0.0773
     36 O         -18.8509  -13.5509  -11.2260 O.2     1  UNL1       -0.2913
     37 N         -18.9785   -7.9160   -7.9615 N.pl3   1  UNL1       -0.3325
     38 H         -18.6318   -7.0249   -8.3825 H       1  UNL1        0.1468
     39 C         -18.0261   -7.7492   -5.6923 C.3     1  UNL1        0.0229
     40 C         -19.2899   -7.9204   -6.5297 C.3     1  UNL1        0.0871
@<TRIPOS>BOND
     1    39    40    1
     2    40    37    1
     3    37    24    1
     4    24    25   ar
     5    25    26   ar
     6    26    30    1
     7    30    31    1
     8    30    32    2
     9    30    33    2
    10    26    27   ar
    11    27    34    1
    12    34    35    1
    13    34    36    2
    14    27    28   ar
    15    28    29   ar
    16    29     1    1
    17     1     2    2
    18     1     3   am
    19     3     4    1
    20     4     5    1
    21     5     6    1
    22     6     7    1
    23     7     8   ar
    24     8     9   ar
    25     9    10   ar
    26    10    14    1
    27    14    15   ar
    28    15    16   ar
    29    16    17   ar
    30    17    18   ar
    31    18    19   ar
    32    19    20   ar
    33    20    21   ar
    34    21    22   ar
    35    10    11   ar
    36    11    12   ar
    37    12    13    1
    38    29    24   ar
    39    13     3    1
    40    12     7   ar
    41    22    14   ar
    42    21    17   ar
    43    37    38    1
    44    20    23    1
@<TRIPOS>MOLECULE
*****
 40 44 0 0 0
SMALL
GASTEIGER

@<TRIPOS>ATOM
      1 C         -22.6061  -10.8193  -12.5766 C.2     1  UNL1        0.2506
      2 O         -23.3618  -11.8107  -12.7692 O.2     1  UNL1       -0.2699
      3 N         -22.9213   -9.5472  -13.1754 N.am    1  UNL1       -0.2680
      4 C         -21.8473   -8.6908  -13.6878 C.3     1  UNL1        0.1412
      5 C         -21.5606   -7.5604  -12.7013 C.3     1  UNL1        0.2268
      6 O         -22.7248   -7.2062  -11.9568 O.3     1  UNL1       -0.4739
      7 C         -23.9280   -6.8476  -12.5701 C.ar    1  UNL1        0.1362
      8 C         -24.4057   -5.5492  -12.3709 C.ar    1  UNL1        0.0366
      9 C         -25.5842   -5.1235  -12.9826 C.ar    1  UNL1        0.0031
     10 C         -26.3184   -5.9987  -13.7977 C.ar    1  UNL1       -0.0000
     11 C         -25.8545   -7.3136  -13.9757 C.ar    1  UNL1        0.0004
     12 C         -24.6633   -7.7549  -13.3727 C.ar    1  UNL1        0.0317
     13 C         -24.3165   -9.2285  -13.5068 C.3     1  UNL1        0.1236
     14 C         -27.5751   -5.5484  -14.4480 C.ar    1  UNL1        0.0015
     15 C         -28.7882   -6.2635  -14.2414 C.ar    1  UNL1        0.0016
     16 C         -29.9855   -5.8455  -14.8520 C.ar    1  UNL1        0.0206
     17 C         -29.9402   -4.7145  -15.6600 C.ar    1  UNL1        0.0985
     18 N         -30.9543   -4.1416  -16.3326 N.ar    1  UNL1       -0.2241
     19 C         -30.3537   -3.0852  -16.9417 C.ar    1  UNL1        0.1750
     20 N         -29.0294   -2.9877  -16.6736 N.ar    1  UNL1       -0.3349
     21 C         -28.7856   -4.0248  -15.8639 C.ar    1  UNL1        0.0757
     22 C         -27.5793   -4.4025  -15.2806 C.ar    1  UNL1        0.0185
     23 H         -28.3570   -2.2681  -17.0204 H       1  UNL1        0.1675
     24 C         -20.6684  -12.1689  -11.6812 C.ar    1  UNL1        0.0503
     25 C         -19.5801  -12.2610  -10.7935 C.ar    1  UNL1        0.0329
     26 C         -19.2283  -11.1961   -9.9485 C.ar    1  UNL1        0.1097
     27 C         -20.0101  -10.0150   -9.9611 C.ar    1  UNL1        0.0520
     28 C         -21.0940   -9.9234  -10.8467 C.ar    1  UNL1        0.0099
     29 C         -21.4247  -10.9770  -11.7060 C.ar    1  UNL1        0.0668
     30 S         -17.7806  -11.3533   -8.9303 S.O2    1  UNL1        0.0106
     31 C         -17.2348  -13.0443   -8.7849 C.3     1  UNL1        0.1816
     32 O         -18.0773  -10.8245   -7.5553 O.2     1  UNL1       -0.1686
     33 O         -16.6504  -10.5696   -9.5370 O.2     1  UNL1       -0.1686
     34 C         -19.7458   -8.8743   -9.0506 C.2     1  UNL1        0.1747
     35 C         -20.6385   -8.5978   -7.8800 C.3     1  UNL1        0.0773
     36 O         -18.7160   -8.1658   -9.2097 O.2     1  UNL1       -0.2913
     37 N         -20.9766  -13.2540  -12.5850 N.pl3   1  UNL1       -0.3325
     38 H         -21.6139  -14.0164  -12.2623 H       1  UNL1        0.1468
     39 C         -21.5033  -13.7762  -14.9375 C.3     1  UNL1        0.0229
     40 C         -20.4302  -13.3476  -13.9414 C.3     1  UNL1        0.0871
@<TRIPOS>BOND
     1    39    40    1
     2    40    37    1
     3    37    24    1
     4    24    25   ar
     5    25    26   ar
     6    26    30    1
     7    30    31    1
     8    30    32    2
     9    30    33    2
    10    26    27   ar
    11    27    34    1
    12    34    35    1
    13    34    36    2
    14    27    28   ar
    15    28    29   ar
    16    29     1    1
    17     1     2    2
    18     1     3   am
    19     3     4    1
    20     4     5    1
    21     5     6    1
    22     6     7    1
    23     7     8   ar
    24     8     9   ar
    25     9    10   ar
    26    10    14    1
    27    14    15   ar
    28    15    16   ar
    29    16    17   ar
    30    17    18   ar
    31    18    19   ar
    32    19    20   ar
    33    20    21   ar
    34    21    22   ar
    35    10    11   ar
    36    11    12   ar
    37    12    13    1
    38    29    24   ar
    39    13     3    1
    40    12     7   ar
    41    22    14   ar
    42    21    17   ar
    43    37    38    1
    44    20    23    1
@<TRIPOS>MOLECULE
*****
 40 44 0 0 0
SMALL
GASTEIGER

@<TRIPOS>ATOM
      1 C         -24.6270   -8.4615  -10.5000 C.2     1  UNL1        0.2506
      2 O         -25.3427   -8.2458   -9.4841 O.2     1  UNL1       -0.2699
      3 N         -25.1765   -8.2786  -11.8194 N.am    1  UNL1       -0.2680
      4 C         -24.8074   -9.1957  -12.9021 C.3     1  UNL1        0.1412
      5 C         -23.7732   -8.5411  -13.8157 C.3     1  UNL1        0.2268
      6 O         -23.9185   -7.1221  -13.8402 O.3     1  UNL1       -0.4739
      7 C         -25.1256   -6.4963  -14.1622 C.ar    1  UNL1        0.1362
      8 C         -25.1672   -5.6999  -15.3100 C.ar    1  UNL1        0.0366
      9 C         -26.3516   -5.0756  -15.6998 C.ar    1  UNL1        0.0031
     10 C         -27.5191   -5.2257  -14.9358 C.ar    1  UNL1       -0.0000
     11 C         -27.4716   -6.0029  -13.7655 C.ar    1  UNL1        0.0004
     12 C         -26.2871   -6.6458  -13.3643 C.ar    1  UNL1        0.0317
     13 C         -26.2946   -7.3461  -12.0155 C.3     1  UNL1        0.1236
     14 C         -28.7809   -4.5597  -15.3474 C.ar    1  UNL1        0.0015
     15 C         -29.9992   -4.8449  -14.6692 C.ar    1  UNL1        0.0016
     16 C         -31.2010   -4.2191  -15.0501 C.ar    1  UNL1        0.0206
     17 C         -31.1548   -3.3170  -16.1075 C.ar    1  UNL1        0.0985
     18 N         -32.1717   -2.6097  -16.6318 N.ar    1  UNL1       -0.2241
     19 C         -31.5674   -1.9011  -17.6220 C.ar    1  UNL1        0.1750
     20 N         -30.2382   -2.1417  -17.7252 N.ar    1  UNL1       -0.3349
     21 C         -29.9954   -3.0384  -16.7622 C.ar    1  UNL1        0.0757
     22 C         -28.7848   -3.6339  -16.4194 C.ar    1  UNL1        0.0185
     23 H         -29.5621   -1.7223  -18.4015 H       1  UNL1        0.1675
     24 C         -22.2899   -8.0458   -9.6382 C.ar    1  UNL1        0.0503
     25 C         -20.9547   -8.4795   -9.5361 C.ar    1  UNL1        0.0329
     26 C         -20.5366   -9.7060  -10.0771 C.ar    1  UNL1        0.1097
     27 C         -21.4711  -10.5088  -10.7761 C.ar    1  UNL1        0.0520
     28 C         -22.8018  -10.0766  -10.8767 C.ar    1  UNL1        0.0099
     29 C         -23.2200   -8.8662  -10.3128 C.ar    1  UNL1        0.0668
     30 S         -18.8581  -10.2283   -9.8182 S.O2    1  UNL1        0.0106
     31 C         -18.4090  -10.2346   -8.0929 C.3     1  UNL1        0.1816
     32 O         -17.9285   -9.3042  -10.5530 O.2     1  UNL1       -0.1686
     33 O         -18.6819  -11.6304  -10.3309 O.2     1  UNL1       -0.1686
     34 C         -21.0923  -11.7825  -11.4351 C.2     1  UNL1        0.1747
     35 C         -21.3177  -11.9902  -12.9013 C.3     1  UNL1        0.0773
     36 O         -20.5028  -12.6816  -10.7780 O.2     1  UNL1       -0.2913
     37 N         -22.7124   -6.8084   -9.0221 N.pl3   1  UNL1       -0.3325
     38 H         -23.4822   -6.8312   -8.3161 H       1  UNL1        0.1468
     39 C         -22.2854   -5.1805  -10.8255 C.3     1  UNL1        0.0229
     40 C         -22.1184   -5.5083   -9.3448 C.3     1  UNL1        0.0871
@<TRIPOS>BOND
     1    39    40    1
     2    40    37    1
     3    37    24    1
     4    24    25   ar
     5    25    26   ar
     6    26    30    1
     7    30    31    1
     8    30    32    2
     9    30    33    2
    10    26    27   ar
    11    27    34    1
    12    34    35    1
    13    34    36    2
    14    27    28   ar
    15    28    29   ar
    16    29     1    1
    17     1     2    2
    18     1     3   am
    19     3     4    1
    20     4     5    1
    21     5     6    1
    22     6     7    1
    23     7     8   ar
    24     8     9   ar
    25     9    10   ar
    26    10    14    1
    27    14    15   ar
    28    15    16   ar
    29    16    17   ar
    30    17    18   ar
    31    18    19   ar
    32    19    20   ar
    33    20    21   ar
    34    21    22   ar
    35    10    11   ar
    36    11    12   ar
    37    12    13    1
    38    29    24   ar
    39    13     3    1
    40    12     7   ar
    41    22    14   ar
    42    21    17   ar
    43    37    38    1
    44    20    23    1
@<TRIPOS>MOLECULE
*****
 40 44 0 0 0
SMALL
GASTEIGER

@<TRIPOS>ATOM
      1 C         -25.8547   -8.0853  -10.9449 C.2     1  UNL1        0.2506
      2 O         -26.7253   -8.1141  -10.0328 O.2     1  UNL1       -0.2699
      3 N         -26.2381   -7.7620  -12.2957 N.am    1  UNL1       -0.2680
      4 C         -25.6031   -8.4504  -13.4238 C.3     1  UNL1        0.1412
      5 C         -24.5522   -7.5474  -14.0664 C.3     1  UNL1        0.2268
      6 O         -24.8841   -6.1679  -13.9173 O.3     1  UNL1       -0.4739
      7 C         -26.1095   -5.6412  -14.3336 C.ar    1  UNL1        0.1362
      8 C         -26.1014   -4.6850  -15.3530 C.ar    1  UNL1        0.0366
      9 C         -27.2950   -4.1465  -15.8325 C.ar    1  UNL1        0.0031
     10 C         -28.5248   -4.5464  -15.2875 C.ar    1  UNL1       -0.0000
     11 C         -28.5327   -5.4865  -14.2425 C.ar    1  UNL1        0.0004
     12 C         -27.3381   -6.0450  -13.7544 C.ar    1  UNL1        0.0317
     13 C         -27.4350   -6.9439  -12.5328 C.3     1  UNL1        0.1236
     14 C         -29.7970   -3.9724  -15.7945 C.ar    1  UNL1        0.0015
     15 C         -29.8139   -3.2118  -16.9974 C.ar    1  UNL1        0.0016
     16 C         -31.0139   -2.6637  -17.4880 C.ar    1  UNL1        0.0206
     17 C         -32.1759   -2.8911  -16.7585 C.ar    1  UNL1        0.0985
     18 N         -33.4213   -2.4683  -17.0401 N.ar    1  UNL1       -0.2241
     19 C         -34.1514   -2.9729  -16.0105 C.ar    1  UNL1        0.1750
     20 N         -33.4141   -3.6791  -15.1200 N.ar    1  UNL1       -0.3349
     21 C         -32.1695   -3.6161  -15.6075 C.ar    1  UNL1        0.0757
     22 C         -31.0065   -4.1759  -15.0861 C.ar    1  UNL1        0.0185
     23 H         -33.7441   -4.1601  -14.2540 H       1  UNL1        0.1675
     24 C         -23.9556   -9.6623  -10.4116 C.ar    1  UNL1        0.0503
     25 C         -22.6090   -9.8353  -10.0405 C.ar    1  UNL1        0.0329
     26 C         -21.7478   -8.7399   -9.8659 C.ar    1  UNL1        0.1097
     27 C         -22.2553   -7.4276  -10.0290 C.ar    1  UNL1        0.0520
     28 C         -23.5971   -7.2557  -10.3998 C.ar    1  UNL1        0.0099
     29 C         -24.4447   -8.3512  -10.5988 C.ar    1  UNL1        0.0668
     30 S         -20.0370   -9.0461   -9.4963 S.O2    1  UNL1        0.0106
     31 C         -19.6271   -8.6488   -7.8074 C.3     1  UNL1        0.1816
     32 O         -19.1736   -8.2198  -10.4072 O.2     1  UNL1       -0.1686
     33 O         -19.7308  -10.5038   -9.6993 O.2     1  UNL1       -0.1686
     34 C         -21.4287   -6.2184   -9.7948 C.2     1  UNL1        0.1747
     35 C         -21.0794   -5.2922  -10.9190 C.3     1  UNL1        0.0773
     36 O         -21.0726   -5.9148   -8.6249 O.2     1  UNL1       -0.2913
     37 N         -24.8089  -10.8054  -10.6447 N.pl3   1  UNL1       -0.3325
     38 H         -25.0795  -11.0438  -11.6253 H       1  UNL1        0.1468
     39 C         -25.7291  -10.8149   -8.3561 C.3     1  UNL1        0.0229
     40 C         -25.3277  -11.6518   -9.5670 C.3     1  UNL1        0.0871
@<TRIPOS>BOND
     1    39    40    1
     2    40    37    1
     3    37    24    1
     4    24    25   ar
     5    25    26   ar
     6    26    30    1
     7    30    31    1
     8    30    32    2
     9    30    33    2
    10    26    27   ar
    11    27    34    1
    12    34    35    1
    13    34    36    2
    14    27    28   ar
    15    28    29   ar
    16    29     1    1
    17     1     2    2
    18     1     3   am
    19     3     4    1
    20     4     5    1
    21     5     6    1
    22     6     7    1
    23     7     8   ar
    24     8     9   ar
    25     9    10   ar
    26    10    14    1
    27    14    15   ar
    28    15    16   ar
    29    16    17   ar
    30    17    18   ar
    31    18    19   ar
    32    19    20   ar
    33    20    21   ar
    34    21    22   ar
    35    10    11   ar
    36    11    12   ar
    37    12    13    1
    38    29    24   ar
    39    13     3    1
    40    12     7   ar
    41    22    14   ar
    42    21    17   ar
    43    37    38    1
    44    20    23    1
@<TRIPOS>MOLECULE
*****
 40 44 0 0 0
SMALL
GASTEIGER

@<TRIPOS>ATOM
      1 C         -23.2130   -9.6701  -13.3893 C.2     1  UNL1        0.2506
      2 O         -22.7165  -10.3044  -14.3599 O.2     1  UNL1       -0.2699
      3 N         -22.7376   -9.9147  -12.0513 N.am    1  UNL1       -0.2680
      4 C         -23.6774   -9.9099  -10.9259 C.3     1  UNL1        0.1412
      5 C         -23.5705   -8.5941  -10.1577 C.3     1  UNL1        0.2268
      6 O         -22.2584   -8.0409  -10.2449 O.3     1  UNL1       -0.4739
      7 C         -21.1154   -8.7586   -9.8834 C.ar    1  UNL1        0.1362
      8 C         -20.3555   -8.2869   -8.8093 C.ar    1  UNL1        0.0366
      9 C         -19.2222   -8.9780   -8.3821 C.ar    1  UNL1        0.0031
     10 C         -18.8177  -10.1525   -9.0349 C.ar    1  UNL1       -0.0000
     11 C         -19.5645  -10.6124  -10.1335 C.ar    1  UNL1        0.0004
     12 C         -20.7145   -9.9314  -10.5704 C.ar    1  UNL1        0.0317
     13 C         -21.3741  -10.4225  -11.8485 C.3     1  UNL1        0.1236
     14 C         -17.6097  -10.8887   -8.5835 C.ar    1  UNL1        0.0015
     15 C         -17.3639  -11.0851   -7.1955 C.ar    1  UNL1        0.0016
     16 C         -16.2227  -11.7820   -6.7561 C.ar    1  UNL1        0.0206
     17 C         -15.3490  -12.2689   -7.7223 C.ar    1  UNL1        0.0985
     18 N         -14.2101  -12.9584   -7.5306 N.ar    1  UNL1       -0.2241
     19 C         -13.7721  -13.1763   -8.7987 C.ar    1  UNL1        0.1750
     20 N         -14.5855  -12.6554   -9.7487 N.ar    1  UNL1       -0.3349
     21 C         -15.5751  -12.0856   -9.0511 C.ar    1  UNL1        0.0757
     22 C         -16.6897  -11.4029   -9.5299 C.ar    1  UNL1        0.0185
     23 H         -14.4650  -12.6920  -10.7852 H       1  UNL1        0.1675
     24 C         -24.0636   -7.6139  -14.5835 C.ar    1  UNL1        0.0503
     25 C         -25.0854   -6.6603  -14.7492 C.ar    1  UNL1        0.0329
     26 C         -26.2840   -6.7328  -14.0213 C.ar    1  UNL1        0.1097
     27 C         -26.4542   -7.7677  -13.0693 C.ar    1  UNL1        0.0520
     28 C         -25.4360   -8.7185  -12.9052 C.ar    1  UNL1        0.0099
     29 C         -24.2542   -8.6576  -13.6520 C.ar    1  UNL1        0.0668
     30 S         -27.5652   -5.5495  -14.3612 S.O2    1  UNL1        0.0106
     31 C         -27.1253   -4.4352  -15.6816 C.3     1  UNL1        0.1816
     32 O         -27.8411   -4.7428  -13.1238 O.2     1  UNL1       -0.1686
     33 O         -28.8165   -6.2686  -14.7818 O.2     1  UNL1       -0.1686
     34 C         -27.6604   -7.8724  -12.2124 C.2     1  UNL1        0.1747
     35 C         -27.5954   -7.5687  -10.7471 C.3     1  UNL1        0.0773
     36 O         -28.7776   -8.1464  -12.7268 O.2     1  UNL1       -0.2913
     37 N         -22.8629   -7.5551  -15.3860 N.pl3   1  UNL1       -0.3325
     38 H         -21.9349   -7.5205  -14.9072 H       1  UNL1        0.1468
     39 C         -23.0970   -8.9310  -17.4199 C.3     1  UNL1        0.0229
     40 C         -22.8779   -7.5323  -16.8511 C.3     1  UNL1        0.0871
@<TRIPOS>BOND
     1    39    40    1
     2    40    37    1
     3    37    24    1
     4    24    25   ar
     5    25    26   ar
     6    26    30    1
     7    30    31    1
     8    30    32    2
     9    30    33    2
    10    26    27   ar
    11    27    34    1
    12    34    35    1
    13    34    36    2
    14    27    28   ar
    15    28    29   ar
    16    29     1    1
    17     1     2    2
    18     1     3   am
    19     3     4    1
    20     4     5    1
    21     5     6    1
    22     6     7    1
    23     7     8   ar
    24     8     9   ar
    25     9    10   ar
    26    10    14    1
    27    14    15   ar
    28    15    16   ar
    29    16    17   ar
    30    17    18   ar
    31    18    19   ar
    32    19    20   ar
    33    20    21   ar
    34    21    22   ar
    35    10    11   ar
    36    11    12   ar
    37    12    13    1
    38    29    24   ar
    39    13     3    1
    40    12     7   ar
    41    22    14   ar
    42    21    17   ar
    43    37    38    1
    44    20    23    1
