@<TRIPOS>MOLECULE
*****
 34 38 0 0 0
SMALL
GASTEIGER

@<TRIPOS>ATOM
      1 C         -21.3541   -8.7709   -8.8918 C.2     1  UNL1        0.2494
      2 O         -21.1641   -9.8025   -9.5927 O.2     1  UNL1       -0.2699
      3 N         -22.3386   -7.8049   -9.3085 N.am    1  UNL1       -0.2680
      4 C         -21.9848   -6.3860   -9.4114 C.3     1  UNL1        0.1412
      5 C         -21.4759   -6.0670  -10.8134 C.3     1  UNL1        0.2268
      6 O         -22.4948   -6.2435  -11.7960 O.3     1  UNL1       -0.4739
      7 C         -22.8820   -7.4994  -12.2779 C.ar    1  UNL1        0.1362
      8 C         -22.8156   -7.7282  -13.6554 C.ar    1  UNL1        0.0366
      9 C         -23.1580   -8.9722  -14.1870 C.ar    1  UNL1        0.0031
     10 C         -23.5896  -10.0109  -13.3465 C.ar    1  UNL1       -0.0000
     11 C         -23.6882   -9.7720  -11.9646 C.ar    1  UNL1        0.0004
     12 C         -23.3429   -8.5223  -11.4211 C.ar    1  UNL1        0.0317
     13 C         -23.5696   -8.2642   -9.9535 C.3     1  UNL1        0.1236
     14 C         -23.9475  -11.3376  -13.9091 C.ar    1  UNL1        0.0015
     15 C         -25.3114  -11.6943  -14.1043 C.ar    1  UNL1        0.0016
     16 C         -25.6598  -12.9494  -14.6376 C.ar    1  UNL1        0.0206
     17 C         -24.6286  -13.8231  -14.9652 C.ar    1  UNL1        0.0985
     18 N         -24.7303  -15.0596  -15.4849 N.ar    1  UNL1       -0.2241
     19 C         -23.4322  -15.4453  -15.6023 C.ar    1  UNL1        0.1750
     20 N         -22.5494  -14.5078  -15.1813 N.ar    1  UNL1       -0.3349
     21 C         -23.3223  -13.4913  -14.7818 C.ar    1  UNL1        0.0757
     22 C         -22.9324  -12.2621  -14.2575 C.ar    1  UNL1        0.0185
     23 H         -21.5070  -14.5681  -15.1720 H       1  UNL1        0.1675
     24 C         -21.0907   -9.0274   -3.8963 C.3     1  UNL1        0.0324
     25 C         -20.4136   -8.7229   -5.2066 C.ar    1  UNL1       -0.0046
     26 C         -21.1500   -8.8751   -6.3951 C.ar    1  UNL1        0.0015
     27 C         -20.5765   -8.5893   -7.6439 C.ar    1  UNL1        0.0534
     28 C         -19.2426   -8.1649   -7.6998 C.ar    1  UNL1        0.0058
     29 C         -18.5049   -7.9956   -6.5283 C.ar    1  UNL1        0.0182
     30 C         -19.0780   -8.2524   -5.2738 C.ar    1  UNL1        0.1018
     31 S         -18.0749   -8.0105   -3.8319 S.O2    1  UNL1        0.0101
     32 C         -16.3586   -7.9552   -4.2983 C.3     1  UNL1        0.1816
     33 O         -18.2988   -9.1132   -2.8359 O.2     1  UNL1       -0.1686
     34 O         -18.4389   -6.7073   -3.1768 O.2     1  UNL1       -0.1686
@<TRIPOS>BOND
     1    24    25    1
     2    25    26   ar
     3    26    27   ar
     4    27     1    1
     5     1     2    2
     6     1     3   am
     7     3     4    1
     8     4     5    1
     9     5     6    1
    10     6     7    1
    11     7     8   ar
    12     8     9   ar
    13     9    10   ar
    14    10    14    1
    15    14    15   ar
    16    15    16   ar
    17    16    17   ar
    18    17    18   ar
    19    18    19   ar
    20    19    20   ar
    21    20    21   ar
    22    21    22   ar
    23    10    11   ar
    24    11    12   ar
    25    12    13    1
    26    27    28   ar
    27    28    29   ar
    28    29    30   ar
    29    30    31    1
    30    31    32    1
    31    31    33    2
    32    31    34    2
    33    30    25   ar
    34    13     3    1
    35    12     7   ar
    36    22    14   ar
    37    21    17   ar
    38    20    23    1
@<TRIPOS>MOLECULE
*****
 34 38 0 0 0
SMALL
GASTEIGER

@<TRIPOS>ATOM
      1 C         -20.8946   -8.8283   -8.7574 C.2     1  UNL1        0.2494
      2 O         -20.5063   -9.8248   -9.4266 O.2     1  UNL1       -0.2699
      3 N         -21.9329   -7.9818   -9.2879 N.am    1  UNL1       -0.2680
      4 C         -21.7396   -6.5303   -9.3581 C.3     1  UNL1        0.1412
      5 C         -21.1169   -6.1425  -10.6953 C.3     1  UNL1        0.2268
      6 O         -21.9904   -6.4301  -11.7857 O.3     1  UNL1       -0.4739
      7 C         -22.1699   -7.7191  -12.3014 C.ar    1  UNL1        0.1362
      8 C         -21.9220   -7.9276  -13.6613 C.ar    1  UNL1        0.0366
      9 C         -22.0530   -9.1991  -14.2212 C.ar    1  UNL1        0.0031
     10 C         -22.4512  -10.2879  -13.4292 C.ar    1  UNL1       -0.0000
     11 C         -22.7325  -10.0733  -12.0687 C.ar    1  UNL1        0.0004
     12 C         -22.6007   -8.7959  -11.4965 C.ar    1  UNL1        0.0317
     13 C         -23.0203   -8.5779  -10.0653 C.3     1  UNL1        0.1236
     14 C         -22.5842  -11.6431  -14.0213 C.ar    1  UNL1        0.0015
     15 C         -21.4587  -12.5108  -14.0974 C.ar    1  UNL1        0.0016
     16 C         -21.5757  -13.7972  -14.6564 C.ar    1  UNL1        0.0206
     17 C         -22.8242  -14.1874  -15.1286 C.ar    1  UNL1        0.0985
     18 N         -23.1616  -15.3606  -15.6934 N.ar    1  UNL1       -0.2241
     19 C         -24.4856  -15.1996  -15.9557 C.ar    1  UNL1        0.1750
     20 N         -24.9682  -13.9908  -15.5797 N.ar    1  UNL1       -0.3349
     21 C         -23.9056  -13.3649  -15.0606 C.ar    1  UNL1        0.0757
     22 C         -23.8354  -12.0856  -14.5166 C.ar    1  UNL1        0.0185
     23 H         -25.9446  -13.6333  -15.6747 H       1  UNL1        0.1675
     24 C         -21.1629   -9.1020   -3.7630 C.3     1  UNL1        0.0324
     25 C         -20.3856   -8.7039   -4.9900 C.ar    1  UNL1       -0.0046
     26 C         -20.9602   -8.9324   -6.2531 C.ar    1  UNL1        0.0015
     27 C         -20.2897   -8.5662   -7.4307 C.ar    1  UNL1        0.0534
     28 C         -19.0198   -7.9821   -7.3377 C.ar    1  UNL1        0.0058
     29 C         -18.4442   -7.7362   -6.0913 C.ar    1  UNL1        0.0182
     30 C         -19.1184   -8.0737   -4.9083 C.ar    1  UNL1        0.1018
     31 S         -18.3203   -7.7262   -3.3636 S.O2    1  UNL1        0.0101
     32 C         -19.0634   -6.2935   -2.6142 C.3     1  UNL1        0.1816
     33 O         -16.8494   -7.4932   -3.5644 O.2     1  UNL1       -0.1686
     34 O         -18.4862   -8.8969   -2.4353 O.2     1  UNL1       -0.1686
@<TRIPOS>BOND
     1    24    25    1
     2    25    26   ar
     3    26    27   ar
     4    27     1    1
     5     1     2    2
     6     1     3   am
     7     3     4    1
     8     4     5    1
     9     5     6    1
    10     6     7    1
    11     7     8   ar
    12     8     9   ar
    13     9    10   ar
    14    10    14    1
    15    14    15   ar
    16    15    16   ar
    17    16    17   ar
    18    17    18   ar
    19    18    19   ar
    20    19    20   ar
    21    20    21   ar
    22    21    22   ar
    23    10    11   ar
    24    11    12   ar
    25    12    13    1
    26    27    28   ar
    27    28    29   ar
    28    29    30   ar
    29    30    31    1
    30    31    32    1
    31    31    33    2
    32    31    34    2
    33    30    25   ar
    34    13     3    1
    35    12     7   ar
    36    22    14   ar
    37    21    17   ar
    38    20    23    1
@<TRIPOS>MOLECULE
*****
 34 38 0 0 0
SMALL
GASTEIGER

@<TRIPOS>ATOM
      1 C         -24.0092   -8.3782  -14.0253 C.2     1  UNL1        0.2494
      2 O         -22.8072   -8.2213  -13.6754 O.2     1  UNL1       -0.2699
      3 N         -24.6697   -9.6276  -13.7447 N.am    1  UNL1       -0.2680
      4 C         -25.3663  -10.3517  -14.8122 C.3     1  UNL1        0.1412
      5 C         -24.4144  -11.3231  -15.5023 C.3     1  UNL1        0.2268
      6 O         -23.9753  -12.3499  -14.6147 O.3     1  UNL1       -0.4739
      7 C         -22.9860  -12.1498  -13.6448 C.ar    1  UNL1        0.1362
      8 C         -21.8612  -12.9796  -13.6667 C.ar    1  UNL1        0.0366
      9 C         -20.8293  -12.8031  -12.7441 C.ar    1  UNL1        0.0031
     10 C         -20.9116  -11.7971  -11.7681 C.ar    1  UNL1       -0.0000
     11 C         -22.0570  -10.9832  -11.7242 C.ar    1  UNL1        0.0004
     12 C         -23.0999  -11.1531  -12.6515 C.ar    1  UNL1        0.0317
     13 C         -24.3617  -10.3418  -12.5049 C.3     1  UNL1        0.1236
     14 C         -19.8115  -11.6028  -10.7899 C.ar    1  UNL1        0.0015
     15 C         -19.6008  -10.3323  -10.1842 C.ar    1  UNL1        0.0016
     16 C         -18.5609  -10.1392   -9.2554 C.ar    1  UNL1        0.0206
     17 C         -17.7517  -11.2290   -8.9529 C.ar    1  UNL1        0.0985
     18 N         -16.7117  -11.2715   -8.1009 N.ar    1  UNL1       -0.2241
     19 C         -16.2984  -12.5631   -8.1933 C.ar    1  UNL1        0.1750
     20 N         -17.0331  -13.3054   -9.0564 N.ar    1  UNL1       -0.3349
     21 C         -17.9450  -12.4469   -9.5271 C.ar    1  UNL1        0.0757
     22 C         -18.9600  -12.6827  -10.4500 C.ar    1  UNL1        0.0185
     23 H         -16.9125  -14.3144   -9.2964 H       1  UNL1        0.1675
     24 C         -24.7291   -5.5479  -18.0949 C.3     1  UNL1        0.0324
     25 C         -25.1057   -5.8791  -16.6748 C.ar    1  UNL1       -0.0046
     26 C         -24.4235   -6.9230  -16.0246 C.ar    1  UNL1        0.0015
     27 C         -24.7199   -7.2645  -14.6957 C.ar    1  UNL1        0.0534
     28 C         -25.7263   -6.5622  -14.0203 C.ar    1  UNL1        0.0058
     29 C         -26.4009   -5.5151  -14.6479 C.ar    1  UNL1        0.0182
     30 C         -26.0926   -5.1485  -15.9664 C.ar    1  UNL1        0.1018
     31 S         -26.9935   -3.8049  -16.6923 S.O2    1  UNL1        0.0101
     32 C         -28.6353   -3.7457  -16.0085 C.3     1  UNL1        0.1816
     33 O         -27.0668   -3.9575  -18.1854 O.2     1  UNL1       -0.1686
     34 O         -26.2972   -2.5077  -16.3881 O.2     1  UNL1       -0.1686
@<TRIPOS>BOND
     1    24    25    1
     2    25    26   ar
     3    26    27   ar
     4    27     1    1
     5     1     2    2
     6     1     3   am
     7     3     4    1
     8     4     5    1
     9     5     6    1
    10     6     7    1
    11     7     8   ar
    12     8     9   ar
    13     9    10   ar
    14    10    14    1
    15    14    15   ar
    16    15    16   ar
    17    16    17   ar
    18    17    18   ar
    19    18    19   ar
    20    19    20   ar
    21    20    21   ar
    22    21    22   ar
    23    10    11   ar
    24    11    12   ar
    25    12    13    1
    26    27    28   ar
    27    28    29   ar
    28    29    30   ar
    29    30    31    1
    30    31    32    1
    31    31    33    2
    32    31    34    2
    33    30    25   ar
    34    13     3    1
    35    12     7   ar
    36    22    14   ar
    37    21    17   ar
    38    20    23    1
@<TRIPOS>MOLECULE
*****
 34 38 0 0 0
SMALL
GASTEIGER

@<TRIPOS>ATOM
      1 C         -22.4820   -9.2957  -11.2949 C.2     1  UNL1        0.2494
      2 O         -22.4182   -8.2240  -11.9575 O.2     1  UNL1       -0.2699
      3 N         -23.7584   -9.9387  -11.1121 N.am    1  UNL1       -0.2680
      4 C         -24.2098  -10.3177   -9.7698 C.3     1  UNL1        0.1412
      5 C         -24.9995   -9.1780   -9.1346 C.3     1  UNL1        0.2268
      6 O         -26.2074   -8.9140   -9.8460 O.3     1  UNL1       -0.4739
      7 C         -26.2447   -8.2005  -11.0498 C.ar    1  UNL1        0.1362
      8 C         -27.0532   -7.0623  -11.1190 C.ar    1  UNL1        0.0366
      9 C         -27.1027   -6.2948  -12.2834 C.ar    1  UNL1        0.0031
     10 C         -26.3512   -6.6630  -13.4108 C.ar    1  UNL1       -0.0000
     11 C         -25.5631   -7.8257  -13.3536 C.ar    1  UNL1        0.0004
     12 C         -25.5060   -8.6029  -12.1836 C.ar    1  UNL1        0.0317
     13 C         -24.7436   -9.9031  -12.1939 C.3     1  UNL1        0.1236
     14 C         -26.3967   -5.8439  -14.6485 C.ar    1  UNL1        0.0015
     15 C         -25.3469   -5.9245  -15.6059 C.ar    1  UNL1        0.0016
     16 C         -25.3820   -5.1523  -16.7822 C.ar    1  UNL1        0.0206
     17 C         -26.4739   -4.3126  -16.9737 C.ar    1  UNL1        0.0985
     18 N         -26.7123   -3.4956  -18.0153 N.ar    1  UNL1       -0.2241
     19 C         -27.9016   -2.9258  -17.6859 C.ar    1  UNL1        0.1750
     20 N         -28.3964   -3.3544  -16.4997 N.ar    1  UNL1       -0.3349
     21 C         -27.4818   -4.2284  -16.0640 C.ar    1  UNL1        0.0757
     22 C         -27.4880   -4.9730  -14.8879 C.ar    1  UNL1        0.0185
     23 H         -29.2864   -3.0667  -16.0356 H       1  UNL1        0.1675
     24 C         -19.2216  -13.0922  -11.0792 C.3     1  UNL1        0.0324
     25 C         -19.6200  -11.7111  -10.6298 C.ar    1  UNL1       -0.0046
     26 C         -20.8085  -11.1560  -11.1370 C.ar    1  UNL1        0.0015
     27 C         -21.2386   -9.8800  -10.7405 C.ar    1  UNL1        0.0534
     28 C         -20.4555   -9.1467   -9.8398 C.ar    1  UNL1        0.0058
     29 C         -19.2822   -9.6907   -9.3175 C.ar    1  UNL1        0.0182
     30 C         -18.8585  -10.9760   -9.6868 C.ar    1  UNL1        0.1018
     31 S         -17.3573  -11.5971   -8.9764 S.O2    1  UNL1        0.0101
     32 C         -17.3486  -11.2831   -7.2249 C.3     1  UNL1        0.1816
     33 O         -16.1592  -10.9548   -9.6168 O.2     1  UNL1       -0.1686
     34 O         -17.2689  -13.0809   -9.2009 O.2     1  UNL1       -0.1686
@<TRIPOS>BOND
     1    24    25    1
     2    25    26   ar
     3    26    27   ar
     4    27     1    1
     5     1     2    2
     6     1     3   am
     7     3     4    1
     8     4     5    1
     9     5     6    1
    10     6     7    1
    11     7     8   ar
    12     8     9   ar
    13     9    10   ar
    14    10    14    1
    15    14    15   ar
    16    15    16   ar
    17    16    17   ar
    18    17    18   ar
    19    18    19   ar
    20    19    20   ar
    21    20    21   ar
    22    21    22   ar
    23    10    11   ar
    24    11    12   ar
    25    12    13    1
    26    27    28   ar
    27    28    29   ar
    28    29    30   ar
    29    30    31    1
    30    31    32    1
    31    31    33    2
    32    31    34    2
    33    30    25   ar
    34    13     3    1
    35    12     7   ar
    36    22    14   ar
    37    21    17   ar
    38    20    23    1
@<TRIPOS>MOLECULE
*****
 34 38 0 0 0
SMALL
GASTEIGER

@<TRIPOS>ATOM
      1 C         -21.0562   -8.4490   -8.7993 C.2     1  UNL1        0.2494
      2 O         -22.2989   -8.2438   -8.8725 O.2     1  UNL1       -0.2699
      3 N         -20.3200   -8.7630   -9.9974 N.am    1  UNL1       -0.2680
      4 C         -19.4458   -9.9390  -10.0410 C.3     1  UNL1        0.1412
      5 C         -20.2224  -11.1591  -10.5251 C.3     1  UNL1        0.2268
      6 O         -20.6621  -11.0024  -11.8731 O.3     1  UNL1       -0.4739
      7 C         -21.7673  -10.2210  -12.2302 C.ar    1  UNL1        0.1362
      8 C         -22.8023  -10.8283  -12.9472 C.ar    1  UNL1        0.0366
      9 C         -23.9423  -10.1052  -13.3005 C.ar    1  UNL1        0.0031
     10 C         -24.0611   -8.7498  -12.9538 C.ar    1  UNL1       -0.0000
     11 C         -23.0067   -8.1293  -12.2614 C.ar    1  UNL1        0.0004
     12 C         -21.8560   -8.8514  -11.8998 C.ar    1  UNL1        0.0317
     13 C         -20.6976   -8.1288  -11.2612 C.3     1  UNL1        0.1236
     14 C         -25.2764   -7.9803  -13.3223 C.ar    1  UNL1        0.0015
     15 C         -26.5674   -8.4477  -12.9477 C.ar    1  UNL1        0.0016
     16 C         -27.7247   -7.7245  -13.2921 C.ar    1  UNL1        0.0206
     17 C         -27.5616   -6.5431  -14.0075 C.ar    1  UNL1        0.0985
     18 N         -28.5185   -5.7003  -14.4354 N.ar    1  UNL1       -0.2241
     19 C         -27.8058   -4.7290  -15.0649 C.ar    1  UNL1        0.1750
     20 N         -26.4675   -4.9388  -15.0410 N.ar    1  UNL1       -0.3349
     21 C         -26.3319   -6.0887  -14.3704 C.ar    1  UNL1        0.0757
     22 C         -25.1615   -6.7713  -14.0515 C.ar    1  UNL1        0.0185
     23 H         -25.7179   -4.3394  -15.4521 H       1  UNL1        0.1675
     24 C         -21.0994   -9.2017   -3.8473 C.3     1  UNL1        0.0324
     25 C         -20.3660   -8.7117   -5.0681 C.ar    1  UNL1       -0.0046
     26 C         -21.0078   -8.7958   -6.3167 C.ar    1  UNL1        0.0015
     27 C         -20.3798   -8.3387   -7.4859 C.ar    1  UNL1        0.0534
     28 C         -19.0854   -7.8097   -7.4016 C.ar    1  UNL1        0.0058
     29 C         -18.4427   -7.7067   -6.1680 C.ar    1  UNL1        0.0182
     30 C         -19.0730   -8.1356   -4.9904 C.ar    1  UNL1        0.1018
     31 S         -18.1902   -7.9683   -3.4618 S.O2    1  UNL1        0.0101
     32 C         -18.8670   -6.6160   -2.5239 C.3     1  UNL1        0.1816
     33 O         -16.7275   -7.7340   -3.7141 O.2     1  UNL1       -0.1686
     34 O         -18.3300   -9.2307   -2.6576 O.2     1  UNL1       -0.1686
@<TRIPOS>BOND
     1    24    25    1
     2    25    26   ar
     3    26    27   ar
     4    27     1    1
     5     1     2    2
     6     1     3   am
     7     3     4    1
     8     4     5    1
     9     5     6    1
    10     6     7    1
    11     7     8   ar
    12     8     9   ar
    13     9    10   ar
    14    10    14    1
    15    14    15   ar
    16    15    16   ar
    17    16    17   ar
    18    17    18   ar
    19    18    19   ar
    20    19    20   ar
    21    20    21   ar
    22    21    22   ar
    23    10    11   ar
    24    11    12   ar
    25    12    13    1
    26    27    28   ar
    27    28    29   ar
    28    29    30   ar
    29    30    31    1
    30    31    32    1
    31    31    33    2
    32    31    34    2
    33    30    25   ar
    34    13     3    1
    35    12     7   ar
    36    22    14   ar
    37    21    17   ar
    38    20    23    1
@<TRIPOS>MOLECULE
*****
 34 38 0 0 0
SMALL
GASTEIGER

@<TRIPOS>ATOM
      1 C         -26.3993   -6.4036  -13.9398 C.2     1  UNL1        0.2494
      2 O         -26.0143   -7.5356  -14.3421 O.2     1  UNL1       -0.2699
      3 N         -26.0133   -5.9510  -12.6275 N.am    1  UNL1       -0.2680
      4 C         -27.0253   -5.4593  -11.6877 C.3     1  UNL1        0.1412
      5 C         -27.5601   -6.6064  -10.8366 C.3     1  UNL1        0.2268
      6 O         -26.5458   -7.1574   -9.9985 O.3     1  UNL1       -0.4739
      7 C         -25.5596   -8.0332  -10.4676 C.ar    1  UNL1        0.1362
      8 C         -25.4387   -9.2829   -9.8530 C.ar    1  UNL1        0.0366
      9 C         -24.4949  -10.2077  -10.3018 C.ar    1  UNL1        0.0031
     10 C         -23.6403   -9.8911  -11.3700 C.ar    1  UNL1       -0.0000
     11 C         -23.7387   -8.6225  -11.9675 C.ar    1  UNL1        0.0004
     12 C         -24.6883   -7.6861  -11.5228 C.ar    1  UNL1        0.0317
     13 C         -24.6896   -6.2968  -12.1074 C.3     1  UNL1        0.1236
     14 C         -22.6403  -10.8763  -11.8539 C.ar    1  UNL1        0.0015
     15 C         -21.5116  -11.2107  -11.0541 C.ar    1  UNL1        0.0016
     16 C         -20.5590  -12.1440  -11.5045 C.ar    1  UNL1        0.0206
     17 C         -20.7601  -12.7242  -12.7522 C.ar    1  UNL1        0.0985
     18 N         -19.9862  -13.6328  -13.3726 N.ar    1  UNL1       -0.2241
     19 C         -20.6472  -13.8447  -14.5412 C.ar    1  UNL1        0.1750
     20 N         -21.7807  -13.1124  -14.6618 N.ar    1  UNL1       -0.3349
     21 C         -21.8355  -12.4106  -13.5239 C.ar    1  UNL1        0.0757
     22 C         -22.8012  -11.4937  -13.1186 C.ar    1  UNL1        0.0185
     23 H         -22.4538  -13.1009  -15.4599 H       1  UNL1        0.1675
     24 C         -30.8878   -4.6410  -15.2954 C.3     1  UNL1        0.0324
     25 C         -29.3970   -4.6653  -15.5082 C.ar    1  UNL1       -0.0046
     26 C         -28.6121   -5.4807  -14.6733 C.ar    1  UNL1        0.0015
     27 C         -27.2200   -5.5566  -14.8364 C.ar    1  UNL1        0.0534
     28 C         -26.6086   -4.7896  -15.8365 C.ar    1  UNL1        0.0058
     29 C         -27.3762   -3.9879  -16.6812 C.ar    1  UNL1        0.0182
     30 C         -28.7709   -3.9267  -16.5436 C.ar    1  UNL1        0.1018
     31 S         -29.6755   -2.8860  -17.6584 S.O2    1  UNL1        0.0101
     32 C         -28.5548   -2.1322  -18.8170 C.3     1  UNL1        0.1816
     33 O         -30.4242   -1.8225  -16.9056 O.2     1  UNL1       -0.1686
     34 O         -30.6745   -3.7111  -18.4207 O.2     1  UNL1       -0.1686
@<TRIPOS>BOND
     1    24    25    1
     2    25    26   ar
     3    26    27   ar
     4    27     1    1
     5     1     2    2
     6     1     3   am
     7     3     4    1
     8     4     5    1
     9     5     6    1
    10     6     7    1
    11     7     8   ar
    12     8     9   ar
    13     9    10   ar
    14    10    14    1
    15    14    15   ar
    16    15    16   ar
    17    16    17   ar
    18    17    18   ar
    19    18    19   ar
    20    19    20   ar
    21    20    21   ar
    22    21    22   ar
    23    10    11   ar
    24    11    12   ar
    25    12    13    1
    26    27    28   ar
    27    28    29   ar
    28    29    30   ar
    29    30    31    1
    30    31    32    1
    31    31    33    2
    32    31    34    2
    33    30    25   ar
    34    13     3    1
    35    12     7   ar
    36    22    14   ar
    37    21    17   ar
    38    20    23    1
@<TRIPOS>MOLECULE
*****
 34 38 0 0 0
SMALL
GASTEIGER

@<TRIPOS>ATOM
      1 C         -15.0926    1.1845  -17.8780 C.2     1  UNL1        0.2494
      2 O         -16.1615    1.7340  -17.4942 O.2     1  UNL1       -0.2699
      3 N         -14.2818    0.4722  -16.9235 N.am    1  UNL1       -0.2680
      4 C         -12.8501    0.7645  -16.8056 C.3     1  UNL1        0.1412
      5 C         -12.6166    1.8633  -15.7740 C.3     1  UNL1        0.2268
      6 O         -12.9951    1.4443  -14.4639 O.3     1  UNL1       -0.4739
      7 C         -14.3259    1.3933  -14.0328 C.ar    1  UNL1        0.1362
      8 C         -14.6792    2.1178  -12.8908 C.ar    1  UNL1        0.0366
      9 C         -15.9983    2.1292  -12.4356 C.ar    1  UNL1        0.0031
     10 C         -16.9902    1.3996  -13.1102 C.ar    1  UNL1       -0.0000
     11 C         -16.6300    0.6442  -14.2398 C.ar    1  UNL1        0.0004
     12 C         -15.3038    0.6294  -14.7060 C.ar    1  UNL1        0.0317
     13 C         -14.9298   -0.2802  -15.8482 C.3     1  UNL1        0.1236
     14 C         -18.3959    1.4160  -12.6319 C.ar    1  UNL1        0.0015
     15 C         -19.3855    0.6193  -13.2732 C.ar    1  UNL1        0.0016
     16 C         -20.7201    0.6281  -12.8262 C.ar    1  UNL1        0.0206
     17 C         -21.0346    1.4389  -11.7410 C.ar    1  UNL1        0.0985
     18 N         -22.2332    1.5986  -11.1519 N.ar    1  UNL1       -0.2241
     19 C         -21.9657    2.4879  -10.1594 C.ar    1  UNL1        0.1750
     20 N         -20.6682    2.8755  -10.1159 N.ar    1  UNL1       -0.3349
     21 C         -20.0957    2.2042  -11.1219 C.ar    1  UNL1        0.0757
     22 C         -18.7652    2.2265  -11.5304 C.ar    1  UNL1        0.0185
     23 H         -20.2215    3.5441   -9.4499 H       1  UNL1        0.1675
     24 C         -14.6094   -1.0258  -22.3470 C.3     1  UNL1        0.0324
     25 C         -14.4806    0.2163  -21.5051 C.ar    1  UNL1       -0.0046
     26 C         -14.8253    0.1442  -20.1435 C.ar    1  UNL1        0.0015
     27 C         -14.7090    1.2651  -19.3067 C.ar    1  UNL1        0.0534
     28 C         -14.2601    2.4763  -19.8490 C.ar    1  UNL1        0.0058
     29 C         -13.9009    2.5585  -21.1942 C.ar    1  UNL1        0.0182
     30 C         -13.9877    1.4366  -22.0319 C.ar    1  UNL1        0.1018
     31 S         -13.5098    1.6225  -23.7293 S.O2    1  UNL1        0.0101
     32 C         -12.6153    3.1468  -23.9364 C.3     1  UNL1        0.1816
     33 O         -14.7151    1.6111  -24.6266 O.2     1  UNL1       -0.1686
     34 O         -12.6172    0.4812  -24.1300 O.2     1  UNL1       -0.1686
@<TRIPOS>BOND
     1    24    25    1
     2    25    26   ar
     3    26    27   ar
     4    27     1    1
     5     1     2    2
     6     1     3   am
     7     3     4    1
     8     4     5    1
     9     5     6    1
    10     6     7    1
    11     7     8   ar
    12     8     9   ar
    13     9    10   ar
    14    10    14    1
    15    14    15   ar
    16    15    16   ar
    17    16    17   ar
    18    17    18   ar
    19    18    19   ar
    20    19    20   ar
    21    20    21   ar
    22    21    22   ar
    23    10    11   ar
    24    11    12   ar
    25    12    13    1
    26    27    28   ar
    27    28    29   ar
    28    29    30   ar
    29    30    31    1
    30    31    32    1
    31    31    33    2
    32    31    34    2
    33    30    25   ar
    34    13     3    1
    35    12     7   ar
    36    22    14   ar
    37    21    17   ar
    38    20    23    1
@<TRIPOS>MOLECULE
*****
 34 38 0 0 0
SMALL
GASTEIGER

@<TRIPOS>ATOM
      1 C         -25.2844   -8.0787  -13.0447 C.2     1  UNL1        0.2494
      2 O         -24.2544   -7.5551  -12.5383 O.2     1  UNL1       -0.2699
      3 N         -25.4366   -9.5111  -13.0149 N.am    1  UNL1       -0.2680
      4 C         -25.7432  -10.2478  -14.2448 C.3     1  UNL1        0.1412
      5 C         -24.4556  -10.6722  -14.9434 C.3     1  UNL1        0.2268
      6 O         -23.7121  -11.6019  -14.1574 O.3     1  UNL1       -0.4739
      7 C         -22.9307  -11.2214  -13.0600 C.ar    1  UNL1        0.1362
      8 C         -21.5760  -11.5661  -13.0618 C.ar    1  UNL1        0.0366
      9 C         -20.7435  -11.1836  -12.0092 C.ar    1  UNL1        0.0031
     10 C         -21.2578  -10.4582  -10.9226 C.ar    1  UNL1       -0.0000
     11 C         -22.6268  -10.1392  -10.9038 C.ar    1  UNL1        0.0004
     12 C         -23.4716  -10.5188  -11.9614 C.ar    1  UNL1        0.0317
     13 C         -24.9531  -10.2622  -11.8555 C.3     1  UNL1        0.1236
     14 C         -20.3724  -10.0439   -9.8049 C.ar    1  UNL1        0.0015
     15 C         -19.0812  -10.6233   -9.6546 C.ar    1  UNL1        0.0016
     16 C         -18.2349  -10.2361   -8.5986 C.ar    1  UNL1        0.0206
     17 C         -18.7037   -9.2721   -7.7127 C.ar    1  UNL1        0.0985
     18 N         -18.0693   -8.7569   -6.6444 N.ar    1  UNL1       -0.2241
     19 C         -18.9754   -7.8704   -6.1538 C.ar    1  UNL1        0.1750
     20 N         -20.1253   -7.8211   -6.8686 N.ar    1  UNL1       -0.3349
     21 C         -19.9364   -8.7130   -7.8480 C.ar    1  UNL1        0.0757
     22 C         -20.8057   -9.0659   -8.8762 C.ar    1  UNL1        0.0185
     23 H         -20.9636   -7.2239   -6.6927 H       1  UNL1        0.1675
     24 C         -26.5014   -4.0180  -15.7131 C.3     1  UNL1        0.0324
     25 C         -26.9471   -5.2393  -14.9529 C.ar    1  UNL1       -0.0046
     26 C         -25.9673   -6.0639  -14.3717 C.ar    1  UNL1        0.0015
     27 C         -26.3244   -7.2056  -13.6372 C.ar    1  UNL1        0.0534
     28 C         -27.6799   -7.5322  -13.5024 C.ar    1  UNL1        0.0058
     29 C         -28.6629   -6.7155  -14.0610 C.ar    1  UNL1        0.0182
     30 C         -28.3168   -5.5577  -14.7734 C.ar    1  UNL1        0.1018
     31 S         -29.6253   -4.5711  -15.4506 S.O2    1  UNL1        0.0101
     32 C         -31.1904   -5.3611  -15.1461 C.3     1  UNL1        0.1816
     33 O         -29.4323   -4.3709  -16.9273 O.2     1  UNL1       -0.1686
     34 O         -29.6309   -3.2197  -14.7920 O.2     1  UNL1       -0.1686
@<TRIPOS>BOND
     1    24    25    1
     2    25    26   ar
     3    26    27   ar
     4    27     1    1
     5     1     2    2
     6     1     3   am
     7     3     4    1
     8     4     5    1
     9     5     6    1
    10     6     7    1
    11     7     8   ar
    12     8     9   ar
    13     9    10   ar
    14    10    14    1
    15    14    15   ar
    16    15    16   ar
    17    16    17   ar
    18    17    18   ar
    19    18    19   ar
    20    19    20   ar
    21    20    21   ar
    22    21    22   ar
    23    10    11   ar
    24    11    12   ar
    25    12    13    1
    26    27    28   ar
    27    28    29   ar
    28    29    30   ar
    29    30    31    1
    30    31    32    1
    31    31    33    2
    32    31    34    2
    33    30    25   ar
    34    13     3    1
    35    12     7   ar
    36    22    14   ar
    37    21    17   ar
    38    20    23    1
@<TRIPOS>MOLECULE
*****
 34 38 0 0 0
SMALL
GASTEIGER

@<TRIPOS>ATOM
      1 C         -27.6465   -6.8268  -14.2289 C.2     1  UNL1        0.2494
      2 O         -27.8841   -8.0469  -14.4446 O.2     1  UNL1       -0.2699
      3 N         -26.3907   -6.4457  -13.6341 N.am    1  UNL1       -0.2680
      4 C         -26.3651   -5.5735  -12.4561 C.3     1  UNL1        0.1412
      5 C         -26.4057   -6.4062  -11.1790 C.3     1  UNL1        0.2268
      6 O         -25.2377   -7.2133  -11.0396 O.3     1  UNL1       -0.4739
      7 C         -25.0430   -8.4043  -11.7489 C.ar    1  UNL1        0.1362
      8 C         -24.8027   -9.5745  -11.0230 C.ar    1  UNL1        0.0366
      9 C         -24.6344  -10.7955  -11.6774 C.ar    1  UNL1        0.0031
     10 C         -24.6889  -10.8652  -13.0787 C.ar    1  UNL1       -0.0000
     11 C         -24.8979   -9.6839  -13.8115 C.ar    1  UNL1        0.0004
     12 C         -25.0706   -8.4504  -13.1596 C.ar    1  UNL1        0.0317
     13 C         -25.1771   -7.1885  -13.9771 C.3     1  UNL1        0.1236
     14 C         -24.5174  -12.1645  -13.7768 C.ar    1  UNL1        0.0015
     15 C         -25.6398  -13.0031  -14.0264 C.ar    1  UNL1        0.0016
     16 C         -25.4866  -14.2359  -14.6881 C.ar    1  UNL1        0.0206
     17 C         -24.2058  -14.6024  -15.0870 C.ar    1  UNL1        0.0985
     18 N         -23.8323  -15.7234  -15.7297 N.ar    1  UNL1       -0.2241
     19 C         -22.4899  -15.5597  -15.8667 C.ar    1  UNL1        0.1750
     20 N         -22.0303  -14.3986  -15.3411 N.ar    1  UNL1       -0.3349
     21 C         -23.1270  -13.8078  -14.8525 C.ar    1  UNL1        0.0757
     22 C         -23.2321  -12.5817  -14.2019 C.ar    1  UNL1        0.0185
     23 H         -21.0467  -14.0489  -15.3230 H       1  UNL1        0.1675
     24 C         -28.8584   -2.7123  -16.8159 C.3     1  UNL1        0.0324
     25 C         -29.2803   -3.8158  -15.8818 C.ar    1  UNL1       -0.0046
     26 C         -28.3241   -4.7722  -15.4962 C.ar    1  UNL1        0.0015
     27 C         -28.6556   -5.8129  -14.6144 C.ar    1  UNL1        0.0534
     28 C         -29.9672   -5.9041  -14.1309 C.ar    1  UNL1        0.0058
     29 C         -30.9219   -4.9542  -14.4934 C.ar    1  UNL1        0.0182
     30 C         -30.5929   -3.8950  -15.3524 C.ar    1  UNL1        0.1018
     31 S         -31.8625   -2.7273  -15.7631 S.O2    1  UNL1        0.0101
     32 C         -33.4538   -3.3952  -15.3294 C.3     1  UNL1        0.1816
     33 O         -31.8289   -2.3970  -17.2287 O.2     1  UNL1       -0.1686
     34 O         -31.6468   -1.4552  -14.9916 O.2     1  UNL1       -0.1686
@<TRIPOS>BOND
     1    24    25    1
     2    25    26   ar
     3    26    27   ar
     4    27     1    1
     5     1     2    2
     6     1     3   am
     7     3     4    1
     8     4     5    1
     9     5     6    1
    10     6     7    1
    11     7     8   ar
    12     8     9   ar
    13     9    10   ar
    14    10    14    1
    15    14    15   ar
    16    15    16   ar
    17    16    17   ar
    18    17    18   ar
    19    18    19   ar
    20    19    20   ar
    21    20    21   ar
    22    21    22   ar
    23    10    11   ar
    24    11    12   ar
    25    12    13    1
    26    27    28   ar
    27    28    29   ar
    28    29    30   ar
    29    30    31    1
    30    31    32    1
    31    31    33    2
    32    31    34    2
    33    30    25   ar
    34    13     3    1
    35    12     7   ar
    36    22    14   ar
    37    21    17   ar
    38    20    23    1
