@<TRIPOS>MOLECULE
*****
 46 51 0 0 0
SMALL
GASTEIGER

@<TRIPOS>ATOM
      1 C          -8.0969  -14.3871   28.0043 C.ar    1  UNL1        0.0702
      2 C          -7.3513  -13.3516   28.5809 C.ar    1  UNL1        0.0191
      3 C          -7.9553  -12.4575   29.4659 C.ar    1  UNL1        0.0356
      4 C          -9.3180  -12.6002   29.7715 C.ar    1  UNL1        0.1318
      5 N         -10.0334  -13.5901   29.1686 N.ar    1  UNL1       -0.2279
      6 C          -9.4658  -14.4739   28.3059 C.ar    1  UNL1        0.1149
      7 N          -9.9816  -11.6840   30.6628 N.pl3   1  UNL1       -0.2932
      8 C         -11.4106  -11.8778   30.9508 C.3     1  UNL1        0.0923
      9 C         -12.0059  -10.6745   31.6981 C.3     1  UNL1        0.0252
     10 C         -11.4628   -9.3615   31.1048 C.3     1  UNL1        0.0472
     11 C          -9.9166   -9.2745   31.2292 C.3     1  UNL1        0.0252
     12 C          -9.2380  -10.6453   31.3898 C.3     1  UNL1        0.0923
     13 C         -12.1481   -8.1475   31.7603 C.3     1  UNL1        0.2054
     14 O         -12.0288   -6.9845   30.9389 O.3     1  UNL1       -0.4755
     15 C         -10.8450   -6.2647   30.7075 C.ar    1  UNL1        0.1388
     16 C         -10.7398   -5.2689   29.7181 C.ar    1  UNL1        0.0369
     17 C          -9.5352   -4.5876   29.5329 C.ar    1  UNL1        0.0033
     18 C          -8.4278   -4.8858   30.3294 C.ar    1  UNL1        0.0066
     19 C          -8.5151   -5.8725   31.3266 C.ar    1  UNL1        0.0785
     20 C          -9.7318   -6.5542   31.5069 C.ar    1  UNL1        0.0433
     21 C          -7.3464   -6.1926   32.1757 C.2     1  UNL1        0.3381
     22 O          -6.1807   -6.1619   31.6959 O.2     1  UNL1       -0.2451
     23 O          -7.5231   -6.5315   33.5149 O.3     1  UNL1       -0.4771
     24 H          -6.7297   -6.7524   34.1048 H       1  UNL1        0.2954
     25 C          -7.8038  -15.3579   25.6817 C.2     1  UNL1        0.2839
     26 O          -8.9503  -15.0089   25.2914 O.2     1  UNL1       -0.2665
     27 N          -7.4680  -15.2869   27.0755 N.am    1  UNL1       -0.2766
     28 H          -6.8092  -16.0034   27.4545 H       1  UNL1        0.1553
     29 C          -4.8908  -17.9390   21.1910 C.ar    1  UNL1       -0.0191
     30 C          -6.1526  -17.6229   21.7450 C.ar    1  UNL1        0.0332
     31 C          -6.1949  -16.9198   22.9433 C.ar    1  UNL1        0.1449
     32 O          -7.2603  -16.5393   23.6051 O.2     1  UNL1       -0.4492
     33 C          -6.8585  -15.9124   24.6968 C.ar    1  UNL1        0.1946
     34 C          -5.4594  -15.8658   24.7332 C.ar    1  UNL1        0.0202
     35 C          -4.5725  -15.2329   25.7627 C.3     1  UNL1        0.0345
     36 C          -5.0570  -16.5383   23.5966 C.ar    1  UNL1        0.0337
     37 C          -3.7911  -16.8355   23.0984 C.ar    1  UNL1        0.0025
     38 C          -3.6996  -17.5420   21.8794 C.ar    1  UNL1       -0.0038
     39 C          -2.3551  -17.8589   21.3593 C.ar    1  UNL1       -0.0003
     40 C          -1.7561  -19.0911   21.6640 C.ar    1  UNL1       -0.0000
     41 C          -0.4749  -19.3861   21.1877 C.ar    1  UNL1       -0.0000
     42 C           0.2180  -18.4495   20.4151 C.ar    1  UNL1       -0.0000
     43 C          -0.3677  -17.2146   20.1212 C.ar    1  UNL1       -0.0000
     44 C          -1.6486  -16.9161   20.5958 C.ar    1  UNL1       -0.0000
     45 C          -5.1823  -20.2317   20.2369 C.3     1  UNL1        0.0050
     46 C          -4.8480  -18.7750   19.9321 C.3     1  UNL1        0.0265
@<TRIPOS>BOND
     1    45    46    1
     2    46    29    1
     3    29    30   ar
     4    30    31   ar
     5    31    32   ar
     6    32    33   ar
     7    33    25    1
     8    25    26    2
     9    25    27   am
    10    27     1    1
    11     1     2   ar
    12     2     3   ar
    13     3     4   ar
    14     4     7    1
    15     7     8    1
    16     8     9    1
    17     9    10    1
    18    10    13    1
    19    13    14    1
    20    14    15    1
    21    15    16   ar
    22    16    17   ar
    23    17    18   ar
    24    18    19   ar
    25    19    21    1
    26    21    22    2
    27    21    23    1
    28    19    20   ar
    29    10    11    1
    30    11    12    1
    31     4     5   ar
    32     5     6   ar
    33    33    34   ar
    34    34    35    1
    35    34    36   ar
    36    36    37   ar
    37    37    38   ar
    38    38    39    1
    39    39    40   ar
    40    40    41   ar
    41    41    42   ar
    42    42    43   ar
    43    43    44   ar
    44    38    29   ar
    45    44    39   ar
    46    36    31   ar
    47     6     1   ar
    48    12     7    1
    49    20    15   ar
    50    27    28    1
    51    23    24    1
@<TRIPOS>MOLECULE
*****
 46 51 0 0 0
SMALL
GASTEIGER

@<TRIPOS>ATOM
      1 C          -8.5690  -15.7241   25.3712 C.ar    1  UNL1        0.0702
      2 C          -9.4305  -16.7180   24.8911 C.ar    1  UNL1        0.0191
      3 C          -9.0245  -17.5621   23.8566 C.ar    1  UNL1        0.0356
      4 C          -7.7468  -17.4057   23.2966 C.ar    1  UNL1        0.1318
      5 N          -6.9403  -16.4069   23.7518 N.ar    1  UNL1       -0.2279
      6 C          -7.3134  -15.5749   24.7598 C.ar    1  UNL1        0.1149
      7 N          -7.3006  -18.2429   22.2131 N.pl3   1  UNL1       -0.2932
      8 C          -7.4279  -19.7025   22.3402 C.3     1  UNL1        0.0923
      9 C          -6.6719  -20.4363   21.2218 C.3     1  UNL1        0.0252
     10 C          -5.3160  -19.7539   20.9634 C.3     1  UNL1        0.0472
     11 C          -5.4953  -18.2761   20.5188 C.3     1  UNL1        0.0252
     12 C          -6.8458  -17.6712   20.9377 C.3     1  UNL1        0.0923
     13 C          -4.4950  -20.5542   19.9345 C.3     1  UNL1        0.2054
     14 O          -3.1269  -20.6541   20.3344 O.3     1  UNL1       -0.4755
     15 C          -2.1526  -19.6553   20.1721 C.ar    1  UNL1        0.1388
     16 C          -2.3935  -18.4642   19.4615 C.ar    1  UNL1        0.0369
     17 C          -1.3846  -17.5077   19.3318 C.ar    1  UNL1        0.0033
     18 C          -0.1315  -17.7232   19.9087 C.ar    1  UNL1        0.0066
     19 C           0.1262  -18.9035   20.6272 C.ar    1  UNL1        0.0785
     20 C          -0.8950  -19.8619   20.7534 C.ar    1  UNL1        0.0433
     21 C           1.4512  -19.1379   21.2429 C.2     1  UNL1        0.3381
     22 O           1.7573  -20.2784   21.6847 O.2     1  UNL1       -0.2451
     23 O           2.3738  -18.0994   21.3404 O.3     1  UNL1       -0.4771
     24 H           3.2835  -18.2492   21.7601 H       1  UNL1        0.2954
     25 C          -8.4211  -14.8100   27.7303 C.2     1  UNL1        0.2839
     26 O          -7.8390  -15.8302   28.1873 O.2     1  UNL1       -0.2665
     27 N          -9.0088  -14.8455   26.4211 N.am    1  UNL1       -0.2766
     28 H          -9.8719  -14.2799   26.2596 H       1  UNL1        0.1553
     29 C         -10.0061  -10.3379   31.3084 C.ar    1  UNL1       -0.0191
     30 C         -10.4215  -11.5162   30.6464 C.ar    1  UNL1        0.0332
     31 C          -9.4938  -12.2080   29.8764 C.ar    1  UNL1        0.1449
     32 O          -9.6898  -13.3100   29.1944 O.2     1  UNL1       -0.4492
     33 C          -8.5551  -13.6240   28.5944 C.ar    1  UNL1        0.1946
     34 C          -7.5664  -12.6880   28.9222 C.ar    1  UNL1        0.0202
     35 C          -6.1292  -12.6600   28.4974 C.3     1  UNL1        0.0345
     36 C          -8.2049  -11.7758   29.7384 C.ar    1  UNL1        0.0337
     37 C          -7.7502  -10.6158   30.3603 C.ar    1  UNL1        0.0025
     38 C          -8.6561   -9.8844   31.1589 C.ar    1  UNL1       -0.0038
     39 C          -8.1698   -8.6527   31.8109 C.ar    1  UNL1       -0.0003
     40 C          -8.6442   -7.4005   31.3905 C.ar    1  UNL1       -0.0000
     41 C          -8.1712   -6.2313   31.9942 C.ar    1  UNL1       -0.0000
     42 C          -7.2155   -6.3058   33.0118 C.ar    1  UNL1       -0.0000
     43 C          -6.7282   -7.5495   33.4241 C.ar    1  UNL1       -0.0000
     44 C          -7.1988   -8.7207   32.8228 C.ar    1  UNL1       -0.0000
     45 C         -11.9436  -10.4686   32.8834 C.3     1  UNL1        0.0050
     46 C         -11.0379   -9.5437   32.0766 C.3     1  UNL1        0.0265
@<TRIPOS>BOND
     1    45    46    1
     2    46    29    1
     3    29    30   ar
     4    30    31   ar
     5    31    32   ar
     6    32    33   ar
     7    33    25    1
     8    25    26    2
     9    25    27   am
    10    27     1    1
    11     1     2   ar
    12     2     3   ar
    13     3     4   ar
    14     4     7    1
    15     7     8    1
    16     8     9    1
    17     9    10    1
    18    10    13    1
    19    13    14    1
    20    14    15    1
    21    15    16   ar
    22    16    17   ar
    23    17    18   ar
    24    18    19   ar
    25    19    21    1
    26    21    22    2
    27    21    23    1
    28    19    20   ar
    29    10    11    1
    30    11    12    1
    31     4     5   ar
    32     5     6   ar
    33    33    34   ar
    34    34    35    1
    35    34    36   ar
    36    36    37   ar
    37    37    38   ar
    38    38    39    1
    39    39    40   ar
    40    40    41   ar
    41    41    42   ar
    42    42    43   ar
    43    43    44   ar
    44    38    29   ar
    45    44    39   ar
    46    36    31   ar
    47     6     1   ar
    48    12     7    1
    49    20    15   ar
    50    27    28    1
    51    23    24    1
@<TRIPOS>MOLECULE
*****
 46 51 0 0 0
SMALL
GASTEIGER

@<TRIPOS>ATOM
      1 C          -7.4953  -14.7204   27.5369 C.ar    1  UNL1        0.0702
      2 C          -6.7468  -13.7048   28.1444 C.ar    1  UNL1        0.0191
      3 C          -7.3607  -12.8008   29.0123 C.ar    1  UNL1        0.0356
      4 C          -8.7361  -12.9133   29.2696 C.ar    1  UNL1        0.1318
      5 N          -9.4526  -13.8838   28.6371 N.ar    1  UNL1       -0.2279
      6 C          -8.8756  -14.7768   27.7903 C.ar    1  UNL1        0.1149
      7 N          -9.4093  -11.9858   30.1419 N.pl3   1  UNL1       -0.2932
      8 C          -8.9969  -11.9041   31.5511 C.3     1  UNL1        0.0923
      9 C          -9.9827  -11.0683   32.3819 C.3     1  UNL1        0.0252
     10 C         -11.4305  -11.3952   31.9720 C.3     1  UNL1        0.0472
     11 C         -11.6869  -11.0732   30.4739 C.3     1  UNL1        0.0252
     12 C         -10.4025  -11.0316   29.6289 C.3     1  UNL1        0.0923
     13 C         -12.4303  -10.6589   32.8838 C.3     1  UNL1        0.2054
     14 O         -13.2471  -11.5841   33.6036 O.3     1  UNL1       -0.4755
     15 C         -12.9238  -12.9248   33.8703 C.ar    1  UNL1        0.1388
     16 C         -12.3359  -13.3407   35.0799 C.ar    1  UNL1        0.0369
     17 C         -12.0350  -14.6882   35.2875 C.ar    1  UNL1        0.0033
     18 C         -12.3182  -15.6334   34.2994 C.ar    1  UNL1        0.0066
     19 C         -12.9106  -15.2384   33.0876 C.ar    1  UNL1        0.0785
     20 C         -13.2106  -13.8794   32.8861 C.ar    1  UNL1        0.0433
     21 C         -13.2152  -16.2345   32.0367 C.2     1  UNL1        0.3381
     22 O         -12.8219  -17.4268   32.1535 O.2     1  UNL1       -0.2451
     23 O         -13.9401  -15.8640   30.9068 O.3     1  UNL1       -0.4771
     24 H         -14.1539  -16.5382   30.1816 H       1  UNL1        0.2954
     25 C          -7.0805  -15.6306   25.2084 C.2     1  UNL1        0.2839
     26 O          -8.1652  -15.1887   24.7428 O.2     1  UNL1       -0.2665
     27 N          -6.8552  -15.6305   26.6260 N.am    1  UNL1       -0.2766
     28 H          -6.2794  -16.4040   27.0273 H       1  UNL1        0.1553
     29 C          -3.9656  -18.0787   20.7790 C.ar    1  UNL1       -0.0191
     30 C          -5.2266  -17.6005   21.2037 C.ar    1  UNL1        0.0332
     31 C          -5.3416  -17.0787   22.4869 C.ar    1  UNL1        0.1449
     32 O          -6.4182  -16.5919   23.0542 O.2     1  UNL1       -0.4492
     33 C          -6.0978  -16.2169   24.2801 C.ar    1  UNL1        0.1946
     34 C          -4.7371  -16.4534   24.5116 C.ar    1  UNL1        0.0202
     35 C          -3.9344  -16.1598   25.7430 C.3     1  UNL1        0.0345
     36 C          -4.2773  -17.0255   23.3422 C.ar    1  UNL1        0.0337
     37 C          -3.0182  -17.4940   22.9758 C.ar    1  UNL1        0.0025
     38 C          -2.8527  -18.0260   21.6785 C.ar    1  UNL1       -0.0038
     39 C          -1.5172  -18.5262   21.2979 C.ar    1  UNL1       -0.0003
     40 C          -1.0970  -19.7978   21.7178 C.ar    1  UNL1       -0.0000
     41 C           0.1749  -20.2663   21.3739 C.ar    1  UNL1       -0.0000
     42 C           1.0364  -19.4644   20.6195 C.ar    1  UNL1       -0.0000
     43 C           0.6288  -18.1910   20.2114 C.ar    1  UNL1       -0.0000
     44 C          -0.6423  -17.7191   20.5533 C.ar    1  UNL1       -0.0000
     45 C          -4.1047  -20.2245   19.5032 C.3     1  UNL1        0.0050
     46 C          -3.8634  -18.7210   19.4142 C.3     1  UNL1        0.0265
@<TRIPOS>BOND
     1    45    46    1
     2    46    29    1
     3    29    30   ar
     4    30    31   ar
     5    31    32   ar
     6    32    33   ar
     7    33    25    1
     8    25    26    2
     9    25    27   am
    10    27     1    1
    11     1     2   ar
    12     2     3   ar
    13     3     4   ar
    14     4     7    1
    15     7     8    1
    16     8     9    1
    17     9    10    1
    18    10    13    1
    19    13    14    1
    20    14    15    1
    21    15    16   ar
    22    16    17   ar
    23    17    18   ar
    24    18    19   ar
    25    19    21    1
    26    21    22    2
    27    21    23    1
    28    19    20   ar
    29    10    11    1
    30    11    12    1
    31     4     5   ar
    32     5     6   ar
    33    33    34   ar
    34    34    35    1
    35    34    36   ar
    36    36    37   ar
    37    37    38   ar
    38    38    39    1
    39    39    40   ar
    40    40    41   ar
    41    41    42   ar
    42    42    43   ar
    43    43    44   ar
    44    38    29   ar
    45    44    39   ar
    46    36    31   ar
    47     6     1   ar
    48    12     7    1
    49    20    15   ar
    50    27    28    1
    51    23    24    1
@<TRIPOS>MOLECULE
*****
 46 51 0 0 0
SMALL
GASTEIGER

@<TRIPOS>ATOM
      1 C          -7.5567  -14.8639   27.4387 C.ar    1  UNL1        0.0702
      2 C          -6.7873  -13.8784   28.0690 C.ar    1  UNL1        0.0191
      3 C          -7.3815  -12.9848   28.9612 C.ar    1  UNL1        0.0356
      4 C          -8.7581  -13.0776   29.2200 C.ar    1  UNL1        0.1318
      5 N          -9.4947  -14.0181   28.5658 N.ar    1  UNL1       -0.2279
      6 C          -8.9371  -14.9005   27.6950 C.ar    1  UNL1        0.1149
      7 N          -9.4111  -12.1596   30.1174 N.pl3   1  UNL1       -0.2932
      8 C          -8.8814  -11.9950   31.4793 C.3     1  UNL1        0.0923
      9 C          -9.8427  -11.1898   32.3672 C.3     1  UNL1        0.0252
     10 C         -11.2963  -11.6234   32.1027 C.3     1  UNL1        0.0472
     11 C         -11.7057  -11.3792   30.6240 C.3     1  UNL1        0.0252
     12 C         -10.5070  -11.2914   29.6643 C.3     1  UNL1        0.0923
     13 C         -12.2577  -10.9150   33.0758 C.3     1  UNL1        0.2054
     14 O         -11.8772   -9.5520   33.2731 O.3     1  UNL1       -0.4755
     15 C         -11.8454   -8.5598   32.2793 C.ar    1  UNL1        0.1388
     16 C         -13.0073   -7.9318   31.7922 C.ar    1  UNL1        0.0369
     17 C         -12.9133   -6.9527   30.8012 C.ar    1  UNL1        0.0033
     18 C         -11.6671   -6.5865   30.2889 C.ar    1  UNL1        0.0066
     19 C         -10.4951   -7.1979   30.7670 C.ar    1  UNL1        0.0785
     20 C         -10.5981   -8.1831   31.7651 C.ar    1  UNL1        0.0433
     21 C          -9.1709   -6.8136   30.2301 C.2     1  UNL1        0.3381
     22 O          -8.6909   -7.4088   29.2275 O.2     1  UNL1       -0.2451
     23 O          -8.4409   -5.7896   30.8283 O.3     1  UNL1       -0.4771
     24 H          -7.5334   -5.5189   30.4687 H       1  UNL1        0.2954
     25 C          -7.0565  -15.6391   25.0783 C.2     1  UNL1        0.2839
     26 O          -8.0598  -15.0629   24.5783 O.2     1  UNL1       -0.2665
     27 N          -6.9366  -15.7629   26.5033 N.am    1  UNL1       -0.2766
     28 H          -6.4640  -16.6150   26.8797 H       1  UNL1        0.1553
     29 C          -3.9038  -18.2033   20.7425 C.ar    1  UNL1       -0.0191
     30 C          -5.1695  -17.7186   21.1452 C.ar    1  UNL1        0.0332
     31 C          -5.2946  -17.1594   22.4116 C.ar    1  UNL1        0.1449
     32 O          -6.3769  -16.6609   22.9577 O.2     1  UNL1       -0.4492
     33 C          -6.0656  -16.2482   24.1738 C.ar    1  UNL1        0.1946
     34 C          -4.7053  -16.4715   24.4204 C.ar    1  UNL1        0.0202
     35 C          -3.9115  -16.1376   25.6473 C.3     1  UNL1        0.0345
     36 C          -4.2358  -17.0759   23.2713 C.ar    1  UNL1        0.0337
     37 C          -2.9725  -17.5493   22.9265 C.ar    1  UNL1        0.0025
     38 C          -2.7966  -18.1188   21.6466 C.ar    1  UNL1       -0.0038
     39 C          -1.4566  -18.6239   21.2891 C.ar    1  UNL1       -0.0003
     40 C          -1.0347  -19.8820   21.7463 C.ar    1  UNL1       -0.0000
     41 C           0.2413  -20.3547   21.4242 C.ar    1  UNL1       -0.0000
     42 C           1.1051  -19.5702   20.6543 C.ar    1  UNL1       -0.0000
     43 C           0.6958  -18.3099   20.2090 C.ar    1  UNL1       -0.0000
     44 C          -0.5794  -17.8339   20.5291 C.ar    1  UNL1       -0.0000
     45 C          -4.0796  -20.3780   19.5212 C.3     1  UNL1        0.0050
     46 C          -3.7903  -18.8854   19.3981 C.3     1  UNL1        0.0265
@<TRIPOS>BOND
     1    45    46    1
     2    46    29    1
     3    29    30   ar
     4    30    31   ar
     5    31    32   ar
     6    32    33   ar
     7    33    25    1
     8    25    26    2
     9    25    27   am
    10    27     1    1
    11     1     2   ar
    12     2     3   ar
    13     3     4   ar
    14     4     7    1
    15     7     8    1
    16     8     9    1
    17     9    10    1
    18    10    13    1
    19    13    14    1
    20    14    15    1
    21    15    16   ar
    22    16    17   ar
    23    17    18   ar
    24    18    19   ar
    25    19    21    1
    26    21    22    2
    27    21    23    1
    28    19    20   ar
    29    10    11    1
    30    11    12    1
    31     4     5   ar
    32     5     6   ar
    33    33    34   ar
    34    34    35    1
    35    34    36   ar
    36    36    37   ar
    37    37    38   ar
    38    38    39    1
    39    39    40   ar
    40    40    41   ar
    41    41    42   ar
    42    42    43   ar
    43    43    44   ar
    44    38    29   ar
    45    44    39   ar
    46    36    31   ar
    47     6     1   ar
    48    12     7    1
    49    20    15   ar
    50    27    28    1
    51    23    24    1
@<TRIPOS>MOLECULE
*****
 46 51 0 0 0
SMALL
GASTEIGER

@<TRIPOS>ATOM
      1 C          -7.6507  -14.7068   27.5891 C.ar    1  UNL1        0.0702
      2 C          -6.8969  -13.7037   28.2104 C.ar    1  UNL1        0.0191
      3 C          -7.5096  -12.7968   29.0762 C.ar    1  UNL1        0.0356
      4 C          -8.8891  -12.8940   29.3175 C.ar    1  UNL1        0.1318
      5 N          -9.6100  -13.8524   28.6717 N.ar    1  UNL1       -0.2279
      6 C          -9.0343  -14.7479   27.8266 C.ar    1  UNL1        0.1149
      7 N          -9.5608  -11.9631   30.1872 N.pl3   1  UNL1       -0.2932
      8 C         -10.6952  -11.1880   29.6627 C.3     1  UNL1        0.0923
      9 C         -11.1146  -10.0719   30.6318 C.3     1  UNL1        0.0252
     10 C          -9.8681   -9.3934   31.2291 C.3     1  UNL1        0.0472
     11 C          -8.9936  -10.4022   32.0237 C.3     1  UNL1        0.0252
     12 C          -9.2254  -11.8667   31.6149 C.3     1  UNL1        0.0923
     13 C         -10.2730   -8.1912   32.1031 C.3     1  UNL1        0.2054
     14 O          -9.3763   -7.0946   31.9161 O.3     1  UNL1       -0.4755
     15 C          -7.9906   -7.1975   31.7103 C.ar    1  UNL1        0.1388
     16 C          -7.0464   -6.6140   32.5762 C.ar    1  UNL1        0.0369
     17 C          -5.6806   -6.7485   32.3189 C.ar    1  UNL1        0.0033
     18 C          -5.2412   -7.4652   31.2041 C.ar    1  UNL1        0.0066
     19 C          -6.1686   -8.0602   30.3314 C.ar    1  UNL1        0.0785
     20 C          -7.5423   -7.9203   30.5973 C.ar    1  UNL1        0.0433
     21 C          -5.7103   -8.8228   29.1491 C.2     1  UNL1        0.3381
     22 O          -6.5307   -9.1743   28.2585 O.2     1  UNL1       -0.2451
     23 O          -4.3665   -9.1601   29.0088 O.3     1  UNL1       -0.4771
     24 H          -4.0424   -9.6820   28.2033 H       1  UNL1        0.2954
     25 C          -7.2379  -15.6245   25.2631 C.2     1  UNL1        0.2839
     26 O          -8.3231  -15.1841   24.7971 O.2     1  UNL1       -0.2665
     27 N          -7.0113  -15.6198   26.6805 N.am    1  UNL1       -0.2766
     28 H          -6.4350  -16.3919   27.0838 H       1  UNL1        0.1553
     29 C          -4.1411  -18.1598   20.8703 C.ar    1  UNL1       -0.0191
     30 C          -5.4105  -17.7183   21.3094 C.ar    1  UNL1        0.0332
     31 C          -5.5125  -17.1344   22.5668 C.ar    1  UNL1        0.1449
     32 O          -6.5941  -16.6681   23.1419 O.2     1  UNL1       -0.4492
     33 C          -6.2560  -16.2137   24.3358 C.ar    1  UNL1        0.1946
     34 C          -4.8794  -16.3745   24.5359 C.ar    1  UNL1        0.0202
     35 C          -4.0558  -15.9787   25.7241 C.3     1  UNL1        0.0345
     36 C          -4.4273  -16.9865   23.3838 C.ar    1  UNL1        0.0337
     37 C          -3.1587  -17.4154   23.0023 C.ar    1  UNL1        0.0025
     38 C          -3.0061  -18.0079   21.7299 C.ar    1  UNL1       -0.0038
     39 C          -1.6599  -18.4656   21.3335 C.ar    1  UNL1       -0.0003
     40 C          -0.8512  -17.6527   20.5242 C.ar    1  UNL1       -0.0000
     41 C           0.4171  -18.0920   20.1323 C.ar    1  UNL1       -0.0000
     42 C           0.8793  -19.3478   20.5369 C.ar    1  UNL1       -0.0000
     43 C           0.0720  -20.1680   21.3304 C.ar    1  UNL1       -0.0000
     44 C          -1.1968  -19.7320   21.7243 C.ar    1  UNL1       -0.0000
     45 C          -4.2590  -20.3701   19.7073 C.3     1  UNL1        0.0050
     46 C          -4.0485  -18.8689   19.5382 C.3     1  UNL1        0.0265
@<TRIPOS>BOND
     1    45    46    1
     2    46    29    1
     3    29    30   ar
     4    30    31   ar
     5    31    32   ar
     6    32    33   ar
     7    33    25    1
     8    25    26    2
     9    25    27   am
    10    27     1    1
    11     1     2   ar
    12     2     3   ar
    13     3     4   ar
    14     4     7    1
    15     7     8    1
    16     8     9    1
    17     9    10    1
    18    10    13    1
    19    13    14    1
    20    14    15    1
    21    15    16   ar
    22    16    17   ar
    23    17    18   ar
    24    18    19   ar
    25    19    21    1
    26    21    22    2
    27    21    23    1
    28    19    20   ar
    29    10    11    1
    30    11    12    1
    31     4     5   ar
    32     5     6   ar
    33    33    34   ar
    34    34    35    1
    35    34    36   ar
    36    36    37   ar
    37    37    38   ar
    38    38    39    1
    39    39    40   ar
    40    40    41   ar
    41    41    42   ar
    42    42    43   ar
    43    43    44   ar
    44    38    29   ar
    45    44    39   ar
    46    36    31   ar
    47     6     1   ar
    48    12     7    1
    49    20    15   ar
    50    27    28    1
    51    23    24    1
@<TRIPOS>MOLECULE
*****
 46 51 0 0 0
SMALL
GASTEIGER

@<TRIPOS>ATOM
      1 C          -8.5829  -15.8909   25.2599 C.ar    1  UNL1        0.0702
      2 C          -9.4132  -16.9437   24.8563 C.ar    1  UNL1        0.0191
      3 C          -8.9947  -17.8290   23.8620 C.ar    1  UNL1        0.0356
      4 C          -7.7362  -17.6546   23.2650 C.ar    1  UNL1        0.1318
      5 N          -6.9617  -16.6005   23.6446 N.ar    1  UNL1       -0.2279
      6 C          -7.3473  -15.7275   24.6124 C.ar    1  UNL1        0.1149
      7 N          -7.2788  -18.5342   22.2203 N.pl3   1  UNL1       -0.2932
      8 C          -6.9319  -19.9229   22.5580 C.3     1  UNL1        0.0923
      9 C          -6.2235  -20.6291   21.3917 C.3     1  UNL1        0.0252
     10 C          -5.2150  -19.6732   20.7281 C.3     1  UNL1        0.0472
     11 C          -5.9157  -18.4096   20.1570 C.3     1  UNL1        0.0252
     12 C          -7.2766  -18.1169   20.8111 C.3     1  UNL1        0.0923
     13 C          -4.4085  -20.4079   19.6405 C.3     1  UNL1        0.2054
     14 O          -3.0157  -20.1053   19.7410 O.3     1  UNL1       -0.4755
     15 C          -2.4730  -18.8993   20.2145 C.ar    1  UNL1        0.1388
     16 C          -1.1651  -18.4795   19.9066 C.ar    1  UNL1        0.0369
     17 C          -0.6793  -17.2704   20.4082 C.ar    1  UNL1        0.0033
     18 C          -1.4877  -16.4672   21.2152 C.ar    1  UNL1        0.0066
     19 C          -2.7984  -16.8665   21.5286 C.ar    1  UNL1        0.0785
     20 C          -3.2803  -18.0855   21.0196 C.ar    1  UNL1        0.0433
     21 C          -3.6614  -16.0196   22.3816 C.2     1  UNL1        0.3381
     22 O          -3.9478  -14.8427   22.0315 O.2     1  UNL1       -0.2451
     23 O          -4.1661  -16.5153   23.5812 O.3     1  UNL1       -0.4771
     24 H          -4.7577  -15.9439   24.1725 H       1  UNL1        0.2954
     25 C          -8.6195  -15.0241   27.6411 C.2     1  UNL1        0.2839
     26 O          -8.2352  -16.1152   28.1415 O.2     1  UNL1       -0.2665
     27 N          -9.0363  -14.9716   26.2685 N.am    1  UNL1       -0.2766
     28 H          -9.7926  -14.2973   26.0149 H       1  UNL1        0.1553
     29 C         -10.0288  -10.5334   31.2691 C.ar    1  UNL1       -0.0191
     30 C         -10.4830  -11.7018   30.6151 C.ar    1  UNL1        0.0332
     31 C          -9.5883  -12.4086   29.8200 C.ar    1  UNL1        0.1449
     32 O          -9.8222  -13.5048   29.1406 O.2     1  UNL1       -0.4492
     33 C          -8.7092  -13.8383   28.5111 C.ar    1  UNL1        0.1946
     34 C          -7.6952  -12.9218   28.8157 C.ar    1  UNL1        0.0202
     35 C          -6.2690  -12.9193   28.3543 C.3     1  UNL1        0.0345
     36 C          -8.2955  -12.0001   29.6501 C.ar    1  UNL1        0.0337
     37 C          -7.8034  -10.8505   30.2629 C.ar    1  UNL1        0.0025
     38 C          -8.6749  -10.1047   31.0861 C.ar    1  UNL1       -0.0038
     39 C          -8.1491   -8.8841   31.7284 C.ar    1  UNL1       -0.0003
     40 C          -8.5463   -7.6198   31.2661 C.ar    1  UNL1       -0.0000
     41 C          -8.0353   -6.4621   31.8609 C.ar    1  UNL1       -0.0000
     42 C          -7.1184   -6.5607   32.9116 C.ar    1  UNL1       -0.0000
     43 C          -6.7077   -7.8172   33.3661 C.ar    1  UNL1       -0.0000
     44 C          -7.2165   -8.9771   32.7737 C.ar    1  UNL1       -0.0000
     45 C         -12.0197   -9.0263   31.1411 C.3     1  UNL1        0.0050
     46 C         -11.0257   -9.7223   32.0653 C.3     1  UNL1        0.0265
@<TRIPOS>BOND
     1    45    46    1
     2    46    29    1
     3    29    30   ar
     4    30    31   ar
     5    31    32   ar
     6    32    33   ar
     7    33    25    1
     8    25    26    2
     9    25    27   am
    10    27     1    1
    11     1     2   ar
    12     2     3   ar
    13     3     4   ar
    14     4     7    1
    15     7     8    1
    16     8     9    1
    17     9    10    1
    18    10    13    1
    19    13    14    1
    20    14    15    1
    21    15    16   ar
    22    16    17   ar
    23    17    18   ar
    24    18    19   ar
    25    19    21    1
    26    21    22    2
    27    21    23    1
    28    19    20   ar
    29    10    11    1
    30    11    12    1
    31     4     5   ar
    32     5     6   ar
    33    33    34   ar
    34    34    35    1
    35    34    36   ar
    36    36    37   ar
    37    37    38   ar
    38    38    39    1
    39    39    40   ar
    40    40    41   ar
    41    41    42   ar
    42    42    43   ar
    43    43    44   ar
    44    38    29   ar
    45    44    39   ar
    46    36    31   ar
    47     6     1   ar
    48    12     7    1
    49    20    15   ar
    50    27    28    1
    51    23    24    1
