@<TRIPOS>MOLECULE
*****
 37 41 0 0 0
SMALL
GASTEIGER

@<TRIPOS>ATOM
      1 C          45.6133   16.0690  -27.4801 C.2     1  UNL1        0.2491
      2 O          44.4417   16.4107  -27.1621 O.2     1  UNL1       -0.2699
      3 N          46.7293   16.9211  -27.1365 N.am    1  UNL1       -0.2760
      4 C          46.4875   18.0694  -26.2480 C.3     1  UNL1        0.0954
      5 C          47.7893   18.8063  -25.8906 C.3     1  UNL1        0.0399
      6 C          48.9531   17.8197  -25.6359 C.3     1  UNL1        0.0645
      7 C          49.2167   16.9764  -26.9225 C.3     1  UNL1        0.0399
      8 C          48.0048   16.8382  -27.8654 C.3     1  UNL1        0.0954
      9 C          48.5884   16.8792  -24.4309 C.3     1  UNL1        0.0477
     10 C          49.8078   16.1791  -23.9181 C.ar    1  UNL1        0.0220
     11 C          49.9501   15.0092  -23.2114 C.ar    1  UNL1        0.0923
     12 N          51.2642   14.8702  -22.9034 N.ar    1  UNL1       -0.2534
     13 N          51.9468   15.9142  -23.3681 N.ar    1  UNL1       -0.1651
     14 C          51.0564   16.7130  -23.9813 C.ar    1  UNL1        0.1515
     15 C          51.2931   17.9829  -24.6517 C.2     1  UNL1        0.2650
     16 O          52.4237   18.5367  -24.6298 O.2     1  UNL1       -0.2684
     17 N          50.1805   18.5942  -25.3258 N.am    1  UNL1       -0.3023
     18 H          50.3168   19.5409  -25.7482 H       1  UNL1        0.1497
     19 C          47.1041   11.2597  -27.8829 C.ar    1  UNL1        0.2249
     20 N          47.2494   10.1794  -28.7004 N.ar    1  UNL1       -0.2101
     21 C          46.8817   10.1931  -30.0039 C.ar    1  UNL1        0.1021
     22 C          46.3174   11.3360  -30.5551 C.ar    1  UNL1        0.0209
     23 C          46.1462   12.4757  -29.7603 C.ar    1  UNL1        0.0061
     24 C          45.5546   13.6149  -30.3161 C.ar    1  UNL1        0.0003
     25 C          45.3706   14.7584  -29.5497 C.ar    1  UNL1        0.0046
     26 C          45.7939   14.8006  -28.2188 C.ar    1  UNL1        0.0565
     27 C          46.3891   13.6589  -27.6242 C.ar    1  UNL1        0.0436
     28 C          46.5595   12.4702  -28.3995 C.ar    1  UNL1        0.0561
     29 C          46.8137   13.7306  -26.2091 C.2     1  UNL1        0.1738
     30 C          45.8260   13.5308  -25.1036 C.3     1  UNL1        0.0773
     31 O          48.0159   13.9855  -25.9324 O.2     1  UNL1       -0.2913
     32 C          48.8166   10.8735  -26.1267 C.3     1  UNL1        0.2542
     33 O          47.4834   11.1478  -26.5404 O.3     1  UNL1       -0.4561
     34 C          51.8623   13.7441  -22.1589 C.3     1  UNL1        0.0867
     35 C          53.0247   13.1477  -22.9761 C.3     1  UNL1        0.0244
     36 C          50.7912   12.6648  -21.9142 C.3     1  UNL1        0.0244
     37 C          52.4080   14.2218  -20.7960 C.3     1  UNL1        0.0244
@<TRIPOS>BOND
     1    32    33    1
     2    33    19    1
     3    19    20   ar
     4    20    21   ar
     5    21    22   ar
     6    22    23   ar
     7    23    24   ar
     8    24    25   ar
     9    25    26   ar
    10    26     1    1
    11     1     2    2
    12     1     3   am
    13     3     4    1
    14     4     5    1
    15     5     6    1
    16     6     7    1
    17     7     8    1
    18     6     9    1
    19     9    10    1
    20    10    11   ar
    21    11    12   ar
    22    12    34    1
    23    34    35    1
    24    34    36    1
    25    34    37    1
    26    12    13   ar
    27    13    14   ar
    28    14    15    1
    29    15    16    2
    30    15    17   am
    31    26    27   ar
    32    27    29    1
    33    29    30    1
    34    29    31    2
    35    27    28   ar
    36    28    19   ar
    37    28    23   ar
    38     8     3    1
    39    14    10   ar
    40    17     6    1
    41    17    18    1
@<TRIPOS>MOLECULE
*****
 37 41 0 0 0
SMALL
GASTEIGER

@<TRIPOS>ATOM
      1 C          52.4221   10.0392  -27.9004 C.2     1  UNL1        0.2491
      2 O          53.3589   10.7261  -28.3915 O.2     1  UNL1       -0.2699
      3 N          52.1613   10.0901  -26.4795 N.am    1  UNL1       -0.2760
      4 C          52.8694   11.0964  -25.6720 C.3     1  UNL1        0.0954
      5 C          52.4007   11.0945  -24.2072 C.3     1  UNL1        0.0399
      6 C          50.8696   10.9033  -24.0974 C.3     1  UNL1        0.0645
      7 C          50.4651    9.5362  -24.7325 C.3     1  UNL1        0.0399
      8 C          51.4446    9.0016  -25.7963 C.3     1  UNL1        0.0954
      9 C          50.1399   12.0850  -24.8326 C.3     1  UNL1        0.0477
     10 C          48.6975   12.1439  -24.4375 C.ar    1  UNL1        0.0220
     11 C          47.6051   12.6798  -25.0761 C.ar    1  UNL1        0.0923
     12 N          46.5402   12.5591  -24.2440 N.ar    1  UNL1       -0.2534
     13 N          46.9243   11.9906  -23.1034 N.ar    1  UNL1       -0.1651
     14 C          48.2403   11.7434  -23.2216 C.ar    1  UNL1        0.1515
     15 C          49.1361   11.1337  -22.2501 C.2     1  UNL1        0.2650
     16 O          48.7487   10.8516  -21.0856 O.2     1  UNL1       -0.2684
     17 N          50.4897   10.8822  -22.6629 N.am    1  UNL1       -0.3023
     18 H          51.1634   10.5133  -21.9534 H       1  UNL1        0.1497
     19 C          51.9172    6.8581  -31.7913 C.ar    1  UNL1        0.2249
     20 N          51.0575    6.1540  -32.5798 N.ar    1  UNL1       -0.2101
     21 C          49.7158    6.1697  -32.3957 C.ar    1  UNL1        0.1021
     22 C          49.1647    6.9134  -31.3604 C.ar    1  UNL1        0.0209
     23 C          50.0023    7.6570  -30.5204 C.ar    1  UNL1        0.0061
     24 C          49.4419    8.3838  -29.4648 C.ar    1  UNL1        0.0003
     25 C          50.2497    9.1282  -28.6149 C.ar    1  UNL1        0.0046
     26 C          51.6317    9.1843  -28.8123 C.ar    1  UNL1        0.0565
     27 C          52.2307    8.4513  -29.8684 C.ar    1  UNL1        0.0436
     28 C          51.4085    7.6634  -30.7324 C.ar    1  UNL1        0.0561
     29 C          53.6980    8.5200  -30.0425 C.2     1  UNL1        0.1738
     30 C          54.5916    7.5021  -29.4078 C.3     1  UNL1        0.0773
     31 O          54.2015    9.4595  -30.7138 O.2     1  UNL1       -0.2913
     32 C          53.8397    6.0672  -33.1496 C.3     1  UNL1        0.2542
     33 O          53.2920    6.7602  -32.0344 O.3     1  UNL1       -0.4561
     34 C          45.1605   12.9948  -24.5384 C.3     1  UNL1        0.0867
     35 C          44.4772   11.9564  -25.4490 C.3     1  UNL1        0.0244
     36 C          45.1945   14.3632  -25.2444 C.3     1  UNL1        0.0244
     37 C          44.3423   13.1270  -23.2358 C.3     1  UNL1        0.0244
@<TRIPOS>BOND
     1    32    33    1
     2    33    19    1
     3    19    20   ar
     4    20    21   ar
     5    21    22   ar
     6    22    23   ar
     7    23    24   ar
     8    24    25   ar
     9    25    26   ar
    10    26     1    1
    11     1     2    2
    12     1     3   am
    13     3     4    1
    14     4     5    1
    15     5     6    1
    16     6     7    1
    17     7     8    1
    18     6     9    1
    19     9    10    1
    20    10    11   ar
    21    11    12   ar
    22    12    34    1
    23    34    35    1
    24    34    36    1
    25    34    37    1
    26    12    13   ar
    27    13    14   ar
    28    14    15    1
    29    15    16    2
    30    15    17   am
    31    26    27   ar
    32    27    29    1
    33    29    30    1
    34    29    31    2
    35    27    28   ar
    36    28    19   ar
    37    28    23   ar
    38     8     3    1
    39    14    10   ar
    40    17     6    1
    41    17    18    1
@<TRIPOS>MOLECULE
*****
 37 41 0 0 0
SMALL
GASTEIGER

@<TRIPOS>ATOM
      1 C          46.5051   12.4989  -24.0607 C.2     1  UNL1        0.2491
      2 O          45.5013   11.9251  -23.5567 O.2     1  UNL1       -0.2699
      3 N          47.8344   12.1426  -23.6186 N.am    1  UNL1       -0.2760
      4 C          47.9905   10.9769  -22.7338 C.3     1  UNL1        0.0954
      5 C          49.4688   10.6648  -22.4461 C.3     1  UNL1        0.0399
      6 C          50.3466   10.8444  -23.7071 C.3     1  UNL1        0.0645
      7 C          50.2556   12.3214  -24.2033 C.3     1  UNL1        0.0399
      8 C          48.9684   13.0640  -23.7928 C.3     1  UNL1        0.0954
      9 C          49.8585    9.8592  -24.8299 C.3     1  UNL1        0.0477
     10 C          50.8900    9.7316  -25.9069 C.ar    1  UNL1        0.0220
     11 C          50.7810    9.3596  -27.2253 C.ar    1  UNL1        0.0923
     12 N          52.0335    9.3079  -27.7445 N.ar    1  UNL1       -0.2534
     13 N          52.9229    9.6101  -26.8015 N.ar    1  UNL1       -0.1651
     14 C          52.2241    9.8626  -25.6812 C.ar    1  UNL1        0.1515
     15 C          52.7267   10.2363  -24.3676 C.2     1  UNL1        0.2650
     16 O          53.9609   10.2622  -24.1193 O.2     1  UNL1       -0.2684
     17 N          51.7591   10.5567  -23.3541 N.am    1  UNL1       -0.3023
     18 H          52.1025   10.7548  -22.3866 H       1  UNL1        0.1497
     19 C          45.8154   14.0791  -28.8085 C.ar    1  UNL1        0.2249
     20 N          45.6499   15.1470  -29.6384 N.ar    1  UNL1       -0.2101
     21 C          45.6125   16.4242  -29.1890 C.ar    1  UNL1        0.1021
     22 C          45.7309   16.6872  -27.8306 C.ar    1  UNL1        0.0209
     23 C          45.9042   15.6268  -26.9330 C.ar    1  UNL1        0.0061
     24 C          45.9980   15.8978  -25.5639 C.ar    1  UNL1        0.0003
     25 C          46.1679   14.8647  -24.6512 C.ar    1  UNL1        0.0046
     26 C          46.2722   13.5405  -25.0844 C.ar    1  UNL1        0.0565
     27 C          46.1722   13.2328  -26.4652 C.ar    1  UNL1        0.0436
     28 C          45.9728   14.2882  -27.4084 C.ar    1  UNL1        0.0561
     29 C          46.2724   11.8197  -26.8908 C.2     1  UNL1        0.1738
     30 C          47.5658   11.2633  -27.3959 C.3     1  UNL1        0.0773
     31 O          45.2511   11.0834  -26.8489 O.2     1  UNL1       -0.2913
     32 C          45.9149   12.5356  -30.7511 C.3     1  UNL1        0.2542
     33 O          45.8120   12.7908  -29.3554 O.3     1  UNL1       -0.4561
     34 C          52.3769    8.9619  -29.1382 C.3     1  UNL1        0.0867
     35 C          52.7972   10.2367  -29.8952 C.3     1  UNL1        0.0244
     36 C          51.1530    8.3286  -29.8258 C.3     1  UNL1        0.0244
     37 C          53.5461    7.9543  -29.1762 C.3     1  UNL1        0.0244
@<TRIPOS>BOND
     1    32    33    1
     2    33    19    1
     3    19    20   ar
     4    20    21   ar
     5    21    22   ar
     6    22    23   ar
     7    23    24   ar
     8    24    25   ar
     9    25    26   ar
    10    26     1    1
    11     1     2    2
    12     1     3   am
    13     3     4    1
    14     4     5    1
    15     5     6    1
    16     6     7    1
    17     7     8    1
    18     6     9    1
    19     9    10    1
    20    10    11   ar
    21    11    12   ar
    22    12    34    1
    23    34    35    1
    24    34    36    1
    25    34    37    1
    26    12    13   ar
    27    13    14   ar
    28    14    15    1
    29    15    16    2
    30    15    17   am
    31    26    27   ar
    32    27    29    1
    33    29    30    1
    34    29    31    2
    35    27    28   ar
    36    28    19   ar
    37    28    23   ar
    38     8     3    1
    39    14    10   ar
    40    17     6    1
    41    17    18    1
@<TRIPOS>MOLECULE
*****
 37 41 0 0 0
SMALL
GASTEIGER

@<TRIPOS>ATOM
      1 C          45.7441   15.3387  -26.2655 C.2     1  UNL1        0.2491
      2 O          44.6360   15.5909  -25.7186 O.2     1  UNL1       -0.2699
      3 N          46.9714   15.5341  -25.5274 N.am    1  UNL1       -0.2760
      4 C          46.8849   15.8328  -24.0888 C.3     1  UNL1        0.0954
      5 C          48.2726   15.9014  -23.4294 C.3     1  UNL1        0.0399
      6 C          49.2172   14.8022  -23.9700 C.3     1  UNL1        0.0645
      7 C          49.4074   14.9845  -25.5084 C.3     1  UNL1        0.0399
      8 C          48.2560   15.7226  -26.2200 C.3     1  UNL1        0.0954
      9 C          48.6077   13.3877  -23.6582 C.3     1  UNL1        0.0477
     10 C          49.6421   12.3182  -23.8209 C.ar    1  UNL1        0.0220
     11 C          49.5212   10.9723  -24.0699 C.ar    1  UNL1        0.0923
     12 N          50.7644   10.4307  -24.0241 N.ar    1  UNL1       -0.2534
     13 N          51.6554   11.3764  -23.7353 N.ar    1  UNL1       -0.1651
     14 C          50.9685   12.5247  -23.6066 C.ar    1  UNL1        0.1515
     15 C          51.4771   13.8515  -23.2918 C.2     1  UNL1        0.2650
     16 O          52.6858   14.0378  -22.9920 O.2     1  UNL1       -0.2684
     17 N          50.5420   14.9429  -23.3160 N.am    1  UNL1       -0.3023
     18 H          50.8766   15.8883  -23.0204 H       1  UNL1        0.1497
     19 C          46.3034   11.8047  -29.8309 C.ar    1  UNL1        0.2249
     20 N          46.3070   11.5261  -31.1647 N.ar    1  UNL1       -0.2101
     21 C          46.0634   12.4658  -32.1093 C.ar    1  UNL1        0.1021
     22 C          45.7815   13.7726  -31.7336 C.ar    1  UNL1        0.0209
     23 C          45.7661   14.1144  -30.3759 C.ar    1  UNL1        0.0061
     24 C          45.4572   15.4271  -30.0044 C.ar    1  UNL1        0.0003
     25 C          45.4326   15.7929  -28.6648 C.ar    1  UNL1        0.0046
     26 C          45.7388   14.8646  -27.6664 C.ar    1  UNL1        0.0565
     27 C          46.0474   13.5239  -28.0108 C.ar    1  UNL1        0.0436
     28 C          46.0508   13.1339  -29.3859 C.ar    1  UNL1        0.0561
     29 C          46.3533   12.5616  -26.9299 C.2     1  UNL1        0.1738
     30 C          45.2570   11.9607  -26.1085 C.3     1  UNL1        0.0773
     31 O          47.5520   12.2628  -26.6838 O.2     1  UNL1       -0.2913
     32 C          47.3786    9.6553  -29.2062 C.3     1  UNL1        0.2542
     33 O          46.5357   10.7656  -28.9225 O.3     1  UNL1       -0.4561
     34 C          51.0960    9.0095  -24.2486 C.3     1  UNL1        0.0867
     35 C          50.4781    8.5421  -25.5806 C.3     1  UNL1        0.0244
     36 C          50.5360    8.1631  -23.0902 C.3     1  UNL1        0.0244
     37 C          52.6258    8.8120  -24.3152 C.3     1  UNL1        0.0244
@<TRIPOS>BOND
     1    32    33    1
     2    33    19    1
     3    19    20   ar
     4    20    21   ar
     5    21    22   ar
     6    22    23   ar
     7    23    24   ar
     8    24    25   ar
     9    25    26   ar
    10    26     1    1
    11     1     2    2
    12     1     3   am
    13     3     4    1
    14     4     5    1
    15     5     6    1
    16     6     7    1
    17     7     8    1
    18     6     9    1
    19     9    10    1
    20    10    11   ar
    21    11    12   ar
    22    12    34    1
    23    34    35    1
    24    34    36    1
    25    34    37    1
    26    12    13   ar
    27    13    14   ar
    28    14    15    1
    29    15    16    2
    30    15    17   am
    31    26    27   ar
    32    27    29    1
    33    29    30    1
    34    29    31    2
    35    27    28   ar
    36    28    19   ar
    37    28    23   ar
    38     8     3    1
    39    14    10   ar
    40    17     6    1
    41    17    18    1
@<TRIPOS>MOLECULE
*****
 37 41 0 0 0
SMALL
GASTEIGER

@<TRIPOS>ATOM
      1 C          47.4764   11.1112  -23.0576 C.2     1  UNL1        0.2491
      2 O          47.0221   10.8891  -21.9021 O.2     1  UNL1       -0.2699
      3 N          46.6502   11.7765  -24.0395 N.am    1  UNL1       -0.2760
      4 C          45.3697   12.3557  -23.6024 C.3     1  UNL1        0.0954
      5 C          44.6660   13.1214  -24.7355 C.3     1  UNL1        0.0399
      6 C          45.6708   13.9336  -25.5862 C.3     1  UNL1        0.0645
      7 C          46.7111   12.9670  -26.2339 C.3     1  UNL1        0.0399
      8 C          46.9166   11.6379  -25.4800 C.3     1  UNL1        0.0954
      9 C          46.3972   14.9876  -24.6746 C.3     1  UNL1        0.0477
     10 C          47.0839   16.0241  -25.5078 C.ar    1  UNL1        0.0220
     11 C          48.1413   16.8558  -25.2280 C.ar    1  UNL1        0.0923
     12 N          48.3103   17.6809  -26.2917 N.ar    1  UNL1       -0.2534
     13 N          47.3898   17.4157  -27.2159 N.ar    1  UNL1       -0.1651
     14 C          46.6403   16.4093  -26.7337 C.ar    1  UNL1        0.1515
     15 C          45.5013   15.7520  -27.3570 C.2     1  UNL1        0.2650
     16 O          45.0184   16.1648  -28.4441 O.2     1  UNL1       -0.2684
     17 N          44.9327   14.6221  -26.6742 N.am    1  UNL1       -0.3023
     18 H          44.0696   14.1861  -27.0720 H       1  UNL1        0.1497
     19 C          52.4157   11.8670  -23.7961 C.ar    1  UNL1        0.2249
     20 N          53.6115   11.3123  -24.1409 N.ar    1  UNL1       -0.2101
     21 C          53.7498    9.9984  -24.4397 C.ar    1  UNL1        0.1021
     22 C          52.6487    9.1539  -24.3876 C.ar    1  UNL1        0.0209
     23 C          51.3951    9.6717  -24.0402 C.ar    1  UNL1        0.0061
     24 C          50.2957    8.8101  -23.9660 C.ar    1  UNL1        0.0003
     25 C          49.0413    9.2966  -23.6215 C.ar    1  UNL1        0.0046
     26 C          48.8494   10.6570  -23.3666 C.ar    1  UNL1        0.0565
     27 C          49.9461   11.5542  -23.4253 C.ar    1  UNL1        0.0436
     28 C          51.2449   11.0569  -23.7552 C.ar    1  UNL1        0.0561
     29 C          49.7132   12.9861  -23.1363 C.2     1  UNL1        0.1738
     30 C          49.5764   13.4692  -21.7273 C.3     1  UNL1        0.0773
     31 O          49.6060   13.8036  -24.0887 O.2     1  UNL1       -0.2913
     32 C          53.1854   13.8201  -22.4697 C.3     1  UNL1        0.2542
     33 O          52.3697   13.2281  -23.4737 O.3     1  UNL1       -0.4561
     34 C          49.3459   18.7257  -26.4183 C.3     1  UNL1        0.0867
     35 C          49.3568   19.5949  -25.1459 C.3     1  UNL1        0.0244
     36 C          49.0404   19.6044  -27.6457 C.3     1  UNL1        0.0244
     37 C          50.7413   18.0895  -26.5964 C.3     1  UNL1        0.0244
@<TRIPOS>BOND
     1    32    33    1
     2    33    19    1
     3    19    20   ar
     4    20    21   ar
     5    21    22   ar
     6    22    23   ar
     7    23    24   ar
     8    24    25   ar
     9    25    26   ar
    10    26     1    1
    11     1     2    2
    12     1     3   am
    13     3     4    1
    14     4     5    1
    15     5     6    1
    16     6     7    1
    17     7     8    1
    18     6     9    1
    19     9    10    1
    20    10    11   ar
    21    11    12   ar
    22    12    34    1
    23    34    35    1
    24    34    36    1
    25    34    37    1
    26    12    13   ar
    27    13    14   ar
    28    14    15    1
    29    15    16    2
    30    15    17   am
    31    26    27   ar
    32    27    29    1
    33    29    30    1
    34    29    31    2
    35    27    28   ar
    36    28    19   ar
    37    28    23   ar
    38     8     3    1
    39    14    10   ar
    40    17     6    1
    41    17    18    1
@<TRIPOS>MOLECULE
*****
 37 41 0 0 0
SMALL
GASTEIGER

@<TRIPOS>ATOM
      1 C          48.5101   14.9859  -23.0216 C.2     1  UNL1        0.2491
      2 O          48.0922   14.8724  -21.8371 O.2     1  UNL1       -0.2699
      3 N          49.8442   14.5435  -23.3591 N.am    1  UNL1       -0.2760
      4 C          50.6083   13.7883  -22.3531 C.3     1  UNL1        0.0954
      5 C          51.9575   13.2961  -22.9034 C.3     1  UNL1        0.0399
      6 C          51.8322   12.7984  -24.3626 C.3     1  UNL1        0.0645
      7 C          51.3392   13.9655  -25.2741 C.3     1  UNL1        0.0399
      8 C          50.5440   15.0659  -24.5434 C.3     1  UNL1        0.0954
      9 C          50.8230   11.5952  -24.4210 C.3     1  UNL1        0.0477
     10 C          50.9553   10.8559  -25.7157 C.ar    1  UNL1        0.0220
     11 C          50.0710   10.0515  -26.3933 C.ar    1  UNL1        0.0923
     12 N          50.7190    9.5414  -27.4707 N.ar    1  UNL1       -0.2534
     13 N          51.9774    9.9749  -27.4839 N.ar    1  UNL1       -0.1651
     14 C          52.1206   10.7714  -26.4106 C.ar    1  UNL1        0.1515
     15 C          53.3068   11.4909  -25.9710 C.2     1  UNL1        0.2650
     16 O          54.4168   11.3415  -26.5464 O.2     1  UNL1       -0.2684
     17 N          53.1696   12.3667  -24.8395 N.am    1  UNL1       -0.3023
     18 H          54.0283   12.8328  -24.4672 H       1  UNL1        0.1497
     19 C          45.6518   14.8498  -27.1840 C.ar    1  UNL1        0.2249
     20 N          44.8740   15.5551  -28.0524 N.ar    1  UNL1       -0.2101
     21 C          44.6242   16.8779  -27.9027 C.ar    1  UNL1        0.1021
     22 C          45.1572   17.5682  -26.8220 C.ar    1  UNL1        0.0209
     23 C          45.9649   16.8924  -25.8994 C.ar    1  UNL1        0.0061
     24 C          46.4778   17.5890  -24.8002 C.ar    1  UNL1        0.0003
     25 C          47.2800   16.9428  -23.8685 C.ar    1  UNL1        0.0046
     26 C          47.6086   15.5937  -24.0242 C.ar    1  UNL1        0.0565
     27 C          47.0969   14.8582  -25.1235 C.ar    1  UNL1        0.0436
     28 C          46.2508   15.5102  -26.0733 C.ar    1  UNL1        0.0561
     29 C          47.4517   13.4280  -25.2526 C.2     1  UNL1        0.1738
     30 C          46.7788   12.3941  -24.4067 C.3     1  UNL1        0.0773
     31 O          48.3468   13.0802  -26.0679 O.2     1  UNL1       -0.2913
     32 C          46.1038   12.9184  -28.6778 C.3     1  UNL1        0.2542
     33 O          45.8326   13.4787  -27.3986 O.3     1  UNL1       -0.4561
     34 C          50.1359    8.6350  -28.4798 C.3     1  UNL1        0.0867
     35 C          49.7627    7.2966  -27.8135 C.3     1  UNL1        0.0244
     36 C          51.1617    8.3890  -29.6019 C.3     1  UNL1        0.0244
     37 C          48.8629    9.2542  -29.0961 C.3     1  UNL1        0.0244
@<TRIPOS>BOND
     1    32    33    1
     2    33    19    1
     3    19    20   ar
     4    20    21   ar
     5    21    22   ar
     6    22    23   ar
     7    23    24   ar
     8    24    25   ar
     9    25    26   ar
    10    26     1    1
    11     1     2    2
    12     1     3   am
    13     3     4    1
    14     4     5    1
    15     5     6    1
    16     6     7    1
    17     7     8    1
    18     6     9    1
    19     9    10    1
    20    10    11   ar
    21    11    12   ar
    22    12    34    1
    23    34    35    1
    24    34    36    1
    25    34    37    1
    26    12    13   ar
    27    13    14   ar
    28    14    15    1
    29    15    16    2
    30    15    17   am
    31    26    27   ar
    32    27    29    1
    33    29    30    1
    34    29    31    2
    35    27    28   ar
    36    28    19   ar
    37    28    23   ar
    38     8     3    1
    39    14    10   ar
    40    17     6    1
    41    17    18    1
@<TRIPOS>MOLECULE
*****
 37 41 0 0 0
SMALL
GASTEIGER

@<TRIPOS>ATOM
      1 C          50.0791    9.8463  -23.6101 C.2     1  UNL1        0.2491
      2 O          50.6441    9.2541  -22.6506 O.2     1  UNL1       -0.2699
      3 N          49.0230   10.7975  -23.3465 N.am    1  UNL1       -0.2760
      4 C          48.7713   11.1978  -21.9527 C.3     1  UNL1        0.0954
      5 C          47.6972   12.2939  -21.8522 C.3     1  UNL1        0.0399
      6 C          47.8444   13.3432  -22.9793 C.3     1  UNL1        0.0645
      7 C          47.6909   12.6466  -24.3675 C.3     1  UNL1        0.0399
      8 C          48.0331   11.1433  -24.3787 C.3     1  UNL1        0.0954
      9 C          49.2497   14.0377  -22.8683 C.3     1  UNL1        0.0477
     10 C          49.2858   15.2924  -23.6835 C.ar    1  UNL1        0.0220
     11 C          50.3379   15.9864  -24.2308 C.ar    1  UNL1        0.0923
     12 N          49.8396   17.1170  -24.7915 N.ar    1  UNL1       -0.2534
     13 N          48.5237   17.1708  -24.5991 N.ar    1  UNL1       -0.1651
     14 C          48.1892   16.0605  -23.9190 C.ar    1  UNL1        0.1515
     15 C          46.8725   15.6444  -23.4597 C.2     1  UNL1        0.2650
     16 O          45.8672   16.3927  -23.5819 O.2     1  UNL1       -0.2684
     17 N          46.7642   14.3515  -22.8410 N.am    1  UNL1       -0.3023
     18 H          45.8404   14.0702  -22.4401 H       1  UNL1        0.1497
     19 C          52.8046   10.6610  -27.7840 C.ar    1  UNL1        0.2249
     20 N          53.0730   10.2687  -29.0610 N.ar    1  UNL1       -0.2101
     21 C          52.4567    9.2149  -29.6477 C.ar    1  UNL1        0.1021
     22 C          51.5184    8.4756  -28.9395 C.ar    1  UNL1        0.0209
     23 C          51.2034    8.8358  -27.6237 C.ar    1  UNL1        0.0061
     24 C          50.2755    8.0715  -26.9087 C.ar    1  UNL1        0.0003
     25 C          49.9463    8.4050  -25.6013 C.ar    1  UNL1        0.0046
     26 C          50.5166    9.5218  -24.9850 C.ar    1  UNL1        0.0565
     27 C          51.4672   10.3114  -25.6809 C.ar    1  UNL1        0.0436
     28 C          51.8293    9.9602  -27.0182 C.ar    1  UNL1        0.0561
     29 C          52.0635   11.4790  -24.9961 C.2     1  UNL1        0.1738
     30 C          51.5915   12.8659  -25.2984 C.3     1  UNL1        0.0773
     31 O          52.9951   11.3047  -24.1662 O.2     1  UNL1       -0.2913
     32 C          54.8681   11.6595  -26.8295 C.3     1  UNL1        0.2542
     33 O          53.5106   11.7433  -27.2467 O.3     1  UNL1       -0.4561
     34 C          50.6238   18.1465  -25.5024 C.3     1  UNL1        0.0867
     35 C          51.7815   18.6220  -24.6035 C.3     1  UNL1        0.0244
     36 C          49.7113   19.3378  -25.8489 C.3     1  UNL1        0.0244
     37 C          51.2136   17.5745  -26.8096 C.3     1  UNL1        0.0244
@<TRIPOS>BOND
     1    32    33    1
     2    33    19    1
     3    19    20   ar
     4    20    21   ar
     5    21    22   ar
     6    22    23   ar
     7    23    24   ar
     8    24    25   ar
     9    25    26   ar
    10    26     1    1
    11     1     2    2
    12     1     3   am
    13     3     4    1
    14     4     5    1
    15     5     6    1
    16     6     7    1
    17     7     8    1
    18     6     9    1
    19     9    10    1
    20    10    11   ar
    21    11    12   ar
    22    12    34    1
    23    34    35    1
    24    34    36    1
    25    34    37    1
    26    12    13   ar
    27    13    14   ar
    28    14    15    1
    29    15    16    2
    30    15    17   am
    31    26    27   ar
    32    27    29    1
    33    29    30    1
    34    29    31    2
    35    27    28   ar
    36    28    19   ar
    37    28    23   ar
    38     8     3    1
    39    14    10   ar
    40    17     6    1
    41    17    18    1
@<TRIPOS>MOLECULE
*****
 37 41 0 0 0
SMALL
GASTEIGER

@<TRIPOS>ATOM
      1 C          49.5741   12.9649  -24.4171 C.2     1  UNL1        0.2491
      2 O          50.0114   12.1226  -25.2478 O.2     1  UNL1       -0.2699
      3 N          48.4094   12.6514  -23.6206 N.am    1  UNL1       -0.2760
      4 C          47.8830   11.2774  -23.6580 C.3     1  UNL1        0.0954
      5 C          46.7165   11.0796  -22.6754 C.3     1  UNL1        0.0399
      6 C          46.9671   11.8118  -21.3360 C.3     1  UNL1        0.0645
      7 C          47.1209   13.3430  -21.5962 C.3     1  UNL1        0.0399
      8 C          47.5896   13.7141  -23.0174 C.3     1  UNL1        0.0954
      9 C          48.2652   11.2388  -20.6605 C.3     1  UNL1        0.0477
     10 C          48.3342   11.6412  -19.2206 C.ar    1  UNL1        0.0220
     11 C          49.4015   11.7548  -18.3625 C.ar    1  UNL1        0.0923
     12 N          48.9126   12.0567  -17.1334 N.ar    1  UNL1       -0.2534
     13 N          47.5837   12.1152  -17.1810 N.ar    1  UNL1       -0.1651
     14 C          47.2332   11.8563  -18.4527 C.ar    1  UNL1        0.1515
     15 C          45.8977   11.7976  -19.0279 C.2     1  UNL1        0.2650
     16 O          44.8681   11.8943  -18.3096 O.2     1  UNL1       -0.2684
     17 N          45.7957   11.6045  -20.4486 N.am    1  UNL1       -0.3023
     18 H          44.8440   11.4864  -20.8652 H       1  UNL1        0.1497
     19 C          50.5095   17.7164  -25.8531 C.ar    1  UNL1        0.2249
     20 N          51.2655   18.8338  -25.6619 N.ar    1  UNL1       -0.2101
     21 C          52.2311   18.9110  -24.7153 C.ar    1  UNL1        0.1021
     22 C          52.4747   17.8282  -23.8806 C.ar    1  UNL1        0.0209
     23 C          51.7277   16.6541  -24.0343 C.ar    1  UNL1        0.0061
     24 C          51.9621   15.5765  -23.1738 C.ar    1  UNL1        0.0003
     25 C          51.2341   14.4008  -23.3025 C.ar    1  UNL1        0.0046
     26 C          50.2727   14.2637  -24.3071 C.ar    1  UNL1        0.0565
     27 C          50.0061   15.3414  -25.1895 C.ar    1  UNL1        0.0436
     28 C          50.7341   16.5633  -25.0477 C.ar    1  UNL1        0.0561
     29 C          48.9723   15.1701  -26.2336 C.2     1  UNL1        0.1738
     30 C          47.5286   15.4132  -25.9270 C.3     1  UNL1        0.0773
     31 O          49.3097   14.7930  -27.3872 O.2     1  UNL1       -0.2913
     32 C          48.9055   18.9307  -27.3088 C.3     1  UNL1        0.2542
     33 O          49.5125   17.7344  -26.8351 O.3     1  UNL1       -0.4561
     34 C          49.7166   12.2805  -15.9153 C.3     1  UNL1        0.0867
     35 C          49.1590   13.4948  -15.1478 C.3     1  UNL1        0.0244
     36 C          51.1822   12.5427  -16.3094 C.3     1  UNL1        0.0244
     37 C          49.6627   11.0434  -14.9932 C.3     1  UNL1        0.0244
@<TRIPOS>BOND
     1    32    33    1
     2    33    19    1
     3    19    20   ar
     4    20    21   ar
     5    21    22   ar
     6    22    23   ar
     7    23    24   ar
     8    24    25   ar
     9    25    26   ar
    10    26     1    1
    11     1     2    2
    12     1     3   am
    13     3     4    1
    14     4     5    1
    15     5     6    1
    16     6     7    1
    17     7     8    1
    18     6     9    1
    19     9    10    1
    20    10    11   ar
    21    11    12   ar
    22    12    34    1
    23    34    35    1
    24    34    36    1
    25    34    37    1
    26    12    13   ar
    27    13    14   ar
    28    14    15    1
    29    15    16    2
    30    15    17   am
    31    26    27   ar
    32    27    29    1
    33    29    30    1
    34    29    31    2
    35    27    28   ar
    36    28    19   ar
    37    28    23   ar
    38     8     3    1
    39    14    10   ar
    40    17     6    1
    41    17    18    1
@<TRIPOS>MOLECULE
*****
 37 41 0 0 0
SMALL
GASTEIGER

@<TRIPOS>ATOM
      1 C          46.7653   12.2442  -21.2287 C.2     1  UNL1        0.2491
      2 O          45.8011   12.1721  -20.4189 O.2     1  UNL1       -0.2699
      3 N          46.5097   12.2648  -22.6513 N.am    1  UNL1       -0.2760
      4 C          45.1187   12.4024  -23.1122 C.3     1  UNL1        0.0954
      5 C          45.0271   12.5200  -24.6429 C.3     1  UNL1        0.0399
      6 C          46.1588   13.4047  -25.2168 C.3     1  UNL1        0.0645
      7 C          47.5441   12.7772  -24.8657 C.3     1  UNL1        0.0399
      8 C          47.5468   11.8714  -23.6181 C.3     1  UNL1        0.0954
      9 C          46.0468   14.8530  -24.6173 C.3     1  UNL1        0.0477
     10 C          46.8680   15.8196  -25.4119 C.ar    1  UNL1        0.0220
     11 C          47.4153   17.0340  -25.0742 C.ar    1  UNL1        0.0923
     12 N          47.9831   17.5557  -26.1907 N.ar    1  UNL1       -0.2534
     13 N          47.7952   16.7297  -27.2174 N.ar    1  UNL1       -0.1651
     14 C          47.1108   15.6751  -26.7416 C.ar    1  UNL1        0.1515
     15 C          46.6536   14.4955  -27.4610 C.2     1  UNL1        0.2650
     16 O          46.7827   14.3962  -28.7096 O.2     1  UNL1       -0.2684
     17 N          46.0289   13.4522  -26.6945 N.am    1  UNL1       -0.3023
     18 H          45.6296   12.6328  -27.2066 H       1  UNL1        0.1497
     19 C          50.1063   12.1811  -17.4409 C.ar    1  UNL1        0.2249
     20 N          51.4159   12.2816  -17.0785 N.ar    1  UNL1       -0.2101
     21 C          52.4119   12.4675  -17.9774 C.ar    1  UNL1        0.1021
     22 C          52.1192   12.5487  -19.3325 C.ar    1  UNL1        0.0209
     23 C          50.7896   12.4530  -19.7603 C.ar    1  UNL1        0.0061
     24 C          50.5054   12.5112  -21.1287 C.ar    1  UNL1        0.0003
     25 C          49.1955   12.4165  -21.5808 C.ar    1  UNL1        0.0046
     26 C          48.1372   12.2859  -20.6780 C.ar    1  UNL1        0.0565
     27 C          48.3939   12.2152  -19.2850 C.ar    1  UNL1        0.0436
     28 C          49.7414   12.2874  -18.8136 C.ar    1  UNL1        0.0561
     29 C          47.2532   12.0626  -18.3558 C.2     1  UNL1        0.1738
     30 C          46.5103   13.2601  -17.8542 C.3     1  UNL1        0.0773
     31 O          46.9188   10.9127  -17.9648 O.2     1  UNL1       -0.2913
     32 C          49.4723   11.5862  -15.1149 C.3     1  UNL1        0.2542
     33 O          49.1451   11.9593  -16.4481 O.3     1  UNL1       -0.4561
     34 C          48.6965   18.8457  -26.2745 C.3     1  UNL1        0.0867
     35 C          50.1483   18.6621  -25.7915 C.3     1  UNL1        0.0244
     36 C          47.9820   19.8851  -25.3908 C.3     1  UNL1        0.0244
     37 C          48.7193   19.3609  -27.7297 C.3     1  UNL1        0.0244
@<TRIPOS>BOND
     1    32    33    1
     2    33    19    1
     3    19    20   ar
     4    20    21   ar
     5    21    22   ar
     6    22    23   ar
     7    23    24   ar
     8    24    25   ar
     9    25    26   ar
    10    26     1    1
    11     1     2    2
    12     1     3   am
    13     3     4    1
    14     4     5    1
    15     5     6    1
    16     6     7    1
    17     7     8    1
    18     6     9    1
    19     9    10    1
    20    10    11   ar
    21    11    12   ar
    22    12    34    1
    23    34    35    1
    24    34    36    1
    25    34    37    1
    26    12    13   ar
    27    13    14   ar
    28    14    15    1
    29    15    16    2
    30    15    17   am
    31    26    27   ar
    32    27    29    1
    33    29    30    1
    34    29    31    2
    35    27    28   ar
    36    28    19   ar
    37    28    23   ar
    38     8     3    1
    39    14    10   ar
    40    17     6    1
    41    17    18    1
