@<TRIPOS>MOLECULE
*****
 46 51 0 0 0
SMALL
GASTEIGER

@<TRIPOS>ATOM
      1 C         -24.0627   51.5815   -9.5330 C.ar    1  UNL1        0.1318
      2 C         -23.8151   50.9842   -8.2848 C.ar    1  UNL1        0.0356
      3 C         -24.8829   50.5027   -7.5263 C.ar    1  UNL1        0.0191
      4 C         -26.1934   50.6010   -8.0083 C.ar    1  UNL1        0.0702
      5 C         -26.4046   51.2254   -9.2478 C.ar    1  UNL1        0.1149
      6 N         -25.3498   51.6900   -9.9680 N.ar    1  UNL1       -0.2279
      7 C         -20.8424   52.9516  -12.1886 C.3     1  UNL1        0.0472
      8 C         -20.8688   51.5645  -11.4903 C.3     1  UNL1        0.0252
      9 C         -21.6184   51.5839  -10.1545 C.3     1  UNL1        0.0923
     10 N         -22.9851   52.0926  -10.3485 N.pl3   1  UNL1       -0.2932
     11 C         -23.2209   53.1950  -11.2967 C.3     1  UNL1        0.0923
     12 C         -21.9162   53.9211  -11.6405 C.3     1  UNL1        0.0252
     13 C         -19.4405   53.5888  -12.0946 C.3     1  UNL1        0.2055
     14 O         -19.2604   54.2662  -10.8493 O.3     1  UNL1       -0.4724
     15 C         -19.6102   54.0788   -8.4751 C.ar    1  UNL1        0.1724
     16 C         -19.2998   53.4988   -7.2318 C.ar    1  UNL1        0.0403
     17 C         -18.3160   52.5137   -7.1367 C.ar    1  UNL1        0.0098
     18 C         -17.6245   52.0847   -8.2802 C.ar    1  UNL1        0.0787
     19 C         -17.9357   52.6619   -9.5226 C.ar    1  UNL1        0.0465
     20 C         -18.9231   53.6625   -9.6253 C.ar    1  UNL1        0.1724
     21 C         -16.5819   51.0384   -8.1814 C.2     1  UNL1        0.3381
     22 O         -16.6561   49.9945   -8.8847 O.2     1  UNL1       -0.2451
     23 O         -15.5080   51.1965   -7.3090 O.3     1  UNL1       -0.4771
     24 H         -14.7897   50.4861   -7.2337 H       1  UNL1        0.2954
     25 C         -20.3179   56.4663   -8.7267 C.3     1  UNL1        0.2526
     26 O         -20.5915   55.0740   -8.6087 O.3     1  UNL1       -0.4684
     27 N         -27.2862   50.1214   -7.2061 N.am    1  UNL1       -0.2766
     28 C         -27.8142   50.8269   -6.0731 C.2     1  UNL1        0.2839
     29 O         -27.6945   52.0795   -5.9992 O.2     1  UNL1       -0.2665
     30 H         -27.7953   49.2683   -7.5287 H       1  UNL1        0.1553
     31 C         -28.5731   50.1245   -5.0233 C.ar    1  UNL1        0.1946
     32 O         -29.7006   50.6019   -4.5258 O.2     1  UNL1       -0.4492
     33 C         -30.1358   49.7530   -3.6271 C.ar    1  UNL1        0.1452
     34 C         -31.2924   49.8511   -2.8615 C.ar    1  UNL1        0.0375
     35 C         -31.5723   48.8153   -1.9530 C.ar    1  UNL1        0.0031
     36 C         -30.6968   47.7030   -1.8236 C.ar    1  UNL1        0.0002
     37 C         -29.5288   47.6436   -2.6211 C.ar    1  UNL1        0.0028
     38 C         -29.2830   48.6893   -3.5113 C.ar    1  UNL1        0.0337
     39 C         -28.2490   48.9139   -4.3981 C.ar    1  UNL1        0.0202
     40 C         -27.0511   48.0402   -4.6192 C.3     1  UNL1        0.0345
     41 C         -31.0032   46.6141   -0.8616 C.ar    1  UNL1        0.0000
     42 C         -31.2933   45.3147   -1.3196 C.ar    1  UNL1        0.0000
     43 C         -31.5803   44.2911   -0.4112 C.ar    1  UNL1        0.0000
     44 C         -31.5818   44.5515    0.9609 C.ar    1  UNL1        0.0000
     45 C         -31.2958   45.8362    1.4278 C.ar    1  UNL1        0.0000
     46 C         -31.0072   46.8635    0.5241 C.ar    1  UNL1        0.0000
@<TRIPOS>BOND
     1    25    26    1
     2    26    15    1
     3    15    16   ar
     4    16    17   ar
     5    17    18   ar
     6    18    21    1
     7    21    22    2
     8    21    23    1
     9    18    19   ar
    10    19    20   ar
    11    20    14    1
    12    14    13    1
    13    13     7    1
    14     7     8    1
    15     8     9    1
    16     9    10    1
    17    10     1    1
    18     1     2   ar
    19     2     3   ar
    20     3     4   ar
    21     4    27    1
    22    27    28   am
    23    28    29    2
    24    28    31    1
    25    31    32   ar
    26    32    33   ar
    27    33    34   ar
    28    34    35   ar
    29    35    36   ar
    30    36    41    1
    31    41    42   ar
    32    42    43   ar
    33    43    44   ar
    34    44    45   ar
    35    45    46   ar
    36    36    37   ar
    37    37    38   ar
    38    38    39   ar
    39    39    40    1
    40     4     5   ar
    41     5     6   ar
    42    10    11    1
    43    11    12    1
    44    20    15   ar
    45    12     7    1
    46     6     1   ar
    47    39    31   ar
    48    38    33   ar
    49    46    41   ar
    50    23    24    1
    51    27    30    1
@<TRIPOS>MOLECULE
*****
 46 51 0 0 0
SMALL
GASTEIGER

@<TRIPOS>ATOM
      1 C         -25.4240   49.9804   -9.4595 C.ar    1  UNL1        0.1318
      2 C         -25.1918   50.6882  -10.6516 C.ar    1  UNL1        0.0356
      3 C         -24.3057   51.7664  -10.6524 C.ar    1  UNL1        0.0191
      4 C         -23.6408   52.1357   -9.4774 C.ar    1  UNL1        0.0702
      5 C         -23.9161   51.4211   -8.3007 C.ar    1  UNL1        0.1149
      6 N         -24.7853   50.3765   -8.3226 N.ar    1  UNL1       -0.2279
      7 C         -28.0862   46.4870   -9.5536 C.3     1  UNL1        0.0472
      8 C         -28.1218   47.6413  -10.5922 C.3     1  UNL1        0.0252
      9 C         -27.6757   48.9844  -10.0060 C.3     1  UNL1        0.0923
     10 N         -26.3337   48.8587   -9.4167 N.pl3   1  UNL1       -0.2932
     11 C         -25.9715   47.6274   -8.6937 C.3     1  UNL1        0.0923
     12 C         -27.2163   46.8171   -8.3176 C.3     1  UNL1        0.0252
     13 C         -29.5133   46.0921   -9.1202 C.3     1  UNL1        0.2055
     14 O         -30.3103   47.2457   -8.8447 O.3     1  UNL1       -0.4724
     15 C         -30.7864   47.4247   -6.4920 C.ar    1  UNL1        0.1724
     16 C         -30.7711   48.1547   -5.2897 C.ar    1  UNL1        0.0403
     17 C         -30.2522   49.4496   -5.2550 C.ar    1  UNL1        0.0098
     18 C         -29.7349   50.0412   -6.4179 C.ar    1  UNL1        0.0787
     19 C         -29.7477   49.3118   -7.6183 C.ar    1  UNL1        0.0465
     20 C         -30.2767   48.0060   -7.6627 C.ar    1  UNL1        0.1724
     21 C         -29.1823   51.4141   -6.3824 C.2     1  UNL1        0.3381
     22 O         -28.2793   51.7602   -7.1916 O.2     1  UNL1       -0.2451
     23 O         -29.6542   52.3379   -5.4532 O.3     1  UNL1       -0.4771
     24 H         -29.2822   53.2796   -5.4206 H       1  UNL1        0.2954
     25 C         -31.1611   45.1385   -5.5448 C.3     1  UNL1        0.2526
     26 O         -31.3028   46.1211   -6.5654 O.3     1  UNL1       -0.4684
     27 N         -22.7480   53.2629   -9.4873 N.am    1  UNL1       -0.2766
     28 C         -21.4162   53.2309   -8.9529 C.2     1  UNL1        0.2839
     29 O         -20.7899   52.1391   -8.8872 O.2     1  UNL1       -0.2665
     30 H         -23.0428   54.1188  -10.0084 H       1  UNL1        0.1553
     31 C         -20.7257   54.4691   -8.5513 C.ar    1  UNL1        0.1946
     32 O         -19.7223   54.4725   -7.6911 O.2     1  UNL1       -0.4492
     33 C         -19.3177   55.7110   -7.5488 C.ar    1  UNL1        0.1452
     34 C         -18.2804   56.1749   -6.7474 C.ar    1  UNL1        0.0375
     35 C         -18.0115   57.5549   -6.7491 C.ar    1  UNL1        0.0031
     36 C         -18.7793   58.4460   -7.5472 C.ar    1  UNL1        0.0002
     37 C         -19.8279   57.9320   -8.3471 C.ar    1  UNL1        0.0028
     38 C         -20.0664   56.5576   -8.3202 C.ar    1  UNL1        0.0337
     39 C         -21.0004   55.7767   -8.9713 C.ar    1  UNL1        0.0202
     40 C         -22.0673   56.2507   -9.9115 C.3     1  UNL1        0.0345
     41 C         -18.4855   59.9016   -7.5420 C.ar    1  UNL1        0.0000
     42 C         -17.2053   60.3748   -7.8876 C.ar    1  UNL1        0.0000
     43 C         -16.9321   61.7462   -7.8830 C.ar    1  UNL1        0.0000
     44 C         -17.9299   62.6586   -7.5336 C.ar    1  UNL1        0.0000
     45 C         -19.2037   62.2019   -7.1886 C.ar    1  UNL1        0.0000
     46 C         -19.4830   60.8318   -7.1925 C.ar    1  UNL1        0.0000
@<TRIPOS>BOND
     1    25    26    1
     2    26    15    1
     3    15    16   ar
     4    16    17   ar
     5    17    18   ar
     6    18    21    1
     7    21    22    2
     8    21    23    1
     9    18    19   ar
    10    19    20   ar
    11    20    14    1
    12    14    13    1
    13    13     7    1
    14     7     8    1
    15     8     9    1
    16     9    10    1
    17    10     1    1
    18     1     2   ar
    19     2     3   ar
    20     3     4   ar
    21     4    27    1
    22    27    28   am
    23    28    29    2
    24    28    31    1
    25    31    32   ar
    26    32    33   ar
    27    33    34   ar
    28    34    35   ar
    29    35    36   ar
    30    36    41    1
    31    41    42   ar
    32    42    43   ar
    33    43    44   ar
    34    44    45   ar
    35    45    46   ar
    36    36    37   ar
    37    37    38   ar
    38    38    39   ar
    39    39    40    1
    40     4     5   ar
    41     5     6   ar
    42    10    11    1
    43    11    12    1
    44    20    15   ar
    45    12     7    1
    46     6     1   ar
    47    39    31   ar
    48    38    33   ar
    49    46    41   ar
    50    23    24    1
    51    27    30    1
@<TRIPOS>MOLECULE
*****
 46 51 0 0 0
SMALL
GASTEIGER

@<TRIPOS>ATOM
      1 C         -25.4053   49.9279   -9.4767 C.ar    1  UNL1        0.1318
      2 C         -25.1889   50.6464  -10.6653 C.ar    1  UNL1        0.0356
      3 C         -24.3131   51.7330  -10.6651 C.ar    1  UNL1        0.0191
      4 C         -23.6426   52.1001   -9.4925 C.ar    1  UNL1        0.0702
      5 C         -23.9021   51.3745   -8.3190 C.ar    1  UNL1        0.1149
      6 N         -24.7615   50.3219   -8.3419 N.ar    1  UNL1       -0.2279
      7 C         -28.0304   46.4066   -9.5724 C.3     1  UNL1        0.0472
      8 C         -28.0642   47.5508  -10.6222 C.3     1  UNL1        0.0252
      9 C         -27.6394   48.9038  -10.0430 C.3     1  UNL1        0.0923
     10 N         -26.3040   48.7974   -9.4351 N.pl3   1  UNL1       -0.2932
     11 C         -25.9388   47.5766   -8.6959 C.3     1  UNL1        0.0923
     12 C         -27.1800   46.7570   -8.3284 C.3     1  UNL1        0.0252
     13 C         -29.4589   46.0010   -9.1538 C.3     1  UNL1        0.2055
     14 O         -30.3671   47.0974   -9.2770 O.3     1  UNL1       -0.4724
     15 C         -31.1524   49.2934   -8.6814 C.ar    1  UNL1        0.1724
     16 C         -31.4487   50.2688   -7.7121 C.ar    1  UNL1        0.0403
     17 C         -31.2496   50.0026   -6.3569 C.ar    1  UNL1        0.0098
     18 C         -30.7544   48.7570   -5.9407 C.ar    1  UNL1        0.0787
     19 C         -30.4606   47.7817   -6.9081 C.ar    1  UNL1        0.0465
     20 C         -30.6523   48.0458   -8.2793 C.ar    1  UNL1        0.1724
     21 C         -30.5445   48.4723   -4.5033 C.2     1  UNL1        0.3381
     22 O         -31.3187   48.9601   -3.6358 O.2     1  UNL1       -0.2451
     23 O         -29.4879   47.6624   -4.0942 O.3     1  UNL1       -0.4771
     24 H         -29.3355   47.4620   -3.1130 H       1  UNL1        0.2954
     25 C         -31.0463   50.7563  -10.7094 C.3     1  UNL1        0.2526
     26 O         -31.3373   49.5265  -10.0536 O.3     1  UNL1       -0.4684
     27 N         -22.7606   53.2358   -9.5010 N.am    1  UNL1       -0.2766
     28 C         -21.4150   53.2050   -9.0024 C.2     1  UNL1        0.2839
     29 O         -20.7773   52.1180   -8.9770 O.2     1  UNL1       -0.2665
     30 H         -23.0767   54.0999   -9.9954 H       1  UNL1        0.1553
     31 C         -20.7253   54.4408   -8.5920 C.ar    1  UNL1        0.1946
     32 O         -19.7185   54.4382   -7.7358 O.2     1  UNL1       -0.4492
     33 C         -19.3159   55.6761   -7.5835 C.ar    1  UNL1        0.1452
     34 C         -18.2763   56.1345   -6.7819 C.ar    1  UNL1        0.0375
     35 C         -18.0101   57.5150   -6.7717 C.ar    1  UNL1        0.0031
     36 C         -18.7829   58.4120   -7.5583 C.ar    1  UNL1        0.0002
     37 C         -19.8337   57.9034   -8.3588 C.ar    1  UNL1        0.0028
     38 C         -20.0693   56.5284   -8.3439 C.ar    1  UNL1        0.0337
     39 C         -21.0044   55.7517   -8.9985 C.ar    1  UNL1        0.0202
     40 C         -22.0760   56.2323   -9.9299 C.3     1  UNL1        0.0345
     41 C         -18.4921   59.8681   -7.5406 C.ar    1  UNL1        0.0000
     42 C         -17.2164   60.3477   -7.8940 C.ar    1  UNL1        0.0000
     43 C         -16.9459   61.7195   -7.8775 C.ar    1  UNL1        0.0000
     44 C         -17.9420   62.6261   -7.5085 C.ar    1  UNL1        0.0000
     45 C         -19.2113   62.1630   -7.1555 C.ar    1  UNL1        0.0000
     46 C         -19.4879   60.7924   -7.1711 C.ar    1  UNL1        0.0000
@<TRIPOS>BOND
     1    25    26    1
     2    26    15    1
     3    15    16   ar
     4    16    17   ar
     5    17    18   ar
     6    18    21    1
     7    21    22    2
     8    21    23    1
     9    18    19   ar
    10    19    20   ar
    11    20    14    1
    12    14    13    1
    13    13     7    1
    14     7     8    1
    15     8     9    1
    16     9    10    1
    17    10     1    1
    18     1     2   ar
    19     2     3   ar
    20     3     4   ar
    21     4    27    1
    22    27    28   am
    23    28    29    2
    24    28    31    1
    25    31    32   ar
    26    32    33   ar
    27    33    34   ar
    28    34    35   ar
    29    35    36   ar
    30    36    41    1
    31    41    42   ar
    32    42    43   ar
    33    43    44   ar
    34    44    45   ar
    35    45    46   ar
    36    36    37   ar
    37    37    38   ar
    38    38    39   ar
    39    39    40    1
    40     4     5   ar
    41     5     6   ar
    42    10    11    1
    43    11    12    1
    44    20    15   ar
    45    12     7    1
    46     6     1   ar
    47    39    31   ar
    48    38    33   ar
    49    46    41   ar
    50    23    24    1
    51    27    30    1
@<TRIPOS>MOLECULE
*****
 46 51 0 0 0
SMALL
GASTEIGER

@<TRIPOS>ATOM
      1 C         -25.4190   49.7796   -9.4017 C.ar    1  UNL1        0.1318
      2 C         -25.2339   50.5029  -10.5927 C.ar    1  UNL1        0.0356
      3 C         -24.3807   51.6072  -10.6039 C.ar    1  UNL1        0.0191
      4 C         -23.7017   51.9876   -9.4404 C.ar    1  UNL1        0.0702
      5 C         -23.9299   51.2563   -8.2640 C.ar    1  UNL1        0.1149
      6 N         -24.7677   50.1863   -8.2756 N.ar    1  UNL1       -0.2279
      7 C         -27.8734   46.1375   -9.2996 C.3     1  UNL1        0.0472
      8 C         -27.1899   46.6953  -10.5779 C.3     1  UNL1        0.0252
      9 C         -27.0315   48.2188  -10.5525 C.3     1  UNL1        0.0923
     10 N         -26.2936   48.6309   -9.3484 N.pl3   1  UNL1       -0.2932
     11 C         -26.5380   47.9336   -8.0739 C.3     1  UNL1        0.0923
     12 C         -27.8455   47.1362   -8.1184 C.3     1  UNL1        0.0252
     13 C         -29.3206   45.6936   -9.5980 C.3     1  UNL1        0.2055
     14 O         -30.1606   46.8154   -9.8776 O.3     1  UNL1       -0.4724
     15 C         -30.7798   48.7179  -11.2158 C.ar    1  UNL1        0.1724
     16 C         -31.0269   49.3079  -12.4686 C.ar    1  UNL1        0.0403
     17 C         -30.8929   48.5622  -13.6404 C.ar    1  UNL1        0.0098
     18 C         -30.5065   47.2139  -13.5866 C.ar    1  UNL1        0.0787
     19 C         -30.2573   46.6248  -12.3359 C.ar    1  UNL1        0.0465
     20 C         -30.3975   47.3698  -11.1476 C.ar    1  UNL1        0.1724
     21 C         -30.3620   46.4219  -14.8289 C.2     1  UNL1        0.3381
     22 O         -30.0355   45.2051  -14.7762 O.2     1  UNL1       -0.2451
     23 O         -30.5848   47.0138  -16.0696 O.3     1  UNL1       -0.4771
     24 H         -30.4880   46.4805  -16.9255 H       1  UNL1        0.2954
     25 C         -29.9742   50.4077   -9.5545 C.3     1  UNL1        0.2526
     26 O         -30.9071   49.4361  -10.0161 O.3     1  UNL1       -0.4684
     27 N         -22.8434   53.1411   -9.4604 N.am    1  UNL1       -0.2766
     28 C         -21.4668   53.1188   -9.0544 C.2     1  UNL1        0.2839
     29 O         -20.8089   52.0454   -9.1169 O.2     1  UNL1       -0.2665
     30 H         -23.2080   54.0176   -9.8962 H       1  UNL1        0.1553
     31 C         -20.7739   54.3513   -8.6398 C.ar    1  UNL1        0.1946
     32 O         -19.7676   54.3432   -7.7831 O.2     1  UNL1       -0.4492
     33 C         -19.3616   55.5795   -7.6267 C.ar    1  UNL1        0.1452
     34 C         -18.3211   56.0325   -6.8231 C.ar    1  UNL1        0.0375
     35 C         -18.0511   57.4123   -6.8084 C.ar    1  UNL1        0.0031
     36 C         -18.8210   58.3139   -7.5926 C.ar    1  UNL1        0.0002
     37 C         -19.8728   57.8107   -8.3953 C.ar    1  UNL1        0.0028
     38 C         -20.1122   56.4363   -8.3848 C.ar    1  UNL1        0.0337
     39 C         -21.0491   55.6643   -9.0423 C.ar    1  UNL1        0.0202
     40 C         -22.1189   56.1508   -9.9728 C.3     1  UNL1        0.0345
     41 C         -18.5261   59.7691   -7.5702 C.ar    1  UNL1        0.0000
     42 C         -17.2556   60.2479   -7.9429 C.ar    1  UNL1        0.0000
     43 C         -16.9813   61.6189   -7.9219 C.ar    1  UNL1        0.0000
     44 C         -17.9684   62.5254   -7.5292 C.ar    1  UNL1        0.0000
     45 C         -19.2325   62.0631   -7.1570 C.ar    1  UNL1        0.0000
     46 C         -19.5128   60.6933   -7.1770 C.ar    1  UNL1        0.0000
@<TRIPOS>BOND
     1    25    26    1
     2    26    15    1
     3    15    16   ar
     4    16    17   ar
     5    17    18   ar
     6    18    21    1
     7    21    22    2
     8    21    23    1
     9    18    19   ar
    10    19    20   ar
    11    20    14    1
    12    14    13    1
    13    13     7    1
    14     7     8    1
    15     8     9    1
    16     9    10    1
    17    10     1    1
    18     1     2   ar
    19     2     3   ar
    20     3     4   ar
    21     4    27    1
    22    27    28   am
    23    28    29    2
    24    28    31    1
    25    31    32   ar
    26    32    33   ar
    27    33    34   ar
    28    34    35   ar
    29    35    36   ar
    30    36    41    1
    31    41    42   ar
    32    42    43   ar
    33    43    44   ar
    34    44    45   ar
    35    45    46   ar
    36    36    37   ar
    37    37    38   ar
    38    38    39   ar
    39    39    40    1
    40     4     5   ar
    41     5     6   ar
    42    10    11    1
    43    11    12    1
    44    20    15   ar
    45    12     7    1
    46     6     1   ar
    47    39    31   ar
    48    38    33   ar
    49    46    41   ar
    50    23    24    1
    51    27    30    1
@<TRIPOS>MOLECULE
*****
 46 51 0 0 0
SMALL
GASTEIGER

@<TRIPOS>ATOM
      1 C         -25.5575   49.8952   -9.4916 C.ar    1  UNL1        0.1318
      2 C         -25.3626   50.6334  -10.6719 C.ar    1  UNL1        0.0356
      3 C         -24.4745   51.7099  -10.6737 C.ar    1  UNL1        0.0191
      4 C         -23.7707   52.0475   -9.5118 C.ar    1  UNL1        0.0702
      5 C         -24.0093   51.3031   -8.3457 C.ar    1  UNL1        0.1149
      6 N         -24.8811   50.2607   -8.3663 N.ar    1  UNL1       -0.2279
      7 C         -28.2823   46.4512   -9.6141 C.3     1  UNL1        0.0472
      8 C         -28.5280   47.7874  -10.3671 C.3     1  UNL1        0.0252
      9 C         -27.9075   48.9945   -9.6567 C.3     1  UNL1        0.0923
     10 N         -26.4680   48.7742   -9.4482 N.pl3   1  UNL1       -0.2932
     11 C         -25.9845   47.4296   -9.0897 C.3     1  UNL1        0.0923
     12 C         -27.1287   46.5431   -8.5874 C.3     1  UNL1        0.0252
     13 C         -29.5751   45.9579   -8.9319 C.3     1  UNL1        0.2055
     14 O         -30.1635   46.9843   -8.1304 O.3     1  UNL1       -0.4724
     15 C         -30.3781   48.2864   -6.1173 C.ar    1  UNL1        0.1724
     16 C         -30.3661   48.3863   -4.7142 C.ar    1  UNL1        0.0403
     17 C         -30.1251   47.2597   -3.9269 C.ar    1  UNL1        0.0098
     18 C         -29.8947   46.0100   -4.5229 C.ar    1  UNL1        0.0787
     19 C         -29.9090   45.9091   -5.9240 C.ar    1  UNL1        0.0465
     20 C         -30.1446   47.0441   -6.7259 C.ar    1  UNL1        0.1724
     21 C         -29.6408   44.8135   -3.6891 C.2     1  UNL1        0.3381
     22 O         -30.5185   44.3974   -2.8850 O.2     1  UNL1       -0.2451
     23 O         -28.4283   44.1351   -3.7840 O.3     1  UNL1       -0.4771
     24 H         -28.2447   43.3156   -3.2174 H       1  UNL1        0.2954
     25 C         -29.9406   50.6472   -6.8237 C.3     1  UNL1        0.2526
     26 O         -30.6143   49.3984   -6.9413 O.3     1  UNL1       -0.4684
     27 N         -22.8761   53.1733   -9.5216 N.am    1  UNL1       -0.2766
     28 C         -21.5316   53.1286   -9.0211 C.2     1  UNL1        0.2839
     29 O         -20.9062   52.0346   -8.9924 O.2     1  UNL1       -0.2665
     30 H         -23.1819   54.0398  -10.0184 H       1  UNL1        0.1553
     31 C         -20.8287   54.3575   -8.6124 C.ar    1  UNL1        0.1946
     32 O         -19.8193   54.3449   -7.7595 O.2     1  UNL1       -0.4492
     33 C         -19.4042   55.5788   -7.6081 C.ar    1  UNL1        0.1452
     34 C         -18.3577   56.0269   -6.8097 C.ar    1  UNL1        0.0375
     35 C         -18.0782   57.4047   -6.7998 C.ar    1  UNL1        0.0031
     36 C         -18.8448   58.3094   -7.5836 C.ar    1  UNL1        0.0002
     37 C         -19.9030   57.8112   -8.3810 C.ar    1  UNL1        0.0028
     38 C         -20.1518   56.4386   -8.3658 C.ar    1  UNL1        0.0337
     39 C         -21.0964   55.6712   -9.0177 C.ar    1  UNL1        0.0202
     40 C         -22.1663   56.1624   -9.9456 C.3     1  UNL1        0.0345
     41 C         -18.5398   59.7626   -7.5664 C.ar    1  UNL1        0.0000
     42 C         -17.2616   60.2302   -7.9269 C.ar    1  UNL1        0.0000
     43 C         -16.9779   61.5994   -7.9109 C.ar    1  UNL1        0.0000
     44 C         -17.9630   62.5152   -7.5352 C.ar    1  UNL1        0.0000
     45 C         -19.2347   62.0640   -7.1752 C.ar    1  UNL1        0.0000
     46 C         -19.5245   60.6961   -7.1904 C.ar    1  UNL1        0.0000
@<TRIPOS>BOND
     1    25    26    1
     2    26    15    1
     3    15    16   ar
     4    16    17   ar
     5    17    18   ar
     6    18    21    1
     7    21    22    2
     8    21    23    1
     9    18    19   ar
    10    19    20   ar
    11    20    14    1
    12    14    13    1
    13    13     7    1
    14     7     8    1
    15     8     9    1
    16     9    10    1
    17    10     1    1
    18     1     2   ar
    19     2     3   ar
    20     3     4   ar
    21     4    27    1
    22    27    28   am
    23    28    29    2
    24    28    31    1
    25    31    32   ar
    26    32    33   ar
    27    33    34   ar
    28    34    35   ar
    29    35    36   ar
    30    36    41    1
    31    41    42   ar
    32    42    43   ar
    33    43    44   ar
    34    44    45   ar
    35    45    46   ar
    36    36    37   ar
    37    37    38   ar
    38    38    39   ar
    39    39    40    1
    40     4     5   ar
    41     5     6   ar
    42    10    11    1
    43    11    12    1
    44    20    15   ar
    45    12     7    1
    46     6     1   ar
    47    39    31   ar
    48    38    33   ar
    49    46    41   ar
    50    23    24    1
    51    27    30    1
