@<TRIPOS>MOLECULE
*****
 46 51 0 0 0
SMALL
GASTEIGER

@<TRIPOS>ATOM
      1 C          12.9834   82.9819   25.5823 C.ar    1  UNL1        0.0702
      2 C          12.9946   83.1733   24.1963 C.ar    1  UNL1        0.0191
      3 C          13.6751   84.2575   23.6405 C.ar    1  UNL1        0.0356
      4 C          14.3380   85.1666   24.4829 C.ar    1  UNL1        0.1318
      5 N          14.2820   84.9785   25.8315 N.ar    1  UNL1       -0.2279
      6 C          13.6289   83.9276   26.3941 C.ar    1  UNL1        0.1149
      7 N          15.0504   86.3032   23.9486 N.pl3   1  UNL1       -0.2932
      8 C          15.9689   86.1502   22.8072 C.3     1  UNL1        0.0923
      9 C          17.0630   87.2242   22.8350 C.3     1  UNL1        0.0252
     10 C          16.4901   88.6651   22.8877 C.3     1  UNL1        0.0472
     11 C          15.0970   88.7338   23.5590 C.3     1  UNL1        0.0252
     12 C          14.8984   87.6189   24.5885 C.3     1  UNL1        0.0923
     13 C          16.4345   89.3026   21.4838 C.3     1  UNL1        0.2054
     14 O          15.0855   89.5070   21.0591 O.3     1  UNL1       -0.4755
     15 C          14.2305   88.5192   20.5424 C.ar    1  UNL1        0.1388
     16 C          12.8512   88.7224   20.6533 C.ar    1  UNL1        0.0369
     17 C          11.9531   87.7796   20.1516 C.ar    1  UNL1        0.0033
     18 C          12.4252   86.6187   19.5368 C.ar    1  UNL1        0.0066
     19 C          13.8065   86.3852   19.4209 C.ar    1  UNL1        0.0785
     20 C          14.7054   87.3491   19.9152 C.ar    1  UNL1        0.0433
     21 C          14.2945   85.1476   18.7651 C.2     1  UNL1        0.3381
     22 O          15.4527   84.7212   19.0181 O.2     1  UNL1       -0.2451
     23 O          13.5099   84.4416   17.8537 O.3     1  UNL1       -0.4771
     24 H          12.6166   84.7835   17.5237 H       1  UNL1        0.2954
     25 C          10.9854   81.4146   25.6465 C.2     1  UNL1        0.2839
     26 O          10.4703   81.9373   24.6223 O.2     1  UNL1       -0.2665
     27 N          12.2566   81.8739   26.1388 N.am    1  UNL1       -0.2766
     28 H          12.6619   81.4185   26.9853 H       1  UNL1        0.1553
     29 C           7.9470   76.8154   28.0407 C.ar    1  UNL1        0.0002
     30 C           8.4218   77.4441   29.2239 C.ar    1  UNL1        0.0031
     31 C           9.2140   78.6037   29.1560 C.ar    1  UNL1        0.0375
     32 C           9.5163   79.1148   27.8987 C.ar    1  UNL1        0.1452
     33 O          10.2333   80.1761   27.6205 O.2     1  UNL1       -0.4492
     34 C          10.2652   80.3119   26.3064 C.ar    1  UNL1        0.1946
     35 C           9.5523   79.2698   25.7002 C.ar    1  UNL1        0.0202
     36 C           9.3764   78.9816   24.2401 C.3     1  UNL1        0.0345
     37 C           9.0659   78.5198   26.7519 C.ar    1  UNL1        0.0337
     38 C           8.2799   77.3679   26.7806 C.ar    1  UNL1        0.0028
     39 C           5.5275   73.2618   28.2865 C.ar    1  UNL1       -0.0222
     40 C           5.7026   74.0791   29.4129 C.ar    1  UNL1       -0.0043
     41 C           6.4912   75.2305   29.3348 C.ar    1  UNL1       -0.0003
     42 C           7.1109   75.5912   28.1247 C.ar    1  UNL1       -0.0000
     43 C           6.9209   74.7758   26.9943 C.ar    1  UNL1       -0.0003
     44 C           6.1328   73.6242   27.0741 C.ar    1  UNL1       -0.0043
     45 C           3.4853   72.2712   29.3184 C.3     1  UNL1        0.0050
     46 C           4.6512   72.0404   28.3629 C.3     1  UNL1        0.0264
@<TRIPOS>BOND
     1    45    46    1
     2    46    39    1
     3    39    40   ar
     4    40    41   ar
     5    41    42   ar
     6    42    29    1
     7    29    30   ar
     8    30    31   ar
     9    31    32   ar
    10    32    33   ar
    11    33    34   ar
    12    34    25    1
    13    25    26    2
    14    25    27   am
    15    27     1    1
    16     1     2   ar
    17     2     3   ar
    18     3     4   ar
    19     4     7    1
    20     7     8    1
    21     8     9    1
    22     9    10    1
    23    10    13    1
    24    13    14    1
    25    14    15    1
    26    15    16   ar
    27    16    17   ar
    28    17    18   ar
    29    18    19   ar
    30    19    21    1
    31    21    22    2
    32    21    23    1
    33    19    20   ar
    34    10    11    1
    35    11    12    1
    36     4     5   ar
    37     5     6   ar
    38    34    35   ar
    39    35    36    1
    40    35    37   ar
    41    37    38   ar
    42    42    43   ar
    43    43    44   ar
    44    44    39   ar
    45    38    29   ar
    46    37    32   ar
    47     6     1   ar
    48    12     7    1
    49    20    15   ar
    50    27    28    1
    51    23    24    1
@<TRIPOS>MOLECULE
*****
 46 51 0 0 0
SMALL
GASTEIGER

@<TRIPOS>ATOM
      1 C          12.9851   83.0998   25.5659 C.ar    1  UNL1        0.0702
      2 C          12.9803   83.2895   24.1797 C.ar    1  UNL1        0.0191
      3 C          13.6370   84.3845   23.6165 C.ar    1  UNL1        0.0356
      4 C          14.2917   85.3060   24.4517 C.ar    1  UNL1        0.1318
      5 N          14.2513   85.1187   25.8009 N.ar    1  UNL1       -0.2279
      6 C          13.6215   84.0575   26.3707 C.ar    1  UNL1        0.1149
      7 N          14.9796   86.4539   23.9096 N.pl3   1  UNL1       -0.2932
      8 C          16.1503   86.2875   23.0311 C.3     1  UNL1        0.0923
      9 C          17.0826   87.5014   23.1227 C.3     1  UNL1        0.0252
     10 C          16.3581   88.8401   22.8220 C.3     1  UNL1        0.0472
     11 C          14.8479   88.7951   23.1587 C.3     1  UNL1        0.0252
     12 C          14.5385   87.8061   24.2850 C.3     1  UNL1        0.0923
     13 C          16.5619   89.2758   21.3560 C.3     1  UNL1        0.2054
     14 O          16.3976   88.1753   20.4593 O.3     1  UNL1       -0.4755
     15 C          15.1703   87.6243   20.0545 C.ar    1  UNL1        0.1388
     16 C          15.0652   86.2310   19.9938 C.ar    1  UNL1        0.0369
     17 C          13.8688   85.6265   19.6062 C.ar    1  UNL1        0.0033
     18 C          12.7638   86.4101   19.2696 C.ar    1  UNL1        0.0066
     19 C          12.8453   87.8127   19.3129 C.ar    1  UNL1        0.0785
     20 C          14.0509   88.4140   19.7206 C.ar    1  UNL1        0.0433
     21 C          11.6634   88.6333   18.9529 C.2     1  UNL1        0.3381
     22 O          11.7592   89.5034   18.0468 O.2     1  UNL1       -0.2451
     23 O          10.4395   88.4830   19.6043 O.3     1  UNL1       -0.4771
     24 H          10.3209   87.8823   20.4099 H       1  UNL1        0.2954
     25 C          11.0441   81.4617   25.6137 C.2     1  UNL1        0.2839
     26 O          10.5413   81.9387   24.5616 O.2     1  UNL1       -0.2665
     27 N          12.2825   81.9801   26.1303 N.am    1  UNL1       -0.2766
     28 H          12.6785   81.5617   27.0000 H       1  UNL1        0.1553
     29 C           8.0712   76.8386   28.0438 C.ar    1  UNL1        0.0002
     30 C           8.6302   77.4193   29.2146 C.ar    1  UNL1        0.0031
     31 C           9.4389   78.5666   29.1347 C.ar    1  UNL1        0.0375
     32 C           9.6727   79.1140   27.8781 C.ar    1  UNL1        0.1452
     33 O          10.3916   80.1715   27.5900 O.2     1  UNL1       -0.4492
     34 C          10.3449   80.3502   26.2815 C.ar    1  UNL1        0.1946
     35 C           9.5760   79.3414   25.6878 C.ar    1  UNL1        0.0202
     36 C           9.3047   79.1050   24.2329 C.3     1  UNL1        0.0345
     37 C           9.1410   78.5653   26.7431 C.ar    1  UNL1        0.0337
     38 C           8.3362   77.4268   26.7837 C.ar    1  UNL1        0.0028
     39 C           5.6034   73.3210   28.3251 C.ar    1  UNL1       -0.0222
     40 C           5.9395   74.0448   29.4786 C.ar    1  UNL1       -0.0043
     41 C           6.7439   75.1844   29.3884 C.ar    1  UNL1       -0.0003
     42 C           7.2184   75.6268   28.1403 C.ar    1  UNL1       -0.0000
     43 C           6.8671   74.9055   26.9850 C.ar    1  UNL1       -0.0003
     44 C           6.0634   73.7656   27.0769 C.ar    1  UNL1       -0.0043
     45 C           3.4917   72.4095   29.2877 C.3     1  UNL1        0.0050
     46 C           4.7100   72.1133   28.4195 C.3     1  UNL1        0.0264
@<TRIPOS>BOND
     1    45    46    1
     2    46    39    1
     3    39    40   ar
     4    40    41   ar
     5    41    42   ar
     6    42    29    1
     7    29    30   ar
     8    30    31   ar
     9    31    32   ar
    10    32    33   ar
    11    33    34   ar
    12    34    25    1
    13    25    26    2
    14    25    27   am
    15    27     1    1
    16     1     2   ar
    17     2     3   ar
    18     3     4   ar
    19     4     7    1
    20     7     8    1
    21     8     9    1
    22     9    10    1
    23    10    13    1
    24    13    14    1
    25    14    15    1
    26    15    16   ar
    27    16    17   ar
    28    17    18   ar
    29    18    19   ar
    30    19    21    1
    31    21    22    2
    32    21    23    1
    33    19    20   ar
    34    10    11    1
    35    11    12    1
    36     4     5   ar
    37     5     6   ar
    38    34    35   ar
    39    35    36    1
    40    35    37   ar
    41    37    38   ar
    42    42    43   ar
    43    43    44   ar
    44    44    39   ar
    45    38    29   ar
    46    37    32   ar
    47     6     1   ar
    48    12     7    1
    49    20    15   ar
    50    27    28    1
    51    23    24    1
@<TRIPOS>MOLECULE
*****
 46 51 0 0 0
SMALL
GASTEIGER

@<TRIPOS>ATOM
      1 C          12.9122   82.6619   25.5145 C.ar    1  UNL1        0.0702
      2 C          12.7752   82.9435   24.1508 C.ar    1  UNL1        0.0191
      3 C          13.4088   84.0554   23.5942 C.ar    1  UNL1        0.0356
      4 C          14.1745   84.9011   24.4151 C.ar    1  UNL1        0.1318
      5 N          14.2629   84.6256   25.7468 N.ar    1  UNL1       -0.2279
      6 C          13.6579   83.5463   26.3093 C.ar    1  UNL1        0.1149
      7 N          14.8429   86.0635   23.8797 N.pl3   1  UNL1       -0.2932
      8 C          15.8877   85.9266   22.8503 C.3     1  UNL1        0.0923
      9 C          16.8795   87.0942   22.9157 C.3     1  UNL1        0.0252
     10 C          16.1865   88.4784   22.8119 C.3     1  UNL1        0.0472
     11 C          14.7287   88.4613   23.3322 C.3     1  UNL1        0.0252
     12 C          14.5146   87.3958   24.4098 C.3     1  UNL1        0.0923
     13 C          16.2285   89.0244   21.3694 C.3     1  UNL1        0.2054
     14 O          14.9194   89.0886   20.7999 O.3     1  UNL1       -0.4755
     15 C          14.2114   88.0071   20.2495 C.ar    1  UNL1        0.1388
     16 C          12.8152   88.0842   20.2204 C.ar    1  UNL1        0.0369
     17 C          12.0589   87.0441   19.6788 C.ar    1  UNL1        0.0033
     18 C          12.6914   85.9112   19.1639 C.ar    1  UNL1        0.0066
     19 C          14.0927   85.8040   19.1894 C.ar    1  UNL1        0.0785
     20 C          14.8486   86.8649   19.7228 C.ar    1  UNL1        0.0433
     21 C          14.7518   84.5948   18.6387 C.2     1  UNL1        0.3381
     22 O          16.0065   84.4909   18.6853 O.2     1  UNL1       -0.2451
     23 O          14.0203   83.5647   18.0485 O.3     1  UNL1       -0.4771
     24 H          13.0245   83.6298   17.8809 H       1  UNL1        0.2954
     25 C          12.2491   80.2098   25.4966 C.2     1  UNL1        0.2839
     26 O          12.9464   79.9699   24.4751 O.2     1  UNL1       -0.2665
     27 N          12.2323   81.5266   26.0754 N.am    1  UNL1       -0.2766
     28 H          11.6504   81.6947   26.9247 H       1  UNL1        0.1553
     29 C           8.8253   75.8936   27.8976 C.ar    1  UNL1        0.0002
     30 C          10.1016   75.2726   27.9758 C.ar    1  UNL1        0.0031
     31 C          11.2533   75.9307   27.5099 C.ar    1  UNL1        0.0375
     32 C          11.1048   77.2047   26.9731 C.ar    1  UNL1        0.1452
     33 O          12.0436   77.9802   26.4881 O.2     1  UNL1       -0.4492
     34 C          11.4760   79.1055   26.0908 C.ar    1  UNL1        0.1946
     35 C          10.0935   79.0464   26.3068 C.ar    1  UNL1        0.0202
     36 C           9.0467   80.0586   25.9524 C.3     1  UNL1        0.0345
     37 C           9.8825   77.8142   26.8918 C.ar    1  UNL1        0.0337
     38 C           8.7186   77.1912   27.3419 C.ar    1  UNL1        0.0028
     39 C           5.3141   73.8552   29.3325 C.ar    1  UNL1       -0.0222
     40 C           5.6627   73.7961   27.9751 C.ar    1  UNL1       -0.0043
     41 C           6.8000   74.4610   27.5081 C.ar    1  UNL1       -0.0003
     42 C           7.6158   75.1889   28.3930 C.ar    1  UNL1       -0.0000
     43 C           7.2697   75.2335   29.7557 C.ar    1  UNL1       -0.0003
     44 C           6.1316   74.5690   30.2211 C.ar    1  UNL1       -0.0043
     45 C           3.6851   72.0298   28.8520 C.3     1  UNL1        0.0050
     46 C           4.1079   73.1116   29.8402 C.3     1  UNL1        0.0264
@<TRIPOS>BOND
     1    45    46    1
     2    46    39    1
     3    39    40   ar
     4    40    41   ar
     5    41    42   ar
     6    42    29    1
     7    29    30   ar
     8    30    31   ar
     9    31    32   ar
    10    32    33   ar
    11    33    34   ar
    12    34    25    1
    13    25    26    2
    14    25    27   am
    15    27     1    1
    16     1     2   ar
    17     2     3   ar
    18     3     4   ar
    19     4     7    1
    20     7     8    1
    21     8     9    1
    22     9    10    1
    23    10    13    1
    24    13    14    1
    25    14    15    1
    26    15    16   ar
    27    16    17   ar
    28    17    18   ar
    29    18    19   ar
    30    19    21    1
    31    21    22    2
    32    21    23    1
    33    19    20   ar
    34    10    11    1
    35    11    12    1
    36     4     5   ar
    37     5     6   ar
    38    34    35   ar
    39    35    36    1
    40    35    37   ar
    41    37    38   ar
    42    42    43   ar
    43    43    44   ar
    44    44    39   ar
    45    38    29   ar
    46    37    32   ar
    47     6     1   ar
    48    12     7    1
    49    20    15   ar
    50    27    28    1
    51    23    24    1
