@<TRIPOS>MOLECULE
*****
 42 46 0 0 0
SMALL
GASTEIGER

@<TRIPOS>ATOM
      1 C         -27.1989   51.0278   -7.6032 C.ar    1  UNL1        0.0888
      2 C         -25.8090   51.3150   -7.6804 C.ar    1  UNL1        0.0282
      3 C         -25.2149   51.3824   -8.9491 C.ar    1  UNL1        0.0997
      4 N         -23.9294   51.6428   -9.2462 N.ar    1  UNL1       -0.2137
      5 C         -23.9183   51.5682  -10.6061 C.ar    1  UNL1        0.1984
      6 N         -25.1258   51.2880  -11.1558 N.ar    1  UNL1       -0.3255
      7 C         -25.9297   51.1722  -10.0933 C.ar    1  UNL1        0.0755
      8 C         -27.2849   50.8788  -10.0395 C.ar    1  UNL1        0.0325
      9 C         -27.8999   50.8014   -8.8149 C.ar    1  UNL1        0.1401
     10 O         -29.2260   50.4513   -8.9597 O.3     1  UNL1       -0.4824
     11 C         -29.5648   50.2858  -10.3399 C.3     1  UNL1        0.1375
     12 C         -30.0510   48.8485  -10.5676 C.3     1  UNL1        0.0439
     13 C         -30.6658   51.2883  -10.7092 C.3     1  UNL1        0.0439
     14 C         -28.2441   50.5728  -11.1304 C.3     1  UNL1        0.0709
     15 H         -25.3700   51.1880  -12.1662 H       1  UNL1        0.1686
     16 N         -28.9485   50.0109   -6.0779 N.am    1  UNL1       -0.2802
     17 C         -27.8699   50.9344   -6.2905 C.2     1  UNL1        0.2525
     18 O         -27.4902   51.6838   -5.3496 O.2     1  UNL1       -0.2697
     19 H         -29.3354   49.4650   -6.8789 H       1  UNL1        0.1552
     20 C         -31.2259   51.4997   -4.9875 C.3     1  UNL1        0.0323
     21 C         -30.5321   50.4077   -4.2184 C.ar    1  UNL1       -0.0079
     22 C         -30.9620   50.1100   -2.9154 C.ar    1  UNL1        0.0008
     23 C         -30.3564   49.0826   -2.1740 C.ar    1  UNL1        0.0717
     24 C         -29.2738   48.3851   -2.7315 C.ar    1  UNL1        0.0110
     25 C         -28.8219   48.6834   -4.0203 C.ar    1  UNL1        0.0346
     26 S         -27.4343   47.7626   -4.6914 S.3     1  UNL1       -0.1402
     27 C         -29.4353   49.7056   -4.7649 C.ar    1  UNL1        0.0519
     28 H         -26.5052   48.6961   -4.1955 H       1  UNL1        0.1072
     29 C         -30.8010   48.7983   -0.7606 C.3     1  UNL1        0.4186
     30 F         -31.5499   47.6352   -0.7085 F       1  UNL1       -0.1659
     31 F         -31.5723   49.8514   -0.3062 F       1  UNL1       -0.1659
     32 F         -29.7086   48.6456    0.0758 F       1  UNL1       -0.1659
     33 N         -22.7484   51.8088  -11.3982 N.pl3   1  UNL1       -0.2816
     34 H         -22.8063   51.6244  -12.4249 H       1  UNL1        0.1551
     35 C         -21.5628   52.4245  -10.8713 C.ar    1  UNL1        0.0889
     36 C         -20.3713   51.6857  -10.7351 C.ar    1  UNL1        0.1543
     37 F         -20.3138   50.3869  -11.1239 F       1  UNL1       -0.2028
     38 C         -19.2171   52.2974  -10.2370 C.ar    1  UNL1        0.0310
     39 C         -19.2355   53.6474   -9.8821 C.ar    1  UNL1        0.0033
     40 C         -20.4063   54.3935  -10.0315 C.ar    1  UNL1        0.0128
     41 C         -21.5677   53.7916  -10.5302 C.ar    1  UNL1        0.0733
     42 CL        -23.0260   54.7631  -10.6834 Cl      1  UNL1       -0.0809
@<TRIPOS>BOND
     1    20    21    1
     2    21    22   ar
     3    22    23   ar
     4    23    29    1
     5    29    30    1
     6    29    31    1
     7    29    32    1
     8    23    24   ar
     9    24    25   ar
    10    25    26    1
    11    25    27   ar
    12    27    16    1
    13    16    17   am
    14    17    18    2
    15    17     1    1
    16     1     2   ar
    17     2     3   ar
    18     3     4   ar
    19     4     5   ar
    20     5    33    1
    21    33    35    1
    22    35    36   ar
    23    36    37    1
    24    36    38   ar
    25    38    39   ar
    26    39    40   ar
    27    40    41   ar
    28    41    42    1
    29     5     6   ar
    30     6     7   ar
    31     7     8   ar
    32     8     9   ar
    33     9    10    1
    34    10    11    1
    35    11    12    1
    36    11    13    1
    37    11    14    1
    38    27    21   ar
    39     9     1   ar
    40     7     3   ar
    41    14     8    1
    42    41    35   ar
    43    26    28    1
    44    16    19    1
    45    33    34    1
    46     6    15    1
@<TRIPOS>MOLECULE
*****
 42 46 0 0 0
SMALL
GASTEIGER

@<TRIPOS>ATOM
      1 C         -26.9994   50.6366   -7.2431 C.ar    1  UNL1        0.0888
      2 C         -25.6284   50.9802   -7.3928 C.ar    1  UNL1        0.0282
      3 C         -25.1178   51.1217   -8.6914 C.ar    1  UNL1        0.0997
      4 N         -23.8637   51.4434   -9.0552 N.ar    1  UNL1       -0.2137
      5 C         -23.9352   51.4243  -10.4153 C.ar    1  UNL1        0.1984
      6 N         -25.1640   51.1200  -10.9015 N.ar    1  UNL1       -0.3255
      7 C         -25.8949   50.9304   -9.7977 C.ar    1  UNL1        0.0755
      8 C         -27.2327   50.5830   -9.6737 C.ar    1  UNL1        0.0325
      9 C         -27.7664   50.4325   -8.4182 C.ar    1  UNL1        0.1401
     10 O         -29.0855   50.0375   -8.4964 O.3     1  UNL1       -0.4824
     11 C         -29.5041   49.9150   -9.8591 C.3     1  UNL1        0.1375
     12 C         -29.9514   48.4703  -10.1178 C.3     1  UNL1        0.0439
     13 C         -30.6615   50.8882  -10.1173 C.3     1  UNL1        0.0439
     14 C         -28.2468   50.2845  -10.7160 C.3     1  UNL1        0.0709
     15 H         -25.4673   51.0516  -11.8984 H       1  UNL1        0.1686
     16 N         -28.4868   49.3844   -5.6179 N.am    1  UNL1       -0.2802
     17 C         -27.5829   50.4644   -5.8970 C.2     1  UNL1        0.2525
     18 O         -27.2847   51.2848   -4.9865 O.2     1  UNL1       -0.2697
     19 H         -28.8184   48.7666   -6.3911 H       1  UNL1        0.1552
     20 C         -26.6909   47.7216   -4.0047 C.3     1  UNL1        0.0323
     21 C         -28.0054   48.2342   -3.4806 C.ar    1  UNL1       -0.0079
     22 C         -28.4109   47.8767   -2.1848 C.ar    1  UNL1        0.0008
     23 C         -29.6189   48.3535   -1.6505 C.ar    1  UNL1        0.0717
     24 C         -30.4496   49.1545   -2.4490 C.ar    1  UNL1        0.0110
     25 C         -30.0684   49.5028   -3.7481 C.ar    1  UNL1        0.0346
     26 S         -31.1641   50.5311   -4.7309 S.3     1  UNL1       -0.1402
     27 C         -28.8545   49.0327   -4.2781 C.ar    1  UNL1        0.0519
     28 H         -31.8215   49.4096   -5.2700 H       1  UNL1        0.1072
     29 C         -30.0623   47.9308   -0.2719 C.3     1  UNL1        0.4186
     30 F         -29.3956   48.6567    0.7000 F       1  UNL1       -0.1659
     31 F         -29.7880   46.5872   -0.0981 F       1  UNL1       -0.1659
     32 F         -31.4212   48.1382   -0.1088 F       1  UNL1       -0.1659
     33 N         -22.8268   51.7417  -11.2664 N.pl3   1  UNL1       -0.2816
     34 H         -22.9442   51.6023  -12.2952 H       1  UNL1        0.1551
     35 C         -21.6304   52.3742  -10.7858 C.ar    1  UNL1        0.0889
     36 C         -20.4267   51.6495  -10.6864 C.ar    1  UNL1        0.1543
     37 F         -20.3683   50.3486  -11.0679 F       1  UNL1       -0.2028
     38 C         -19.2626   52.2774  -10.2334 C.ar    1  UNL1        0.0310
     39 C         -19.2837   53.6297   -9.8875 C.ar    1  UNL1        0.0033
     40 C         -20.4673   54.3619  -10.0009 C.ar    1  UNL1        0.0128
     41 C         -21.6387   53.7437  -10.4543 C.ar    1  UNL1        0.0733
     42 CL        -23.1122   54.6980  -10.5629 Cl      1  UNL1       -0.0809
@<TRIPOS>BOND
     1    20    21    1
     2    21    22   ar
     3    22    23   ar
     4    23    29    1
     5    29    30    1
     6    29    31    1
     7    29    32    1
     8    23    24   ar
     9    24    25   ar
    10    25    26    1
    11    25    27   ar
    12    27    16    1
    13    16    17   am
    14    17    18    2
    15    17     1    1
    16     1     2   ar
    17     2     3   ar
    18     3     4   ar
    19     4     5   ar
    20     5    33    1
    21    33    35    1
    22    35    36   ar
    23    36    37    1
    24    36    38   ar
    25    38    39   ar
    26    39    40   ar
    27    40    41   ar
    28    41    42    1
    29     5     6   ar
    30     6     7   ar
    31     7     8   ar
    32     8     9   ar
    33     9    10    1
    34    10    11    1
    35    11    12    1
    36    11    13    1
    37    11    14    1
    38    27    21   ar
    39     9     1   ar
    40     7     3   ar
    41    14     8    1
    42    41    35   ar
    43    26    28    1
    44    16    19    1
    45    33    34    1
    46     6    15    1
@<TRIPOS>MOLECULE
*****
 42 46 0 0 0
SMALL
GASTEIGER

@<TRIPOS>ATOM
      1 C         -26.6339   49.6059   -7.6188 C.ar    1  UNL1        0.0888
      2 C         -25.2970   50.0663   -7.7630 C.ar    1  UNL1        0.0282
      3 C         -24.9279   50.6627   -8.9776 C.ar    1  UNL1        0.0997
      4 N         -23.7286   51.1660   -9.3196 N.ar    1  UNL1       -0.2137
      5 C         -23.9396   51.5945  -10.5952 C.ar    1  UNL1        0.1984
      6 N         -25.2020   51.3910  -11.0466 N.ar    1  UNL1       -0.3255
      7 C         -25.8089   50.8000  -10.0117 C.ar    1  UNL1        0.0755
      8 C         -27.1153   50.3466   -9.8959 C.ar    1  UNL1        0.0325
      9 C         -27.5116   49.7546   -8.7227 C.ar    1  UNL1        0.1401
     10 O         -28.8189   49.3248   -8.8141 O.3     1  UNL1       -0.4824
     11 C         -29.3719   49.6347  -10.0968 C.3     1  UNL1        0.1375
     12 C         -29.7988   48.3321  -10.7863 C.3     1  UNL1        0.0439
     13 C         -30.5794   50.5627   -9.9109 C.3     1  UNL1        0.0439
     14 C         -28.2219   50.3467  -10.8854 C.3     1  UNL1        0.0709
     15 H         -25.6045   51.6379  -11.9780 H       1  UNL1        0.1686
     16 N         -27.2991   49.7351   -5.1770 N.am    1  UNL1       -0.2802
     17 C         -27.0698   48.9603   -6.3637 C.2     1  UNL1        0.2525
     18 O         -27.2341   47.7099   -6.3388 O.2     1  UNL1       -0.2697
     19 H         -27.0642   50.7520   -5.1626 H       1  UNL1        0.1552
     20 C         -25.7352   48.6774   -2.9347 C.3     1  UNL1        0.0323
     21 C         -27.2403   48.6752   -2.9419 C.ar    1  UNL1       -0.0079
     22 C         -27.9282   48.1140   -1.8542 C.ar    1  UNL1        0.0008
     23 C         -29.3318   48.1137   -1.8120 C.ar    1  UNL1        0.0717
     24 C         -30.0477   48.6365   -2.8999 C.ar    1  UNL1        0.0110
     25 C         -29.3766   49.1810   -3.9987 C.ar    1  UNL1        0.0346
     26 S         -30.3360   49.8392   -5.3663 S.3     1  UNL1       -0.1402
     27 C         -27.9716   49.1892   -4.0352 C.ar    1  UNL1        0.0519
     28 H         -30.3354   48.6002   -6.0338 H       1  UNL1        0.1072
     29 C         -30.0598   47.4728   -0.6565 C.3     1  UNL1        0.4186
     30 F         -31.4296   47.5376   -0.8453 F       1  UNL1       -0.1659
     31 F         -29.7341   48.1373    0.5109 F       1  UNL1       -0.1659
     32 F         -29.7044   46.1408   -0.5312 F       1  UNL1       -0.1659
     33 N         -22.9354   52.2460  -11.3831 N.pl3   1  UNL1       -0.2816
     34 H         -23.0368   52.2216  -12.4226 H       1  UNL1        0.1551
     35 C         -21.8906   53.0464  -10.8082 C.ar    1  UNL1        0.0889
     36 C         -22.1449   54.3694  -10.3971 C.ar    1  UNL1        0.1543
     37 F         -23.3872   54.9031  -10.5114 F       1  UNL1       -0.2028
     38 C         -21.1264   55.1360   -9.8231 C.ar    1  UNL1        0.0310
     39 C         -19.8539   54.5908   -9.6435 C.ar    1  UNL1        0.0033
     40 C         -19.5966   53.2739  -10.0300 C.ar    1  UNL1        0.0128
     41 C         -20.6092   52.4967  -10.6049 C.ar    1  UNL1        0.0733
     42 CL        -20.2368   50.8492  -11.0957 Cl      1  UNL1       -0.0809
@<TRIPOS>BOND
     1    20    21    1
     2    21    22   ar
     3    22    23   ar
     4    23    29    1
     5    29    30    1
     6    29    31    1
     7    29    32    1
     8    23    24   ar
     9    24    25   ar
    10    25    26    1
    11    25    27   ar
    12    27    16    1
    13    16    17   am
    14    17    18    2
    15    17     1    1
    16     1     2   ar
    17     2     3   ar
    18     3     4   ar
    19     4     5   ar
    20     5    33    1
    21    33    35    1
    22    35    36   ar
    23    36    37    1
    24    36    38   ar
    25    38    39   ar
    26    39    40   ar
    27    40    41   ar
    28    41    42    1
    29     5     6   ar
    30     6     7   ar
    31     7     8   ar
    32     8     9   ar
    33     9    10    1
    34    10    11    1
    35    11    12    1
    36    11    13    1
    37    11    14    1
    38    27    21   ar
    39     9     1   ar
    40     7     3   ar
    41    14     8    1
    42    41    35   ar
    43    26    28    1
    44    16    19    1
    45    33    34    1
    46     6    15    1
@<TRIPOS>MOLECULE
*****
 42 46 0 0 0
SMALL
GASTEIGER

@<TRIPOS>ATOM
      1 C         -26.7109   49.7165   -7.6173 C.ar    1  UNL1        0.0888
      2 C         -25.3703   50.1687   -7.7534 C.ar    1  UNL1        0.0282
      3 C         -24.9863   50.7495   -8.9709 C.ar    1  UNL1        0.0997
      4 N         -23.7812   51.2431   -9.3066 N.ar    1  UNL1       -0.2137
      5 C         -23.9775   51.6581  -10.5890 C.ar    1  UNL1        0.1984
      6 N         -25.2364   51.4557  -11.0505 N.ar    1  UNL1       -0.3255
      7 C         -25.8563   50.8794  -10.0151 C.ar    1  UNL1        0.0755
      8 C         -27.1661   50.4337   -9.9072 C.ar    1  UNL1        0.0325
      9 C         -27.5768   49.8569   -8.7314 C.ar    1  UNL1        0.1401
     10 O         -28.8853   49.4324   -8.8309 O.3     1  UNL1       -0.4824
     11 C         -29.4241   49.7304  -10.1224 C.3     1  UNL1        0.1375
     12 C         -29.8507   48.4223  -10.8014 C.3     1  UNL1        0.0439
     13 C         -30.6287   50.6664   -9.9590 C.3     1  UNL1        0.0439
     14 C         -28.2628   50.4280  -10.9076 C.3     1  UNL1        0.0709
     15 H         -25.6284   51.6940  -11.9887 H       1  UNL1        0.1686
     16 N         -27.5879   49.8874   -5.2459 N.am    1  UNL1       -0.2802
     17 C         -27.1622   49.0872   -6.3594 C.2     1  UNL1        0.2525
     18 O         -27.1648   47.8293   -6.2660 O.2     1  UNL1       -0.2697
     19 H         -27.4887   50.9259   -5.2798 H       1  UNL1        0.1552
     20 C         -30.5164   49.7627   -5.2479 C.3     1  UNL1        0.0323
     21 C         -29.6869   49.2460   -4.1034 C.ar    1  UNL1       -0.0079
     22 C         -30.3332   48.7166   -2.9750 C.ar    1  UNL1        0.0008
     23 C         -29.5949   48.2028   -1.8966 C.ar    1  UNL1        0.0717
     24 C         -28.1938   48.2716   -1.9339 C.ar    1  UNL1        0.0110
     25 C         -27.5365   48.8137   -3.0423 C.ar    1  UNL1        0.0346
     26 S         -25.7422   48.8787   -3.0446 S.3     1  UNL1       -0.1402
     27 C         -28.2766   49.3189   -4.1250 C.ar    1  UNL1        0.0519
     28 H         -25.7339   50.1614   -2.4657 H       1  UNL1        0.1072
     29 C         -30.3007   47.6726   -0.6731 C.3     1  UNL1        0.4186
     30 F         -31.5712   48.2123   -0.5694 F       1  UNL1       -0.1659
     31 F         -29.5743   48.0110    0.4531 F       1  UNL1       -0.1659
     32 F         -30.4211   46.2950   -0.7349 F       1  UNL1       -0.1659
     33 N         -22.9624   52.2959  -11.3741 N.pl3   1  UNL1       -0.2816
     34 H         -23.0612   52.2727  -12.4140 H       1  UNL1        0.1551
     35 C         -21.9083   53.0820  -10.7965 C.ar    1  UNL1        0.0889
     36 C         -22.1357   54.4203  -10.4207 C.ar    1  UNL1        0.1543
     37 F         -23.3610   54.9833  -10.5722 F       1  UNL1       -0.2028
     38 C         -21.1088   55.1733   -9.8436 C.ar    1  UNL1        0.0310
     39 C         -19.8549   54.5996   -9.6260 C.ar    1  UNL1        0.0033
     40 C         -19.6249   53.2679   -9.9772 C.ar    1  UNL1        0.0128
     41 C         -20.6461   52.5042  -10.5549 C.ar    1  UNL1        0.0733
     42 CL        -20.3077   50.8366  -11.0005 Cl      1  UNL1       -0.0809
@<TRIPOS>BOND
     1    20    21    1
     2    21    22   ar
     3    22    23   ar
     4    23    29    1
     5    29    30    1
     6    29    31    1
     7    29    32    1
     8    23    24   ar
     9    24    25   ar
    10    25    26    1
    11    25    27   ar
    12    27    16    1
    13    16    17   am
    14    17    18    2
    15    17     1    1
    16     1     2   ar
    17     2     3   ar
    18     3     4   ar
    19     4     5   ar
    20     5    33    1
    21    33    35    1
    22    35    36   ar
    23    36    37    1
    24    36    38   ar
    25    38    39   ar
    26    39    40   ar
    27    40    41   ar
    28    41    42    1
    29     5     6   ar
    30     6     7   ar
    31     7     8   ar
    32     8     9   ar
    33     9    10    1
    34    10    11    1
    35    11    12    1
    36    11    13    1
    37    11    14    1
    38    27    21   ar
    39     9     1   ar
    40     7     3   ar
    41    14     8    1
    42    41    35   ar
    43    26    28    1
    44    16    19    1
    45    33    34    1
    46     6    15    1
@<TRIPOS>MOLECULE
*****
 42 46 0 0 0
SMALL
GASTEIGER

@<TRIPOS>ATOM
      1 C         -26.4862   50.2158   -7.7279 C.ar    1  UNL1        0.0888
      2 C         -25.1124   50.4839   -7.4809 C.ar    1  UNL1        0.0282
      3 C         -24.3714   51.1273   -8.4829 C.ar    1  UNL1        0.0997
      4 N         -23.0729   51.4762   -8.4545 N.ar    1  UNL1       -0.2137
      5 C         -22.8920   52.0460   -9.6784 C.ar    1  UNL1        0.1984
      6 N         -24.0088   52.0743  -10.4471 N.ar    1  UNL1       -0.3255
      7 C         -24.9302   51.4878   -9.6754 C.ar    1  UNL1        0.0755
      8 C         -26.2665   51.2246   -9.9413 C.ar    1  UNL1        0.0325
      9 C         -27.0223   50.5933   -8.9852 C.ar    1  UNL1        0.1401
     10 O         -28.3028   50.3724   -9.4475 O.3     1  UNL1       -0.4824
     11 C         -28.4621   50.8768  -10.7769 C.3     1  UNL1        0.1375
     12 C         -28.8486   49.7205  -11.7085 C.3     1  UNL1        0.0439
     13 C         -29.5556   51.9528  -10.7769 C.3     1  UNL1        0.0439
     14 C         -27.0696   51.4793  -11.1636 C.3     1  UNL1        0.0709
     15 H         -24.1226   52.4622  -11.4100 H       1  UNL1        0.1686
     16 N         -26.7599   48.4684   -5.9131 N.am    1  UNL1       -0.2802
     17 C         -27.3076   49.5300   -6.7095 C.2     1  UNL1        0.2525
     18 O         -28.5080   49.8818   -6.5470 O.2     1  UNL1       -0.2697
     19 H         -25.8030   48.1033   -6.1146 H       1  UNL1        0.1552
     20 C         -26.1757   49.6311   -3.2865 C.3     1  UNL1        0.0323
     21 C         -27.1694   48.5163   -3.4733 C.ar    1  UNL1       -0.0079
     22 C         -27.8177   47.9827   -2.3480 C.ar    1  UNL1        0.0008
     23 C         -28.7687   46.9583   -2.4826 C.ar    1  UNL1        0.0717
     24 C         -29.0292   46.4316   -3.7569 C.ar    1  UNL1        0.0110
     25 C         -28.3771   46.9393   -4.8845 C.ar    1  UNL1        0.0346
     26 S         -28.7447   46.2340   -6.4942 S.3     1  UNL1       -0.1402
     27 C         -27.4325   47.9712   -4.7493 C.ar    1  UNL1        0.0519
     28 H         -27.7107   45.2866   -6.3754 H       1  UNL1        0.1072
     29 C         -29.4297   46.3664   -1.2624 C.3     1  UNL1        0.4186
     30 F         -29.6964   47.3498   -0.3254 F       1  UNL1       -0.1659
     31 F         -28.5875   45.4253   -0.7005 F       1  UNL1       -0.1659
     32 F         -30.6257   45.7566   -1.5999 F       1  UNL1       -0.1659
     33 N         -21.6468   52.6106  -10.1076 N.pl3   1  UNL1       -0.2816
     34 H         -21.6756   53.3768  -10.8173 H       1  UNL1        0.1551
     35 C         -20.3882   52.2744   -9.5028 C.ar    1  UNL1        0.0889
     36 C         -20.1634   52.5172   -8.1337 C.ar    1  UNL1        0.1543
     37 F         -21.1399   53.0477   -7.3552 F       1  UNL1       -0.2028
     38 C         -18.9413   52.1714   -7.5492 C.ar    1  UNL1        0.0310
     39 C         -17.9405   51.5731   -8.3168 C.ar    1  UNL1        0.0033
     40 C         -18.1606   51.3106   -9.6705 C.ar    1  UNL1        0.0128
     41 C         -19.3808   51.6516  -10.2660 C.ar    1  UNL1        0.0733
     42 CL        -19.6086   51.3215  -11.9786 Cl      1  UNL1       -0.0809
@<TRIPOS>BOND
     1    20    21    1
     2    21    22   ar
     3    22    23   ar
     4    23    29    1
     5    29    30    1
     6    29    31    1
     7    29    32    1
     8    23    24   ar
     9    24    25   ar
    10    25    26    1
    11    25    27   ar
    12    27    16    1
    13    16    17   am
    14    17    18    2
    15    17     1    1
    16     1     2   ar
    17     2     3   ar
    18     3     4   ar
    19     4     5   ar
    20     5    33    1
    21    33    35    1
    22    35    36   ar
    23    36    37    1
    24    36    38   ar
    25    38    39   ar
    26    39    40   ar
    27    40    41   ar
    28    41    42    1
    29     5     6   ar
    30     6     7   ar
    31     7     8   ar
    32     8     9   ar
    33     9    10    1
    34    10    11    1
    35    11    12    1
    36    11    13    1
    37    11    14    1
    38    27    21   ar
    39     9     1   ar
    40     7     3   ar
    41    14     8    1
    42    41    35   ar
    43    26    28    1
    44    16    19    1
    45    33    34    1
    46     6    15    1
