@<TRIPOS>MOLECULE
*****
 52 57 0 0 0
SMALL
GASTEIGER

@<TRIPOS>ATOM
      1 C          61.5810   86.7520   13.7132 C.ar    1  UNL1        0.0504
      2 C          60.2671   86.7687   14.2011 C.ar    1  UNL1        0.0148
      3 C          59.3799   85.7380   13.8810 C.ar    1  UNL1        0.0080
      4 C          59.7911   84.6664   13.0683 C.ar    1  UNL1        0.0808
      5 C          61.1089   84.6577   12.5691 C.ar    1  UNL1        0.1457
      6 F          61.5526   83.6378   11.7910 F       1  UNL1       -0.2040
      7 C          61.9933   85.6914   12.8924 C.ar    1  UNL1        0.0443
      8 C          62.5309   88.3090   15.4390 C.3     1  UNL1        0.1507
      9 C          62.9999   89.7783   15.5173 C.3     1  UNL1        0.1194
     10 N          64.0822   90.0543   14.5642 N.pl3   1  UNL1       -0.2893
     11 C          63.8922   89.6350   13.1736 C.3     1  UNL1        0.1136
     12 C          63.5800   88.1444   13.1194 C.3     1  UNL1        0.1126
     13 N          62.4932   87.8145   14.0503 N.pl3   1  UNL1       -0.2997
     14 C          65.1894   90.9097   14.9127 C.ar    1  UNL1        0.1318
     15 C          65.0541   91.9213   15.8771 C.ar    1  UNL1        0.0343
     16 C          66.1502   92.7265   16.1897 C.ar    1  UNL1        0.0083
     17 C          67.3845   92.5177   15.5566 C.ar    1  UNL1        0.0906
     18 C          67.4685   91.5192   14.5740 C.ar    1  UNL1        0.1041
     19 N          66.3872   90.7481   14.2854 N.ar    1  UNL1       -0.2292
     20 C          68.5616   93.4129   15.8484 C.3     1  UNL1        0.4200
     21 F          68.1356   94.6908   16.1670 F       1  UNL1       -0.1658
     22 F          69.2733   92.8960   16.9148 F       1  UNL1       -0.1658
     23 F          69.3959   93.4963   14.7471 F       1  UNL1       -0.1658
     24 C          62.9128   86.9569   17.6921 C.3     1  UNL1        0.0741
     25 C          63.3458   87.3756   16.3157 C.2     1  UNL1        0.1706
     26 O          64.4214   86.9700   15.9015 O.2     1  UNL1       -0.2943
     27 C          58.8423   83.5800   12.7239 C.2     1  UNL1        0.2483
     28 O          57.6009   83.7940   12.7926 O.2     1  UNL1       -0.2701
     29 N          59.3198   82.2898   12.3053 N.am    1  UNL1       -0.2945
     30 H          60.3303   82.1912   12.0597 H       1  UNL1        0.1501
     31 C          58.4221   81.1354   12.1656 C.3     1  UNL1        0.1535
     32 C          58.1659   80.8214   10.7078 C.2     1  UNL1        0.2443
     33 O          57.2948   79.9650   10.3946 O.2     1  UNL1       -0.2730
     34 N          58.8946   81.5281    9.6887 N.am    1  UNL1       -0.2825
     35 H          59.7573   82.0413    9.9802 H       1  UNL1        0.1549
     36 C          58.5595   81.5378    8.2886 C.ar    1  UNL1        0.0535
     37 C          59.1358   80.6354    7.3766 C.ar    1  UNL1        0.0353
     38 C          58.7404   80.6603    6.0370 C.ar    1  UNL1        0.1002
     39 N          57.7975   81.5451    5.6193 N.ar    1  UNL1       -0.2422
     40 C          57.2127   82.4196    6.4793 C.ar    1  UNL1        0.1002
     41 C          57.5766   82.4255    7.8278 C.ar    1  UNL1        0.0353
     42 C          59.0190   79.9139   12.8884 C.3     1  UNL1        0.0569
     43 C          60.5147   79.8685   12.7470 C.ar    1  UNL1       -0.0017
     44 C          61.2285   79.1658   11.7806 C.ar    1  UNL1        0.0681
     45 N          62.5474   79.4526   11.8652 N.ar    1  UNL1       -0.3523
     46 C          62.6714   80.3384   12.8685 C.ar    1  UNL1        0.0563
     47 C          63.8406   80.9578   13.3078 C.ar    1  UNL1        0.0170
     48 C          63.7379   81.8866   14.3593 C.ar    1  UNL1        0.0015
     49 C          62.4832   82.1727   14.9409 C.ar    1  UNL1        0.0001
     50 C          61.3196   81.5336   14.4761 C.ar    1  UNL1        0.0012
     51 C          61.4523   80.6181   13.4316 C.ar    1  UNL1        0.0131
     52 H          63.3084   79.0793   11.2553 H       1  UNL1        0.1660
@<TRIPOS>BOND
     1    24    25    1
     2    25    26    2
     3    25     8    1
     4     8     9    1
     5     9    10    1
     6    10    14    1
     7    14    15   ar
     8    15    16   ar
     9    16    17   ar
    10    17    20    1
    11    20    21    1
    12    20    22    1
    13    20    23    1
    14    17    18   ar
    15    18    19   ar
    16    10    11    1
    17    11    12    1
    18    12    13    1
    19    13     1    1
    20     1     2   ar
    21     2     3   ar
    22     3     4   ar
    23     4    27    1
    24    27    28    2
    25    27    29   am
    26    29    31    1
    27    31    42    1
    28    42    43    1
    29    43    44   ar
    30    44    45   ar
    31    45    46   ar
    32    46    47   ar
    33    47    48   ar
    34    48    49   ar
    35    49    50   ar
    36    50    51   ar
    37    31    32    1
    38    32    33    2
    39    32    34   am
    40    34    36    1
    41    36    37   ar
    42    37    38   ar
    43    38    39   ar
    44    39    40   ar
    45    40    41   ar
    46     4     5   ar
    47     5     6    1
    48     5     7   ar
    49    13     8    1
    50     7     1   ar
    51    19    14   ar
    52    51    43   ar
    53    41    36   ar
    54    51    46   ar
    55    29    30    1
    56    45    52    1
    57    34    35    1
@<TRIPOS>MOLECULE
*****
 52 57 0 0 0
SMALL
GASTEIGER

@<TRIPOS>ATOM
      1 C          61.5534   88.8859   13.2055 C.ar    1  UNL1        0.0504
      2 C          61.6866   88.0856   12.0626 C.ar    1  UNL1        0.0148
      3 C          60.6064   87.3323   11.5960 C.ar    1  UNL1        0.0080
      4 C          59.3683   87.3677   12.2622 C.ar    1  UNL1        0.0808
      5 C          59.2401   88.1638   13.4178 C.ar    1  UNL1        0.1457
      6 F          58.0607   88.2376   14.0859 F       1  UNL1       -0.2040
      7 C          60.3239   88.9161   13.8809 C.ar    1  UNL1        0.0443
      8 C          62.9366   89.7187   15.1286 C.3     1  UNL1        0.1507
      9 C          63.6630   91.0197   15.5343 C.3     1  UNL1        0.1194
     10 N          64.6723   91.4101   14.5419 N.pl3   1  UNL1       -0.2893
     11 C          64.2684   91.4489   13.1345 C.3     1  UNL1        0.1136
     12 C          63.6942   90.0987   12.7223 C.3     1  UNL1        0.1126
     13 N          62.6687   89.6645   13.6795 N.pl3   1  UNL1       -0.2997
     14 C          65.9431   91.9624   14.9411 C.ar    1  UNL1        0.1318
     15 C          66.1069   92.5895   16.1866 C.ar    1  UNL1        0.0343
     16 C          67.3537   93.1086   16.5383 C.ar    1  UNL1        0.0083
     17 C          68.4416   92.9914   15.6603 C.ar    1  UNL1        0.0906
     18 C          68.2275   92.3885   14.4112 C.ar    1  UNL1        0.1041
     19 N          67.0040   91.8914   14.0902 N.ar    1  UNL1       -0.2292
     20 C          69.7798   93.5923   16.0068 C.3     1  UNL1        0.4200
     21 F          70.4017   92.8578   17.0017 F       1  UNL1       -0.1658
     22 F          70.5822   93.5965   14.8812 F       1  UNL1       -0.1658
     23 F          69.6288   94.8920   16.4582 F       1  UNL1       -0.1658
     24 C          63.1874   87.6154   16.7299 C.3     1  UNL1        0.0741
     25 C          63.6605   88.4648   15.5844 C.2     1  UNL1        0.1706
     26 O          64.6956   88.1455   15.0191 O.2     1  UNL1       -0.2943
     27 C          58.2280   86.5587   11.7680 C.2     1  UNL1        0.2483
     28 O          57.1078   86.6482   12.3412 O.2     1  UNL1       -0.2701
     29 N          58.3816   85.6807   10.6395 N.am    1  UNL1       -0.2945
     30 H          59.2444   85.7688   10.0570 H       1  UNL1        0.1501
     31 C          57.3443   84.7124   10.2598 C.3     1  UNL1        0.1535
     32 C          57.7385   83.9586    9.0085 C.2     1  UNL1        0.2443
     33 O          58.2664   84.5767    8.0442 O.2     1  UNL1       -0.2730
     34 N          57.5393   82.5356    8.9422 N.am    1  UNL1       -0.2825
     35 H          56.8943   82.1054    9.6432 H       1  UNL1        0.1549
     36 C          58.1157   81.6652    7.9508 C.ar    1  UNL1        0.0535
     37 C          57.3772   81.1955    6.8497 C.ar    1  UNL1        0.0353
     38 C          58.0000   80.3891    5.8939 C.ar    1  UNL1        0.1002
     39 N          59.3140   80.0679    6.0224 N.ar    1  UNL1       -0.2422
     40 C          60.0569   80.5179    7.0674 C.ar    1  UNL1        0.1002
     41 C          59.4740   81.3296    8.0434 C.ar    1  UNL1        0.0353
     42 C          57.0833   83.7374   11.4226 C.3     1  UNL1        0.0569
     43 C          58.3509   83.0659   11.8716 C.ar    1  UNL1       -0.0017
     44 C          59.3914   83.6617   12.5784 C.ar    1  UNL1        0.0681
     45 N          60.3131   82.7374   12.9318 N.ar    1  UNL1       -0.3523
     46 C          59.8585   81.5618   12.4648 C.ar    1  UNL1        0.0563
     47 C          60.4489   80.3081   12.6169 C.ar    1  UNL1        0.0170
     48 C          59.7802   79.1958   12.0740 C.ar    1  UNL1        0.0015
     49 C          58.5503   79.3598   11.3997 C.ar    1  UNL1        0.0001
     50 C          57.9771   80.6370   11.2626 C.ar    1  UNL1        0.0012
     51 C          58.6627   81.7209   11.8120 C.ar    1  UNL1        0.0131
     52 H          61.1865   82.9035   13.4796 H       1  UNL1        0.1660
@<TRIPOS>BOND
     1    24    25    1
     2    25    26    2
     3    25     8    1
     4     8     9    1
     5     9    10    1
     6    10    14    1
     7    14    15   ar
     8    15    16   ar
     9    16    17   ar
    10    17    20    1
    11    20    21    1
    12    20    22    1
    13    20    23    1
    14    17    18   ar
    15    18    19   ar
    16    10    11    1
    17    11    12    1
    18    12    13    1
    19    13     1    1
    20     1     2   ar
    21     2     3   ar
    22     3     4   ar
    23     4    27    1
    24    27    28    2
    25    27    29   am
    26    29    31    1
    27    31    42    1
    28    42    43    1
    29    43    44   ar
    30    44    45   ar
    31    45    46   ar
    32    46    47   ar
    33    47    48   ar
    34    48    49   ar
    35    49    50   ar
    36    50    51   ar
    37    31    32    1
    38    32    33    2
    39    32    34   am
    40    34    36    1
    41    36    37   ar
    42    37    38   ar
    43    38    39   ar
    44    39    40   ar
    45    40    41   ar
    46     4     5   ar
    47     5     6    1
    48     5     7   ar
    49    13     8    1
    50     7     1   ar
    51    19    14   ar
    52    51    43   ar
    53    41    36   ar
    54    51    46   ar
    55    29    30    1
    56    45    52    1
    57    34    35    1
@<TRIPOS>MOLECULE
*****
 52 57 0 0 0
SMALL
GASTEIGER

@<TRIPOS>ATOM
      1 C          62.1916   88.6551   11.4315 C.ar    1  UNL1        0.0504
      2 C          60.8681   88.5025   11.8670 C.ar    1  UNL1        0.0148
      3 C          59.9813   87.6834   11.1636 C.ar    1  UNL1        0.0080
      4 C          60.4025   86.9967   10.0108 C.ar    1  UNL1        0.0808
      5 C          61.7302   87.1610    9.5680 C.ar    1  UNL1        0.1457
      6 F          62.1835   86.5084    8.4674 F       1  UNL1       -0.2040
      7 C          62.6141   87.9816   10.2754 C.ar    1  UNL1        0.0443
      8 C          63.1557   89.3839   13.6325 C.3     1  UNL1        0.1507
      9 C          63.6192   90.6984   14.2975 C.3     1  UNL1        0.1194
     10 N          64.6885   91.3479   13.5290 N.pl3   1  UNL1       -0.2893
     11 C          64.4835   91.5289   12.0900 C.3     1  UNL1        0.1136
     12 C          64.1771   90.1865   11.4369 C.3     1  UNL1        0.1126
     13 N          63.1032   89.4968   12.1632 N.pl3   1  UNL1       -0.2997
     14 C          65.7962   91.9974   14.1850 C.ar    1  UNL1        0.1318
     15 C          66.9726   92.3150   13.4874 C.ar    1  UNL1        0.0343
     16 C          68.0215   92.9470   14.1567 C.ar    1  UNL1        0.0083
     17 C          67.8967   93.2778   15.5143 C.ar    1  UNL1        0.0906
     18 C          66.7185   92.9122   16.1833 C.ar    1  UNL1        0.1041
     19 N          65.7109   92.2961   15.5110 N.ar    1  UNL1       -0.2292
     20 C          69.0411   93.9145   16.2607 C.3     1  UNL1        0.4200
     21 F          69.9389   94.4903   15.3785 F       1  UNL1       -0.1658
     22 F          68.5469   94.8925   17.1034 F       1  UNL1       -0.1658
     23 F          69.7181   92.9704   17.0132 F       1  UNL1       -0.1658
     24 C          63.5562   86.7640   13.7956 C.3     1  UNL1        0.0741
     25 C          63.9853   88.1819   14.0459 C.2     1  UNL1        0.1706
     26 O          65.0359   88.3696   14.6409 O.2     1  UNL1       -0.2943
     27 C          59.4543   86.1363    9.2627 C.2     1  UNL1        0.2483
     28 O          58.3900   86.6358    8.8051 O.2     1  UNL1       -0.2701
     29 N          59.7371   84.7431    9.0459 N.am    1  UNL1       -0.2945
     30 H          60.7011   84.3958    9.2490 H       1  UNL1        0.1501
     31 C          58.7317   83.8202    8.5026 C.3     1  UNL1        0.1535
     32 C          59.1857   82.3832    8.6380 C.2     1  UNL1        0.2443
     33 O          58.9218   81.5537    7.7255 O.2     1  UNL1       -0.2730
     34 N          59.9454   81.9825    9.7918 N.am    1  UNL1       -0.2825
     35 H          59.9368   82.6195   10.6204 H       1  UNL1        0.1549
     36 C          60.6717   80.7456    9.9149 C.ar    1  UNL1        0.0535
     37 C          61.9092   80.5399    9.2787 C.ar    1  UNL1        0.0353
     38 C          62.5919   79.3360    9.4690 C.ar    1  UNL1        0.1002
     39 N          62.0679   78.3729   10.2717 N.ar    1  UNL1       -0.2422
     40 C          60.8815   78.5480   10.9106 C.ar    1  UNL1        0.1002
     41 C          60.1683   79.7382   10.7504 C.ar    1  UNL1        0.0353
     42 C          57.3825   84.0337    9.2132 C.3     1  UNL1        0.0569
     43 C          57.5031   83.8216   10.6963 C.ar    1  UNL1       -0.0017
     44 C          57.9413   82.6615   11.3283 C.ar    1  UNL1        0.0681
     45 N          58.0509   82.8617   12.6612 N.ar    1  UNL1       -0.3523
     46 C          57.6970   84.1406   12.8752 C.ar    1  UNL1        0.0563
     47 C          57.6887   84.8217   14.0916 C.ar    1  UNL1        0.0170
     48 C          57.3138   86.1776   14.0838 C.ar    1  UNL1        0.0015
     49 C          56.9605   86.8150   12.8741 C.ar    1  UNL1        0.0001
     50 C          56.9795   86.1031   11.6612 C.ar    1  UNL1        0.0012
     51 C          57.3563   84.7603   11.6999 C.ar    1  UNL1        0.0131
     52 H          58.3714   82.1681   13.3730 H       1  UNL1        0.1660
@<TRIPOS>BOND
     1    24    25    1
     2    25    26    2
     3    25     8    1
     4     8     9    1
     5     9    10    1
     6    10    14    1
     7    14    15   ar
     8    15    16   ar
     9    16    17   ar
    10    17    20    1
    11    20    21    1
    12    20    22    1
    13    20    23    1
    14    17    18   ar
    15    18    19   ar
    16    10    11    1
    17    11    12    1
    18    12    13    1
    19    13     1    1
    20     1     2   ar
    21     2     3   ar
    22     3     4   ar
    23     4    27    1
    24    27    28    2
    25    27    29   am
    26    29    31    1
    27    31    42    1
    28    42    43    1
    29    43    44   ar
    30    44    45   ar
    31    45    46   ar
    32    46    47   ar
    33    47    48   ar
    34    48    49   ar
    35    49    50   ar
    36    50    51   ar
    37    31    32    1
    38    32    33    2
    39    32    34   am
    40    34    36    1
    41    36    37   ar
    42    37    38   ar
    43    38    39   ar
    44    39    40   ar
    45    40    41   ar
    46     4     5   ar
    47     5     6    1
    48     5     7   ar
    49    13     8    1
    50     7     1   ar
    51    19    14   ar
    52    51    43   ar
    53    41    36   ar
    54    51    46   ar
    55    29    30    1
    56    45    52    1
    57    34    35    1
