@<TRIPOS>MOLECULE
*****
 39 43 0 0 0
SMALL
GASTEIGER

@<TRIPOS>ATOM
      1 C         -23.5855   52.2280  -11.7212 C.3     1  UNL1        0.1333
      2 N         -23.6020   51.8140  -10.3184 N.ar    1  UNL1       -0.2950
      3 C         -22.5578   51.7440   -9.4490 C.ar    1  UNL1        0.2019
      4 N         -22.9126   51.3320   -8.2033 N.ar    1  UNL1       -0.2134
      5 C         -24.2404   51.1504   -8.3142 C.ar    1  UNL1        0.1033
      6 C         -25.1153   50.7175   -7.3209 C.ar    1  UNL1        0.0284
      7 C         -26.4863   50.5916   -7.6416 C.ar    1  UNL1        0.0922
      8 C         -26.9346   50.9562   -8.9417 C.ar    1  UNL1        0.1782
      9 C         -26.0129   51.3564   -9.9312 C.ar    1  UNL1        0.1897
     10 C         -24.6645   51.4483   -9.5773 C.ar    1  UNL1        0.1173
     11 O         -26.4742   51.6524  -11.2172 O.3     1  UNL1       -0.4669
     12 C         -27.7960   51.2928  -11.6229 C.3     1  UNL1        0.2527
     13 C         -28.7828   51.5366  -10.4758 C.3     1  UNL1        0.2526
     14 O         -28.2964   50.9424   -9.2703 O.3     1  UNL1       -0.4682
     15 C         -27.4303   50.0963   -6.6122 C.2     1  UNL1        0.2526
     16 O         -27.4051   50.6064   -5.4600 O.2     1  UNL1       -0.2697
     17 N         -28.3912   49.0656   -6.8935 N.am    1  UNL1       -0.2803
     18 H         -29.2898   49.0832   -6.3601 H       1  UNL1        0.1552
     19 C         -28.1855   48.0040   -7.8422 C.ar    1  UNL1        0.0506
     20 C         -26.9384   47.3701   -7.9695 C.ar    1  UNL1        0.0170
     21 C         -26.7544   46.3644   -8.9189 C.ar    1  UNL1        0.0309
     22 C         -27.8127   45.9687   -9.7404 C.ar    1  UNL1        0.1441
     23 F         -27.6023   44.9991  -10.6668 F       1  UNL1       -0.2042
     24 C         -29.0789   46.5679   -9.6058 C.ar    1  UNL1        0.1000
     25 C         -29.2537   47.5869   -8.6500 C.ar    1  UNL1        0.0208
     26 C         -30.2098   46.1425  -10.5113 C.3     1  UNL1        0.4207
     27 F         -31.2726   47.0135  -10.3558 F       1  UNL1       -0.1658
     28 F         -30.6428   44.8597  -10.2227 F       1  UNL1       -0.1658
     29 F         -29.7893   46.1733  -11.8288 F       1  UNL1       -0.1658
     30 N         -21.2132   52.1170   -9.7861 N.pl3   1  UNL1       -0.2814
     31 H         -20.7545   51.6539  -10.6015 H       1  UNL1        0.1551
     32 C         -20.5924   53.2931   -9.2474 C.ar    1  UNL1        0.0889
     33 C         -20.8389   54.5382   -9.8497 C.ar    1  UNL1        0.1543
     34 F         -21.6703   54.6285  -10.9182 F       1  UNL1       -0.2028
     35 C         -20.2476   55.6978   -9.3403 C.ar    1  UNL1        0.0310
     36 C         -19.3959   55.6231   -8.2365 C.ar    1  UNL1        0.0033
     37 C         -19.1238   54.3873   -7.6453 C.ar    1  UNL1        0.0128
     38 C         -19.7108   53.2193   -8.1470 C.ar    1  UNL1        0.0733
     39 CL        -19.2606   51.6786   -7.4252 Cl      1  UNL1       -0.0809
@<TRIPOS>BOND
     1     1     2    1
     2     2     3   ar
     3     3    30    1
     4    30    32    1
     5    32    33   ar
     6    33    34    1
     7    33    35   ar
     8    35    36   ar
     9    36    37   ar
    10    37    38   ar
    11    38    39    1
    12     3     4   ar
    13     4     5   ar
    14     5     6   ar
    15     6     7   ar
    16     7    15    1
    17    15    16    2
    18    15    17   am
    19    17    19    1
    20    19    20   ar
    21    20    21   ar
    22    21    22   ar
    23    22    23    1
    24    22    24   ar
    25    24    26    1
    26    26    27    1
    27    26    28    1
    28    26    29    1
    29    24    25   ar
    30     7     8   ar
    31     8     9   ar
    32     9    10   ar
    33     9    11    1
    34    11    12    1
    35    12    13    1
    36    13    14    1
    37    10     2   ar
    38    38    32   ar
    39    10     5   ar
    40    25    19   ar
    41    14     8    1
    42    30    31    1
    43    17    18    1
@<TRIPOS>MOLECULE
*****
 39 43 0 0 0
SMALL
GASTEIGER

@<TRIPOS>ATOM
      1 C         -24.8203   51.2412  -11.9768 C.3     1  UNL1        0.1333
      2 N         -24.8153   51.2937  -10.5150 N.ar    1  UNL1       -0.2950
      3 C         -23.7447   51.3750   -9.6793 C.ar    1  UNL1        0.2019
      4 N         -24.0828   51.4208   -8.3636 N.ar    1  UNL1       -0.2134
      5 C         -25.4264   51.3746   -8.3973 C.ar    1  UNL1        0.1033
      6 C         -26.2951   51.3840   -7.3089 C.ar    1  UNL1        0.0284
      7 C         -27.6854   51.3296   -7.5587 C.ar    1  UNL1        0.0922
      8 C         -28.1525   51.3187   -8.9026 C.ar    1  UNL1        0.1782
      9 C         -27.2406   51.2742   -9.9775 C.ar    1  UNL1        0.1897
     10 C         -25.8750   51.3096   -9.6851 C.ar    1  UNL1        0.1173
     11 O         -27.7275   51.2047  -11.2860 O.3     1  UNL1       -0.4669
     12 C         -29.0989   50.8976  -11.5428 C.3     1  UNL1        0.2527
     13 C         -29.9965   51.6060  -10.5222 C.3     1  UNL1        0.2526
     14 O         -29.5216   51.3663   -9.1957 O.3     1  UNL1       -0.4682
     15 C         -28.6280   51.2998   -6.4155 C.2     1  UNL1        0.2526
     16 O         -29.1672   52.3740   -6.0365 O.2     1  UNL1       -0.2697
     17 N         -28.9647   50.0780   -5.7383 N.am    1  UNL1       -0.2803
     18 H         -29.9151   50.0088   -5.3090 H       1  UNL1        0.1552
     19 C         -28.0722   48.9588   -5.5959 C.ar    1  UNL1        0.0506
     20 C         -27.7624   48.1287   -6.6860 C.ar    1  UNL1        0.0170
     21 C         -26.9190   47.0303   -6.5161 C.ar    1  UNL1        0.0309
     22 C         -26.3634   46.7556   -5.2642 C.ar    1  UNL1        0.1441
     23 F         -25.5591   45.6713   -5.1227 F       1  UNL1       -0.2042
     24 C         -26.6345   47.5942   -4.1672 C.ar    1  UNL1        0.1000
     25 C         -27.4923   48.6962   -4.3460 C.ar    1  UNL1        0.0208
     26 C         -26.0408   47.2763   -2.8157 C.3     1  UNL1        0.4207
     27 F         -26.0491   48.4163   -2.0329 F       1  UNL1       -0.1658
     28 F         -24.7375   46.8220   -2.9223 F       1  UNL1       -0.1658
     29 F         -26.7935   46.2960   -2.1944 F       1  UNL1       -0.1658
     30 N         -22.3848   51.4588  -10.1313 N.pl3   1  UNL1       -0.2814
     31 H         -22.0715   50.8223  -10.8970 H       1  UNL1        0.1551
     32 C         -21.5372   52.5655   -9.7914 C.ar    1  UNL1        0.0889
     33 C         -20.8827   52.5742   -8.5484 C.ar    1  UNL1        0.1543
     34 F         -21.0368   51.5372   -7.6869 F       1  UNL1       -0.2028
     35 C         -20.0497   53.6403   -8.1970 C.ar    1  UNL1        0.0310
     36 C         -19.8742   54.7112   -9.0753 C.ar    1  UNL1        0.0033
     37 C         -20.5397   54.7252  -10.3031 C.ar    1  UNL1        0.0128
     38 C         -21.3763   53.6625  -10.6657 C.ar    1  UNL1        0.0733
     39 CL        -22.2641   53.7744  -12.1812 Cl      1  UNL1       -0.0809
@<TRIPOS>BOND
     1     1     2    1
     2     2     3   ar
     3     3    30    1
     4    30    32    1
     5    32    33   ar
     6    33    34    1
     7    33    35   ar
     8    35    36   ar
     9    36    37   ar
    10    37    38   ar
    11    38    39    1
    12     3     4   ar
    13     4     5   ar
    14     5     6   ar
    15     6     7   ar
    16     7    15    1
    17    15    16    2
    18    15    17   am
    19    17    19    1
    20    19    20   ar
    21    20    21   ar
    22    21    22   ar
    23    22    23    1
    24    22    24   ar
    25    24    26    1
    26    26    27    1
    27    26    28    1
    28    26    29    1
    29    24    25   ar
    30     7     8   ar
    31     8     9   ar
    32     9    10   ar
    33     9    11    1
    34    11    12    1
    35    12    13    1
    36    13    14    1
    37    10     2   ar
    38    38    32   ar
    39    10     5   ar
    40    25    19   ar
    41    14     8    1
    42    30    31    1
    43    17    18    1
@<TRIPOS>MOLECULE
*****
 39 43 0 0 0
SMALL
GASTEIGER

@<TRIPOS>ATOM
      1 C         -24.4494   51.6091  -12.1271 C.3     1  UNL1        0.1333
      2 N         -24.5332   51.4793  -10.6725 N.ar    1  UNL1       -0.2950
      3 C         -23.5146   51.4230   -9.7724 C.ar    1  UNL1        0.2019
      4 N         -23.9319   51.3153   -8.4833 N.ar    1  UNL1       -0.2134
      5 C         -25.2716   51.3154   -8.6006 C.ar    1  UNL1        0.1033
      6 C         -26.2053   51.2163   -7.5721 C.ar    1  UNL1        0.0284
      7 C         -27.5784   51.2365   -7.9073 C.ar    1  UNL1        0.0922
      8 C         -27.9619   51.4073   -9.2668 C.ar    1  UNL1        0.1782
      9 C         -26.9869   51.4684  -10.2838 C.ar    1  UNL1        0.1897
     10 C         -25.6414   51.4249   -9.9103 C.ar    1  UNL1        0.1173
     11 O         -27.3937   51.5772  -11.6168 O.3     1  UNL1       -0.4669
     12 C         -28.7535   51.3471  -11.9895 C.3     1  UNL1        0.2527
     13 C         -29.6954   51.9507  -10.9418 C.3     1  UNL1        0.2526
     14 O         -29.3089   51.5333   -9.6306 O.3     1  UNL1       -0.4682
     15 C         -28.5901   51.0941   -6.8338 C.2     1  UNL1        0.2526
     16 O         -28.5908   51.9158   -5.8782 O.2     1  UNL1       -0.2697
     17 N         -29.5870   50.0595   -6.8597 N.am    1  UNL1       -0.2803
     18 H         -30.5063   50.2620   -6.4057 H       1  UNL1        0.1552
     19 C         -29.3919   48.7618   -7.4488 C.ar    1  UNL1        0.0506
     20 C         -28.6838   47.7530   -6.7748 C.ar    1  UNL1        0.0170
     21 C         -28.4802   46.5124   -7.3799 C.ar    1  UNL1        0.0309
     22 C         -28.9918   46.2577   -8.6545 C.ar    1  UNL1        0.1441
     23 F         -28.7654   45.0478   -9.2270 F       1  UNL1       -0.2042
     24 C         -29.7326   47.2434   -9.3327 C.ar    1  UNL1        0.1000
     25 C         -29.9271   48.4949   -8.7177 C.ar    1  UNL1        0.0208
     26 C         -30.2657   46.9609  -10.7169 C.3     1  UNL1        0.4207
     27 F         -30.8808   48.0967  -11.2108 F       1  UNL1       -0.1658
     28 F         -31.1857   45.9265  -10.7107 F       1  UNL1       -0.1658
     29 F         -29.2231   46.6105  -11.5558 F       1  UNL1       -0.1658
     30 N         -22.1278   51.5201  -10.1304 N.pl3   1  UNL1       -0.2814
     31 H         -21.7592   50.8945  -10.8803 H       1  UNL1        0.1551
     32 C         -21.3125   52.6276   -9.7213 C.ar    1  UNL1        0.0889
     33 C         -20.7741   52.6431   -8.4237 C.ar    1  UNL1        0.1543
     34 F         -21.0082   51.6117   -7.5737 F       1  UNL1       -0.2028
     35 C         -19.9745   53.7101   -8.0043 C.ar    1  UNL1        0.0310
     36 C         -19.7174   54.7753   -8.8694 C.ar    1  UNL1        0.0033
     37 C         -20.2681   54.7826  -10.1529 C.ar    1  UNL1        0.0128
     38 C         -21.0703   53.7190  -10.5839 C.ar    1  UNL1        0.0733
     39 CL        -21.8159   53.8227  -12.1746 Cl      1  UNL1       -0.0809
@<TRIPOS>BOND
     1     1     2    1
     2     2     3   ar
     3     3    30    1
     4    30    32    1
     5    32    33   ar
     6    33    34    1
     7    33    35   ar
     8    35    36   ar
     9    36    37   ar
    10    37    38   ar
    11    38    39    1
    12     3     4   ar
    13     4     5   ar
    14     5     6   ar
    15     6     7   ar
    16     7    15    1
    17    15    16    2
    18    15    17   am
    19    17    19    1
    20    19    20   ar
    21    20    21   ar
    22    21    22   ar
    23    22    23    1
    24    22    24   ar
    25    24    26    1
    26    26    27    1
    27    26    28    1
    28    26    29    1
    29    24    25   ar
    30     7     8   ar
    31     8     9   ar
    32     9    10   ar
    33     9    11    1
    34    11    12    1
    35    12    13    1
    36    13    14    1
    37    10     2   ar
    38    38    32   ar
    39    10     5   ar
    40    25    19   ar
    41    14     8    1
    42    30    31    1
    43    17    18    1
@<TRIPOS>MOLECULE
*****
 39 43 0 0 0
SMALL
GASTEIGER

@<TRIPOS>ATOM
      1 C         -30.7164   51.8446   -4.9972 C.3     1  UNL1        0.1333
      2 N         -30.4278   50.5164   -5.5380 N.ar    1  UNL1       -0.2950
      3 C         -30.0624   50.1850   -6.8059 C.ar    1  UNL1        0.2019
      4 N         -29.8524   48.8538   -6.9821 N.ar    1  UNL1       -0.2134
      5 C         -30.0921   48.3478   -5.7594 C.ar    1  UNL1        0.1033
      6 C         -30.0290   47.0104   -5.3761 C.ar    1  UNL1        0.0284
      7 C         -30.3184   46.6826   -4.0318 C.ar    1  UNL1        0.0922
      8 C         -30.6122   47.7239   -3.1079 C.ar    1  UNL1        0.1782
      9 C         -30.7013   49.0628   -3.5421 C.ar    1  UNL1        0.1897
     10 C         -30.4271   49.3401   -4.8836 C.ar    1  UNL1        0.1173
     11 O         -31.0495   50.0584   -2.6247 O.3     1  UNL1       -0.4669
     12 C         -31.5841   49.7206   -1.3437 C.3     1  UNL1        0.2527
     13 C         -30.8533   48.4996   -0.7742 C.3     1  UNL1        0.2526
     14 O         -30.8059   47.4536   -1.7470 O.3     1  UNL1       -0.4682
     15 C         -30.2951   45.2623   -3.6097 C.2     1  UNL1        0.2526
     16 O         -31.3714   44.7086   -3.2587 O.2     1  UNL1       -0.2697
     17 N         -29.0845   44.4880   -3.6095 N.am    1  UNL1       -0.2803
     18 H         -29.1680   43.4595   -3.7758 H       1  UNL1        0.1552
     19 C         -27.7745   45.0336   -3.3739 C.ar    1  UNL1        0.0506
     20 C         -26.6279   44.2233   -3.4155 C.ar    1  UNL1        0.0170
     21 C         -25.3711   44.7692   -3.1524 C.ar    1  UNL1        0.0309
     22 C         -25.2406   46.1290   -2.8605 C.ar    1  UNL1        0.1441
     23 F         -24.0083   46.6312   -2.5924 F       1  UNL1       -0.2042
     24 C         -26.3729   46.9645   -2.8469 C.ar    1  UNL1        0.1000
     25 C         -27.6380   46.4038   -3.1065 C.ar    1  UNL1        0.0208
     26 C         -26.2200   48.4292   -2.5135 C.3     1  UNL1        0.4207
     27 F         -26.3785   49.1792   -3.6645 F       1  UNL1       -0.1658
     28 F         -24.9755   48.7049   -1.9734 F       1  UNL1       -0.1658
     29 F         -27.1849   48.8018   -1.5949 F       1  UNL1       -0.1658
     30 N         -29.8623   51.1446   -7.8547 N.pl3   1  UNL1       -0.2814
     31 H         -30.5924   51.8739   -8.0122 H       1  UNL1        0.1551
     32 C         -28.5865   51.3269   -8.4855 C.ar    1  UNL1        0.0889
     33 C         -27.5412   51.9259   -7.7628 C.ar    1  UNL1        0.1543
     34 F         -27.7322   52.3105   -6.4757 F       1  UNL1       -0.2028
     35 C         -26.2890   52.1108   -8.3558 C.ar    1  UNL1        0.0310
     36 C         -26.0737   51.7134   -9.6767 C.ar    1  UNL1        0.0033
     37 C         -27.1129   51.1399  -10.4129 C.ar    1  UNL1        0.0128
     38 C         -28.3713   50.9495   -9.8290 C.ar    1  UNL1        0.0733
     39 CL        -29.6709   50.3104  -10.8290 Cl      1  UNL1       -0.0809
@<TRIPOS>BOND
     1     1     2    1
     2     2     3   ar
     3     3    30    1
     4    30    32    1
     5    32    33   ar
     6    33    34    1
     7    33    35   ar
     8    35    36   ar
     9    36    37   ar
    10    37    38   ar
    11    38    39    1
    12     3     4   ar
    13     4     5   ar
    14     5     6   ar
    15     6     7   ar
    16     7    15    1
    17    15    16    2
    18    15    17   am
    19    17    19    1
    20    19    20   ar
    21    20    21   ar
    22    21    22   ar
    23    22    23    1
    24    22    24   ar
    25    24    26    1
    26    26    27    1
    27    26    28    1
    28    26    29    1
    29    24    25   ar
    30     7     8   ar
    31     8     9   ar
    32     9    10   ar
    33     9    11    1
    34    11    12    1
    35    12    13    1
    36    13    14    1
    37    10     2   ar
    38    38    32   ar
    39    10     5   ar
    40    25    19   ar
    41    14     8    1
    42    30    31    1
    43    17    18    1
@<TRIPOS>MOLECULE
*****
 39 43 0 0 0
SMALL
GASTEIGER

@<TRIPOS>ATOM
      1 C         -30.6370   51.8858   -5.0498 C.3     1  UNL1        0.1333
      2 N         -30.3320   50.5715   -5.6150 N.ar    1  UNL1       -0.2950
      3 C         -29.9361   50.2712   -6.8816 C.ar    1  UNL1        0.2019
      4 N         -29.7181   48.9450   -7.0843 N.ar    1  UNL1       -0.2134
      5 C         -29.9848   48.4096   -5.8799 C.ar    1  UNL1        0.1033
      6 C         -29.9268   47.0636   -5.5270 C.ar    1  UNL1        0.0284
      7 C         -30.2464   46.7033   -4.1980 C.ar    1  UNL1        0.0922
      8 C         -30.5647   47.7217   -3.2568 C.ar    1  UNL1        0.1782
      9 C         -30.6476   49.0702   -3.6611 C.ar    1  UNL1        0.1897
     10 C         -30.3430   49.3800   -4.9889 C.ar    1  UNL1        0.1173
     11 O         -31.0200   50.0429   -2.7287 O.3     1  UNL1       -0.4669
     12 C         -31.5833   49.6735   -1.4689 C.3     1  UNL1        0.2527
     13 C         -30.8624   48.4410   -0.9116 C.3     1  UNL1        0.2526
     14 O         -30.7893   47.4186   -1.9076 O.3     1  UNL1       -0.4682
     15 C         -30.2288   45.2734   -3.8092 C.2     1  UNL1        0.2526
     16 O         -31.3133   44.7051   -3.5106 O.2     1  UNL1       -0.2697
     17 N         -29.0139   44.5064   -3.7837 N.am    1  UNL1       -0.2803
     18 H         -29.0844   43.4818   -3.9773 H       1  UNL1        0.1552
     19 C         -27.7169   45.0539   -3.4880 C.ar    1  UNL1        0.0506
     20 C         -26.5673   44.2465   -3.4837 C.ar    1  UNL1        0.0170
     21 C         -25.3247   44.7940   -3.1628 C.ar    1  UNL1        0.0309
     22 C         -25.2108   46.1525   -2.8582 C.ar    1  UNL1        0.1441
     23 F         -23.9927   46.6562   -2.5336 F       1  UNL1       -0.2042
     24 C         -26.3448   46.9851   -2.8896 C.ar    1  UNL1        0.1000
     25 C         -27.5958   46.4229   -3.2075 C.ar    1  UNL1        0.0208
     26 C         -26.2105   48.4484   -2.5420 C.3     1  UNL1        0.4207
     27 F         -27.1585   48.7817   -1.5920 F       1  UNL1       -0.1658
     28 F         -26.3913   49.2574   -3.6507 F       1  UNL1       -0.1658
     29 F         -24.9497   48.6918   -2.0272 F       1  UNL1       -0.1658
     30 N         -29.7145   51.2559   -7.9024 N.pl3   1  UNL1       -0.2814
     31 H         -30.3906   52.0462   -7.9911 H       1  UNL1        0.1551
     32 C         -28.4628   51.3643   -8.5955 C.ar    1  UNL1        0.0889
     33 C         -28.3924   50.9965   -9.9496 C.ar    1  UNL1        0.1543
     34 F         -29.5015   50.5610  -10.5987 F       1  UNL1       -0.2028
     35 C         -27.1845   51.0966  -10.6460 C.ar    1  UNL1        0.0310
     36 C         -26.0359   51.5502   -9.9948 C.ar    1  UNL1        0.0033
     37 C         -26.0885   51.8948   -8.6423 C.ar    1  UNL1        0.0128
     38 C         -27.2930   51.7988   -7.9349 C.ar    1  UNL1        0.0733
     39 CL        -27.2831   52.1545   -6.2113 Cl      1  UNL1       -0.0809
@<TRIPOS>BOND
     1     1     2    1
     2     2     3   ar
     3     3    30    1
     4    30    32    1
     5    32    33   ar
     6    33    34    1
     7    33    35   ar
     8    35    36   ar
     9    36    37   ar
    10    37    38   ar
    11    38    39    1
    12     3     4   ar
    13     4     5   ar
    14     5     6   ar
    15     6     7   ar
    16     7    15    1
    17    15    16    2
    18    15    17   am
    19    17    19    1
    20    19    20   ar
    21    20    21   ar
    22    21    22   ar
    23    22    23    1
    24    22    24   ar
    25    24    26    1
    26    26    27    1
    27    26    28    1
    28    26    29    1
    29    24    25   ar
    30     7     8   ar
    31     8     9   ar
    32     9    10   ar
    33     9    11    1
    34    11    12    1
    35    12    13    1
    36    13    14    1
    37    10     2   ar
    38    38    32   ar
    39    10     5   ar
    40    25    19   ar
    41    14     8    1
    42    30    31    1
    43    17    18    1
@<TRIPOS>MOLECULE
*****
 39 43 0 0 0
SMALL
GASTEIGER

@<TRIPOS>ATOM
      1 C         -26.6759   51.1881  -11.2330 C.3     1  UNL1        0.1333
      2 N         -25.9151   50.9288  -10.0109 N.ar    1  UNL1       -0.2950
      3 C         -24.8594   51.6274   -9.5124 C.ar    1  UNL1        0.2019
      4 N         -24.3825   51.1314   -8.3402 N.ar    1  UNL1       -0.2134
      5 C         -25.1926   50.0839   -8.1060 C.ar    1  UNL1        0.1033
      6 C         -25.1405   49.2062   -7.0259 C.ar    1  UNL1        0.0284
      7 C         -26.0908   48.1616   -6.9629 C.ar    1  UNL1        0.0922
      8 C         -27.0938   48.0698   -7.9678 C.ar    1  UNL1        0.1782
      9 C         -27.0919   48.9561   -9.0649 C.ar    1  UNL1        0.1897
     10 C         -26.1226   49.9616   -9.0980 C.ar    1  UNL1        0.1173
     11 O         -28.0538   48.8060  -10.0680 O.3     1  UNL1       -0.4669
     12 C         -28.8494   47.6223  -10.1499 C.3     1  UNL1        0.2527
     13 C         -29.2579   47.1650   -8.7451 C.3     1  UNL1        0.2526
     14 O         -28.1138   47.1127   -7.8901 O.3     1  UNL1       -0.4682
     15 C         -26.0314   47.1926   -5.8433 C.2     1  UNL1        0.2526
     16 O         -25.3808   46.1234   -5.9908 O.2     1  UNL1       -0.2697
     17 N         -26.6753   47.4446   -4.5835 N.am    1  UNL1       -0.2803
     18 H         -26.2446   47.0266   -3.7279 H       1  UNL1        0.1552
     19 C         -27.8814   48.2134   -4.4302 C.ar    1  UNL1        0.0506
     20 C         -28.9393   47.7593   -3.6254 C.ar    1  UNL1        0.0170
     21 C         -30.1120   48.5075   -3.5173 C.ar    1  UNL1        0.0309
     22 C         -30.2381   49.7218   -4.1963 C.ar    1  UNL1        0.1441
     23 F         -31.3959   50.4220   -4.0869 F       1  UNL1       -0.2042
     24 C         -29.1771   50.2105   -4.9808 C.ar    1  UNL1        0.1000
     25 C         -28.0001   49.4456   -5.0899 C.ar    1  UNL1        0.0208
     26 C         -29.3327   51.5164   -5.7228 C.3     1  UNL1        0.4207
     27 F         -28.0842   52.0678   -5.9452 F       1  UNL1       -0.1658
     28 F         -30.0966   52.4237   -5.0089 F       1  UNL1       -0.1658
     29 F         -29.9504   51.2906   -6.9399 F       1  UNL1       -0.1658
     30 N         -24.3231   52.8086  -10.1271 N.pl3   1  UNL1       -0.2814
     31 H         -24.8677   53.6970  -10.0646 H       1  UNL1        0.1551
     32 C         -22.9556   52.8899  -10.5538 C.ar    1  UNL1        0.0889
     33 C         -22.2525   51.7075  -10.8385 C.ar    1  UNL1        0.1543
     34 F         -22.8671   50.5028  -10.7284 F       1  UNL1       -0.2028
     35 C         -20.9205   51.7625  -11.2587 C.ar    1  UNL1        0.0310
     36 C         -20.2758   52.9944  -11.3847 C.ar    1  UNL1        0.0033
     37 C         -20.9574   54.1749  -11.0802 C.ar    1  UNL1        0.0128
     38 C         -22.2919   54.1319  -10.6586 C.ar    1  UNL1        0.0733
     39 CL        -23.0740   55.6394  -10.1973 Cl      1  UNL1       -0.0809
@<TRIPOS>BOND
     1     1     2    1
     2     2     3   ar
     3     3    30    1
     4    30    32    1
     5    32    33   ar
     6    33    34    1
     7    33    35   ar
     8    35    36   ar
     9    36    37   ar
    10    37    38   ar
    11    38    39    1
    12     3     4   ar
    13     4     5   ar
    14     5     6   ar
    15     6     7   ar
    16     7    15    1
    17    15    16    2
    18    15    17   am
    19    17    19    1
    20    19    20   ar
    21    20    21   ar
    22    21    22   ar
    23    22    23    1
    24    22    24   ar
    25    24    26    1
    26    26    27    1
    27    26    28    1
    28    26    29    1
    29    24    25   ar
    30     7     8   ar
    31     8     9   ar
    32     9    10   ar
    33     9    11    1
    34    11    12    1
    35    12    13    1
    36    13    14    1
    37    10     2   ar
    38    38    32   ar
    39    10     5   ar
    40    25    19   ar
    41    14     8    1
    42    30    31    1
    43    17    18    1
@<TRIPOS>MOLECULE
*****
 39 43 0 0 0
SMALL
GASTEIGER

@<TRIPOS>ATOM
      1 C         -23.7187   51.3275   -8.1501 C.3     1  UNL1        0.1333
      2 N         -24.4646   51.2866   -9.4077 N.ar    1  UNL1       -0.2950
      3 C         -23.9747   51.2221  -10.6753 C.ar    1  UNL1        0.2019
      4 N         -24.9401   51.1836  -11.6313 N.ar    1  UNL1       -0.2134
      5 C         -26.0760   51.2167  -10.9122 C.ar    1  UNL1        0.1033
      6 C         -27.3802   51.2076  -11.4003 C.ar    1  UNL1        0.0284
      7 C         -28.4452   51.2468  -10.4715 C.ar    1  UNL1        0.0922
      8 C         -28.1561   51.2425   -9.0785 C.ar    1  UNL1        0.1782
      9 C         -26.8219   51.2872   -8.6236 C.ar    1  UNL1        0.1897
     10 C         -25.8000   51.2671   -9.5760 C.ar    1  UNL1        0.1173
     11 O         -26.5682   51.3416   -7.2501 O.3     1  UNL1       -0.4669
     12 C         -27.6145   51.6336   -6.3221 C.3     1  UNL1        0.2527
     13 C         -28.9058   50.9247   -6.7454 C.3     1  UNL1        0.2526
     14 O         -29.1803   51.1795   -8.1248 O.3     1  UNL1       -0.4682
     15 C         -29.8411   51.2766  -10.9684 C.2     1  UNL1        0.2526
     16 O         -30.3557   52.3820  -11.2870 O.2     1  UNL1       -0.2697
     17 N         -30.6208   50.0791  -11.1199 N.am    1  UNL1       -0.2803
     18 H         -31.3491   50.0676  -11.8695 H       1  UNL1        0.1552
     19 C         -30.4775   48.9098  -10.2945 C.ar    1  UNL1        0.0506
     20 C         -31.2319   48.7478   -9.1206 C.ar    1  UNL1        0.0170
     21 C         -31.0525   47.6197   -8.3195 C.ar    1  UNL1        0.0309
     22 C         -30.1324   46.6344   -8.6857 C.ar    1  UNL1        0.1441
     23 F         -29.9657   45.5548   -7.8800 F       1  UNL1       -0.2042
     24 C         -29.3911   46.7616   -9.8751 C.ar    1  UNL1        0.1000
     25 C         -29.5733   47.9067  -10.6739 C.ar    1  UNL1        0.0208
     26 C         -28.3879   45.6975  -10.2508 C.3     1  UNL1        0.4207
     27 F         -28.0995   45.7965  -11.5996 F       1  UNL1       -0.1658
     28 F         -28.8692   44.4254   -9.9933 F       1  UNL1       -0.1658
     29 F         -27.2237   45.8770   -9.5254 F       1  UNL1       -0.1658
     30 N         -22.5752   51.1478  -10.9865 N.pl3   1  UNL1       -0.2814
     31 H         -22.2356   50.3600  -11.5811 H       1  UNL1        0.1551
     32 C         -21.6884   52.2551  -10.7712 C.ar    1  UNL1        0.0889
     33 C         -22.2209   53.5496  -10.6518 C.ar    1  UNL1        0.1543
     34 F         -23.5617   53.7468  -10.7210 F       1  UNL1       -0.2028
     35 C         -21.3765   54.6430  -10.4388 C.ar    1  UNL1        0.0310
     36 C         -19.9954   54.4562  -10.3573 C.ar    1  UNL1        0.0033
     37 C         -19.4529   53.1770  -10.4997 C.ar    1  UNL1        0.0128
     38 C         -20.2892   52.0744  -10.7131 C.ar    1  UNL1        0.0733
     39 CL        -19.5488   50.5003  -10.9801 Cl      1  UNL1       -0.0809
@<TRIPOS>BOND
     1     1     2    1
     2     2     3   ar
     3     3    30    1
     4    30    32    1
     5    32    33   ar
     6    33    34    1
     7    33    35   ar
     8    35    36   ar
     9    36    37   ar
    10    37    38   ar
    11    38    39    1
    12     3     4   ar
    13     4     5   ar
    14     5     6   ar
    15     6     7   ar
    16     7    15    1
    17    15    16    2
    18    15    17   am
    19    17    19    1
    20    19    20   ar
    21    20    21   ar
    22    21    22   ar
    23    22    23    1
    24    22    24   ar
    25    24    26    1
    26    26    27    1
    27    26    28    1
    28    26    29    1
    29    24    25   ar
    30     7     8   ar
    31     8     9   ar
    32     9    10   ar
    33     9    11    1
    34    11    12    1
    35    12    13    1
    36    13    14    1
    37    10     2   ar
    38    38    32   ar
    39    10     5   ar
    40    25    19   ar
    41    14     8    1
    42    30    31    1
    43    17    18    1
@<TRIPOS>MOLECULE
*****
 39 43 0 0 0
SMALL
GASTEIGER

@<TRIPOS>ATOM
      1 C         -27.3682   51.9771   -6.7037 C.3     1  UNL1        0.1333
      2 N         -26.9646   50.6305   -7.1082 N.ar    1  UNL1       -0.2950
      3 C         -25.7521   50.2171   -7.5663 C.ar    1  UNL1        0.2019
      4 N         -25.6988   48.8876   -7.8438 N.ar    1  UNL1       -0.2134
      5 C         -26.9369   48.4660   -7.5308 C.ar    1  UNL1        0.1033
      6 C         -27.4346   47.1695   -7.6352 C.ar    1  UNL1        0.0284
      7 C         -28.7740   46.9313   -7.2511 C.ar    1  UNL1        0.0922
      8 C         -29.5499   48.0023   -6.7264 C.ar    1  UNL1        0.1782
      9 C         -29.0218   49.3087   -6.6694 C.ar    1  UNL1        0.1897
     10 C         -27.7000   49.5035   -7.0777 C.ar    1  UNL1        0.1173
     11 O         -29.8263   50.3528   -6.2042 O.3     1  UNL1       -0.4669
     12 C         -31.2366   50.1811   -6.0543 C.3     1  UNL1        0.2527
     13 C         -31.5397   48.7886   -5.4900 C.3     1  UNL1        0.2526
     14 O         -30.8467   47.7893   -6.2409 O.3     1  UNL1       -0.4682
     15 C         -29.3375   45.5677   -7.3894 C.2     1  UNL1        0.2526
     16 O         -30.0397   45.2931   -8.3992 O.2     1  UNL1       -0.2697
     17 N         -29.0890   44.5393   -6.4169 N.am    1  UNL1       -0.2803
     18 H         -29.0756   43.5494   -6.7522 H       1  UNL1        0.1552
     19 C         -28.8808   44.7841   -5.0148 C.ar    1  UNL1        0.0506
     20 C         -29.9433   45.1498   -4.1718 C.ar    1  UNL1        0.0170
     21 C         -29.7111   45.4130   -2.8214 C.ar    1  UNL1        0.0309
     22 C         -28.4230   45.3003   -2.2930 C.ar    1  UNL1        0.1441
     23 F         -28.2218   45.5778   -0.9795 F       1  UNL1       -0.2042
     24 C         -27.3509   44.9028   -3.1133 C.ar    1  UNL1        0.1000
     25 C         -27.5929   44.6461   -4.4763 C.ar    1  UNL1        0.0208
     26 C         -25.9605   44.8011   -2.5331 C.3     1  UNL1        0.4207
     27 F         -25.1449   44.1184   -3.4169 F       1  UNL1       -0.1658
     28 F         -25.9583   44.1316   -1.3214 F       1  UNL1       -0.1658
     29 F         -25.4457   46.0690   -2.3303 F       1  UNL1       -0.1658
     30 N         -24.6131   51.0807   -7.6991 N.pl3   1  UNL1       -0.2814
     31 H         -24.0676   51.3253   -6.8434 H       1  UNL1        0.1551
     32 C         -24.0245   51.3724   -8.9748 C.ar    1  UNL1        0.0889
     33 C         -22.6734   51.7522   -9.0381 C.ar    1  UNL1        0.1543
     34 F         -21.9292   51.8238   -7.9058 F       1  UNL1       -0.2028
     35 C         -22.0779   52.0381  -10.2700 C.ar    1  UNL1        0.0310
     36 C         -22.8277   51.9615  -11.4453 C.ar    1  UNL1        0.0033
     37 C         -24.1782   51.6095  -11.3916 C.ar    1  UNL1        0.0128
     38 C         -24.7851   51.3205  -10.1633 C.ar    1  UNL1        0.0733
     39 CL        -26.5106   50.9752  -10.1418 Cl      1  UNL1       -0.0809
@<TRIPOS>BOND
     1     1     2    1
     2     2     3   ar
     3     3    30    1
     4    30    32    1
     5    32    33   ar
     6    33    34    1
     7    33    35   ar
     8    35    36   ar
     9    36    37   ar
    10    37    38   ar
    11    38    39    1
    12     3     4   ar
    13     4     5   ar
    14     5     6   ar
    15     6     7   ar
    16     7    15    1
    17    15    16    2
    18    15    17   am
    19    17    19    1
    20    19    20   ar
    21    20    21   ar
    22    21    22   ar
    23    22    23    1
    24    22    24   ar
    25    24    26    1
    26    26    27    1
    27    26    28    1
    28    26    29    1
    29    24    25   ar
    30     7     8   ar
    31     8     9   ar
    32     9    10   ar
    33     9    11    1
    34    11    12    1
    35    12    13    1
    36    13    14    1
    37    10     2   ar
    38    38    32   ar
    39    10     5   ar
    40    25    19   ar
    41    14     8    1
    42    30    31    1
    43    17    18    1
@<TRIPOS>MOLECULE
*****
 39 43 0 0 0
SMALL
GASTEIGER

@<TRIPOS>ATOM
      1 C         -27.9787   51.6085   -5.6907 C.3     1  UNL1        0.1333
      2 N         -27.4350   50.3007   -6.0564 N.ar    1  UNL1       -0.2950
      3 C         -26.3250   50.0269   -6.7940 C.ar    1  UNL1        0.2019
      4 N         -26.0831   48.6976   -6.9416 N.ar    1  UNL1       -0.2134
      5 C         -27.0894   48.1312   -6.2524 C.ar    1  UNL1        0.1033
      6 C         -27.3303   46.7700   -6.0829 C.ar    1  UNL1        0.0284
      7 C         -28.4504   46.3766   -5.3155 C.ar    1  UNL1        0.0922
      8 C         -29.2604   47.3729   -4.7026 C.ar    1  UNL1        0.1782
      9 C         -29.0050   48.7415   -4.9269 C.ar    1  UNL1        0.1897
     10 C         -27.8993   49.0862   -5.7082 C.ar    1  UNL1        0.1173
     11 O         -29.8523   49.6981   -4.3602 O.3     1  UNL1       -0.4669
     12 C         -31.1130   49.3227   -3.8028 C.3     1  UNL1        0.2527
     13 C         -30.9781   47.9999   -3.0406 C.3     1  UNL1        0.2526
     14 O         -30.3190   47.0261   -3.8530 O.3     1  UNL1       -0.4682
     15 C         -28.7488   44.9341   -5.1531 C.2     1  UNL1        0.2526
     16 O         -28.1271   44.2734   -4.2784 O.2     1  UNL1       -0.2697
     17 N         -29.7435   44.2684   -5.9484 N.am    1  UNL1       -0.2803
     18 H         -30.2436   43.4577   -5.5185 H       1  UNL1        0.1552
     19 C         -30.0762   44.6324   -7.2998 C.ar    1  UNL1        0.0506
     20 C         -31.2972   44.2495   -7.8794 C.ar    1  UNL1        0.0170
     21 C         -31.5841   44.5873   -9.2024 C.ar    1  UNL1        0.0309
     22 C         -30.6664   45.3222   -9.9568 C.ar    1  UNL1        0.1441
     23 F         -30.9635   45.6235  -11.2467 F       1  UNL1       -0.2042
     24 C         -29.4522   45.7441   -9.3842 C.ar    1  UNL1        0.1000
     25 C         -29.1678   45.3928   -8.0508 C.ar    1  UNL1        0.0208
     26 C         -28.4619   46.5236  -10.2159 C.3     1  UNL1        0.4207
     27 F         -28.0973   45.7712  -11.3174 F       1  UNL1       -0.1658
     28 F         -27.3214   46.8359   -9.4960 F       1  UNL1       -0.1658
     29 F         -29.0410   47.7038  -10.6464 F       1  UNL1       -0.1658
     30 N         -25.4534   51.0351   -7.3274 N.pl3   1  UNL1       -0.2814
     31 H         -24.8710   51.5946   -6.6660 H       1  UNL1        0.1551
     32 C         -25.1297   51.0994   -8.7238 C.ar    1  UNL1        0.0889
     33 C         -23.8122   51.3951   -9.1115 C.ar    1  UNL1        0.1543
     34 F         -22.8527   51.5991   -8.1740 F       1  UNL1       -0.2028
     35 C         -23.4730   51.4600  -10.4660 C.ar    1  UNL1        0.0310
     36 C         -24.4467   51.2448  -11.4431 C.ar    1  UNL1        0.0033
     37 C         -25.7652   50.9751  -11.0694 C.ar    1  UNL1        0.0128
     38 C         -26.1162   50.9073   -9.7156 C.ar    1  UNL1        0.0733
     39 CL        -27.8082   50.6585   -9.3001 Cl      1  UNL1       -0.0809
@<TRIPOS>BOND
     1     1     2    1
     2     2     3   ar
     3     3    30    1
     4    30    32    1
     5    32    33   ar
     6    33    34    1
     7    33    35   ar
     8    35    36   ar
     9    36    37   ar
    10    37    38   ar
    11    38    39    1
    12     3     4   ar
    13     4     5   ar
    14     5     6   ar
    15     6     7   ar
    16     7    15    1
    17    15    16    2
    18    15    17   am
    19    17    19    1
    20    19    20   ar
    21    20    21   ar
    22    21    22   ar
    23    22    23    1
    24    22    24   ar
    25    24    26    1
    26    26    27    1
    27    26    28    1
    28    26    29    1
    29    24    25   ar
    30     7     8   ar
    31     8     9   ar
    32     9    10   ar
    33     9    11    1
    34    11    12    1
    35    12    13    1
    36    13    14    1
    37    10     2   ar
    38    38    32   ar
    39    10     5   ar
    40    25    19   ar
    41    14     8    1
    42    30    31    1
    43    17    18    1
