@<TRIPOS>MOLECULE
*****
 52 57 0 0 0
SMALL
GASTEIGER

@<TRIPOS>ATOM
      1 C         -25.2002   51.6233  -10.8967 C.ar    1  UNL1        0.0502
      2 C         -25.4560   51.3540  -12.2491 C.ar    1  UNL1        0.0148
      3 C         -26.7660   51.1729  -12.6985 C.ar    1  UNL1        0.0080
      4 C         -27.8492   51.2449  -11.8042 C.ar    1  UNL1        0.0808
      5 C         -27.5881   51.5156  -10.4435 C.ar    1  UNL1        0.1457
      6 F         -28.5924   51.6522   -9.5426 F       1  UNL1       -0.2040
      7 C         -26.2751   51.7006  -10.0007 C.ar    1  UNL1        0.0443
      8 N         -21.1883   51.6765   -9.6654 N.pl3   1  UNL1       -0.3041
      9 C         -22.1897   51.0179   -8.8183 C.3     1  UNL1        0.1122
     10 C         -23.5472   51.6937   -8.9992 C.3     1  UNL1        0.1122
     11 N         -23.8533   51.8238  -10.4289 N.pl3   1  UNL1       -0.3040
     12 C         -22.8557   52.4732  -11.2880 C.3     1  UNL1        0.1122
     13 C         -21.4858   51.8179  -11.0958 C.3     1  UNL1        0.1122
     14 C         -18.2325   53.2959   -8.0016 C.ar    1  UNL1        0.0124
     15 C         -19.5323   53.0633   -8.4855 C.ar    1  UNL1        0.0126
     16 C         -19.8517   51.8858   -9.1719 C.ar    1  UNL1        0.0477
     17 C         -18.8567   50.9244   -9.3775 C.ar    1  UNL1        0.0144
     18 C         -17.5643   51.1299   -8.8961 C.ar    1  UNL1        0.0049
     19 C         -17.2264   52.3080   -8.1998 C.ar    1  UNL1        0.0699
     20 C         -15.8129   52.4835   -7.6751 C.3     1  UNL1        0.4184
     21 F         -15.6680   53.6633   -6.9649 F       1  UNL1       -0.1659
     22 F         -14.9229   52.5132   -8.7335 F       1  UNL1       -0.1659
     23 F         -15.4918   51.4375   -6.8295 F       1  UNL1       -0.1659
     24 C         -17.9840   54.6069   -7.2800 C.3     1  UNL1        0.1687
     25 C         -18.7643   56.7597   -6.9224 C.3     1  UNL1        0.1746
     26 O         -19.0857   55.4826   -7.4289 O.3     1  UNL1       -0.3463
     27 C         -29.2320   51.0867  -12.3225 C.2     1  UNL1        0.2483
     28 O         -30.1438   51.8426  -11.8874 O.2     1  UNL1       -0.2701
     29 N         -29.5490   50.0978  -13.3145 N.am    1  UNL1       -0.2945
     30 H         -28.7721   49.7320  -13.9086 H       1  UNL1        0.1501
     31 C         -30.9330   49.6800  -13.5860 C.3     1  UNL1        0.1535
     32 C         -31.0415   48.9481  -14.9041 C.2     1  UNL1        0.2443
     33 O         -31.5832   49.5091  -15.8959 O.2     1  UNL1       -0.2730
     34 N         -30.4340   47.6542  -15.0482 N.am    1  UNL1       -0.2825
     35 H         -29.7437   47.3573  -14.3214 H       1  UNL1        0.1549
     36 C         -30.6230   46.7980  -16.1878 C.ar    1  UNL1        0.0535
     37 C         -30.3056   47.2238  -17.4890 C.ar    1  UNL1        0.0353
     38 C         -30.5290   46.3651  -18.5683 C.ar    1  UNL1        0.1002
     39 N         -31.0628   45.1323  -18.3610 N.ar    1  UNL1       -0.2422
     40 C         -31.3963   44.7014  -17.1158 C.ar    1  UNL1        0.1002
     41 C         -31.1905   45.5290  -16.0093 C.ar    1  UNL1        0.0353
     42 C         -31.5055   48.8277  -12.4312 C.3     1  UNL1        0.0569
     43 C         -30.5309   47.8064  -11.9088 C.ar    1  UNL1       -0.0017
     44 C         -30.0991   46.6588  -12.5682 C.ar    1  UNL1        0.0681
     45 N         -29.1713   46.0091  -11.8296 N.ar    1  UNL1       -0.3523
     46 C         -29.0151   46.7329  -10.7081 C.ar    1  UNL1        0.0563
     47 C         -28.1475   46.4702   -9.6486 C.ar    1  UNL1        0.0170
     48 C         -28.1347   47.3721   -8.5693 C.ar    1  UNL1        0.0015
     49 C         -28.9855   48.4990   -8.5689 C.ar    1  UNL1        0.0001
     50 C         -29.8535   48.7369   -9.6496 C.ar    1  UNL1        0.0012
     51 C         -29.8335   47.8339  -10.7144 C.ar    1  UNL1        0.0131
     52 H         -28.6733   45.1281  -12.0867 H       1  UNL1        0.1660
@<TRIPOS>BOND
     1    25    26    1
     2    26    24    1
     3    24    14    1
     4    14    15   ar
     5    15    16   ar
     6    16     8    1
     7     8     9    1
     8     9    10    1
     9    10    11    1
    10    11     1    1
    11     1     2   ar
    12     2     3   ar
    13     3     4   ar
    14     4    27    1
    15    27    28    2
    16    27    29   am
    17    29    31    1
    18    31    42    1
    19    42    43    1
    20    43    44   ar
    21    44    45   ar
    22    45    46   ar
    23    46    47   ar
    24    47    48   ar
    25    48    49   ar
    26    49    50   ar
    27    50    51   ar
    28    31    32    1
    29    32    33    2
    30    32    34   am
    31    34    36    1
    32    36    37   ar
    33    37    38   ar
    34    38    39   ar
    35    39    40   ar
    36    40    41   ar
    37     4     5   ar
    38     5     6    1
    39     5     7   ar
    40    11    12    1
    41    12    13    1
    42    16    17   ar
    43    17    18   ar
    44    18    19   ar
    45    19    20    1
    46    20    21    1
    47    20    22    1
    48    20    23    1
    49    19    14   ar
    50    13     8    1
    51     7     1   ar
    52    51    43   ar
    53    41    36   ar
    54    51    46   ar
    55    29    30    1
    56    45    52    1
    57    34    35    1
@<TRIPOS>MOLECULE
*****
 52 57 0 0 0
SMALL
GASTEIGER

@<TRIPOS>ATOM
      1 C         -30.1945   48.8858   -5.7450 C.ar    1  UNL1        0.0502
      2 C         -31.1576   49.6331   -6.4386 C.ar    1  UNL1        0.0148
      3 C         -31.0515   49.8154   -7.8193 C.ar    1  UNL1        0.0080
      4 C         -29.9738   49.2652   -8.5363 C.ar    1  UNL1        0.0808
      5 C         -29.0059   48.5140   -7.8350 C.ar    1  UNL1        0.1457
      6 F         -27.9742   47.9119   -8.4769 F       1  UNL1       -0.2040
      7 C         -29.1202   48.3311   -6.4538 C.ar    1  UNL1        0.0443
      8 N         -30.2562   48.7817   -1.5498 N.pl3   1  UNL1       -0.3041
      9 C         -29.0005   48.5009   -2.2557 C.3     1  UNL1        0.1122
     10 C         -29.2993   47.8793   -3.6183 C.3     1  UNL1        0.1122
     11 N         -30.3046   48.6831   -4.3237 N.pl3   1  UNL1       -0.3040
     12 C         -31.5614   48.9778   -3.6248 C.3     1  UNL1        0.1122
     13 C         -31.2718   49.5795   -2.2475 C.3     1  UNL1        0.1122
     14 C         -30.9915   49.3432    2.0931 C.ar    1  UNL1        0.0124
     15 C         -30.8947   49.5377    0.7037 C.ar    1  UNL1        0.0126
     16 C         -30.3526   48.5535   -0.1312 C.ar    1  UNL1        0.0477
     17 C         -29.9005   47.3550    0.4308 C.ar    1  UNL1        0.0144
     18 C         -29.9976   47.1370    1.8046 C.ar    1  UNL1        0.0049
     19 C         -30.5442   48.1158    2.6593 C.ar    1  UNL1        0.0699
     20 C         -30.6498   47.8306    4.1464 C.3     1  UNL1        0.4184
     21 F         -31.1881   46.5795    4.3958 F       1  UNL1       -0.1659
     22 F         -31.4680   48.7717    4.7448 F       1  UNL1       -0.1659
     23 F         -29.3941   47.8746    4.7242 F       1  UNL1       -0.1659
     24 C         -31.5840   50.4734    2.9133 C.3     1  UNL1        0.1687
     25 C         -30.7127   51.7969    4.6047 C.3     1  UNL1        0.1746
     26 O         -30.5942   51.4279    3.2479 O.3     1  UNL1       -0.3463
     27 C         -29.9129   49.4449  -10.0094 C.2     1  UNL1        0.2483
     28 O         -29.5528   48.4770  -10.7342 O.2     1  UNL1       -0.2701
     29 N         -30.2642   50.6943  -10.6243 N.am    1  UNL1       -0.2945
     30 H         -30.8748   51.3504  -10.0884 H       1  UNL1        0.1501
     31 C         -29.8867   51.0164  -12.0089 C.3     1  UNL1        0.1535
     32 C         -30.5493   52.2903  -12.4810 C.2     1  UNL1        0.2443
     33 O         -31.4746   52.2418  -13.3374 O.2     1  UNL1       -0.2730
     34 N         -30.1908   53.5423  -11.8743 N.am    1  UNL1       -0.2825
     35 H         -29.6582   53.5123  -10.9754 H       1  UNL1        0.1549
     36 C         -30.6220   54.8253  -12.3596 C.ar    1  UNL1        0.0535
     37 C         -31.1482   55.8003  -11.4950 C.ar    1  UNL1        0.0353
     38 C         -31.5766   57.0239  -12.0161 C.ar    1  UNL1        0.1002
     39 N         -31.4974   57.2624  -13.3519 N.ar    1  UNL1       -0.2422
     40 C         -31.0101   56.3311  -14.2135 C.ar    1  UNL1        0.1002
     41 C         -30.5722   55.0941  -13.7342 C.ar    1  UNL1        0.0353
     42 C         -28.3525   51.0965  -12.1750 C.3     1  UNL1        0.0569
     43 C         -27.6391   51.4890  -10.9090 C.ar    1  UNL1       -0.0017
     44 C         -28.2280   51.9413   -9.7313 C.ar    1  UNL1        0.0681
     45 N         -27.2899   52.1357   -8.7772 N.ar    1  UNL1       -0.3523
     46 C         -26.1132   51.8141   -9.3413 C.ar    1  UNL1        0.0563
     47 C         -24.8554   51.8365   -8.7400 C.ar    1  UNL1        0.0170
     48 C         -23.7485   51.4457   -9.5149 C.ar    1  UNL1        0.0015
     49 C         -23.9201   51.0538  -10.8605 C.ar    1  UNL1        0.0001
     50 C         -25.2005   51.0447  -11.4423 C.ar    1  UNL1        0.0012
     51 C         -26.2829   51.4221  -10.6450 C.ar    1  UNL1        0.0131
     52 H         -27.4524   52.4616   -7.7985 H       1  UNL1        0.1660
@<TRIPOS>BOND
     1    25    26    1
     2    26    24    1
     3    24    14    1
     4    14    15   ar
     5    15    16   ar
     6    16     8    1
     7     8     9    1
     8     9    10    1
     9    10    11    1
    10    11     1    1
    11     1     2   ar
    12     2     3   ar
    13     3     4   ar
    14     4    27    1
    15    27    28    2
    16    27    29   am
    17    29    31    1
    18    31    42    1
    19    42    43    1
    20    43    44   ar
    21    44    45   ar
    22    45    46   ar
    23    46    47   ar
    24    47    48   ar
    25    48    49   ar
    26    49    50   ar
    27    50    51   ar
    28    31    32    1
    29    32    33    2
    30    32    34   am
    31    34    36    1
    32    36    37   ar
    33    37    38   ar
    34    38    39   ar
    35    39    40   ar
    36    40    41   ar
    37     4     5   ar
    38     5     6    1
    39     5     7   ar
    40    11    12    1
    41    12    13    1
    42    16    17   ar
    43    17    18   ar
    44    18    19   ar
    45    19    20    1
    46    20    21    1
    47    20    22    1
    48    20    23    1
    49    19    14   ar
    50    13     8    1
    51     7     1   ar
    52    51    43   ar
    53    41    36   ar
    54    51    46   ar
    55    29    30    1
    56    45    52    1
    57    34    35    1
@<TRIPOS>MOLECULE
*****
 52 57 0 0 0
SMALL
GASTEIGER

@<TRIPOS>ATOM
      1 C         -23.7225   52.4300   -9.8867 C.ar    1  UNL1        0.0502
      2 C         -22.3892   52.0270   -9.7227 C.ar    1  UNL1        0.0148
      3 C         -21.3563   52.9662   -9.7645 C.ar    1  UNL1        0.0080
      4 C         -21.6315   54.3281   -9.9834 C.ar    1  UNL1        0.0808
      5 C         -22.9746   54.7303  -10.1487 C.ar    1  UNL1        0.1457
      6 F         -23.3094   56.0348  -10.3076 F       1  UNL1       -0.2040
      7 C         -24.0044   53.7861  -10.1011 C.ar    1  UNL1        0.0443
      8 N         -26.4552   49.2588   -9.5878 N.pl3   1  UNL1       -0.3041
      9 C         -25.5712   49.3358  -10.7567 C.3     1  UNL1        0.1122
     10 C         -25.2361   50.7949  -11.0584 C.3     1  UNL1        0.1122
     11 N         -24.7932   51.4689   -9.8320 N.pl3   1  UNL1       -0.3040
     12 C         -25.6649   51.3919   -8.6534 C.3     1  UNL1        0.1122
     13 C         -26.0258   49.9342   -8.3573 C.3     1  UNL1        0.1122
     14 C         -28.7972   46.5845   -8.3670 C.ar    1  UNL1        0.0124
     15 C         -27.7574   47.5300   -8.4159 C.ar    1  UNL1        0.0126
     16 C         -27.5331   48.3042   -9.5605 C.ar    1  UNL1        0.0477
     17 C         -28.3616   48.1318  -10.6742 C.ar    1  UNL1        0.0144
     18 C         -29.4055   47.2078  -10.6429 C.ar    1  UNL1        0.0049
     19 C         -29.6478   46.4228   -9.4974 C.ar    1  UNL1        0.0699
     20 C         -30.8070   45.4429   -9.4978 C.3     1  UNL1        0.4184
     21 F         -30.3724   44.1282   -9.5036 F       1  UNL1       -0.1659
     22 F         -31.5827   45.6386  -10.6262 F       1  UNL1       -0.1659
     23 F         -31.5804   45.6288   -8.3666 F       1  UNL1       -0.1659
     24 C         -28.9521   45.7876   -7.0856 C.3     1  UNL1        0.1687
     25 C         -29.3238   46.7798   -5.0242 C.3     1  UNL1        0.1746
     26 O         -29.9201   46.3767   -6.2379 O.3     1  UNL1       -0.3463
     27 C         -20.5131   55.3054   -9.9824 C.2     1  UNL1        0.2483
     28 O         -19.5995   55.1977  -10.8459 O.2     1  UNL1       -0.2701
     29 N         -20.4566   56.3744   -9.0250 N.am    1  UNL1       -0.2945
     30 H         -21.3461   56.6667   -8.5628 H       1  UNL1        0.1501
     31 C         -19.2202   57.1291   -8.7696 C.3     1  UNL1        0.1535
     32 C         -19.5152   58.5620   -8.3893 C.2     1  UNL1        0.2443
     33 O         -19.8760   59.3887   -9.2715 O.2     1  UNL1       -0.2730
     34 N         -19.4820   58.9492   -7.0062 N.am    1  UNL1       -0.2825
     35 H         -19.4825   58.1894   -6.2883 H       1  UNL1        0.1549
     36 C         -19.5709   60.3092   -6.5481 C.ar    1  UNL1        0.0535
     37 C         -19.8898   60.6173   -5.2145 C.ar    1  UNL1        0.0353
     38 C         -19.9885   61.9544   -4.8212 C.ar    1  UNL1        0.1002
     39 N         -19.7911   62.9488   -5.7266 N.ar    1  UNL1       -0.2422
     40 C         -19.4997   62.6801   -7.0266 C.ar    1  UNL1        0.1002
     41 C         -19.3930   61.3569   -7.4619 C.ar    1  UNL1        0.0353
     42 C         -18.3464   56.4407   -7.6970 C.3     1  UNL1        0.0569
     43 C         -18.8931   55.1110   -7.2513 C.ar    1  UNL1       -0.0017
     44 C         -19.9927   54.9018   -6.4234 C.ar    1  UNL1        0.0681
     45 N         -20.2391   53.5791   -6.2887 N.ar    1  UNL1       -0.3523
     46 C         -19.3039   52.9500   -7.0206 C.ar    1  UNL1        0.0563
     47 C         -19.1617   51.5754   -7.2062 C.ar    1  UNL1        0.0170
     48 C         -18.1124   51.1275   -8.0289 C.ar    1  UNL1        0.0015
     49 C         -17.2334   52.0522   -8.6340 C.ar    1  UNL1        0.0001
     50 C         -17.3983   53.4333   -8.4258 C.ar    1  UNL1        0.0012
     51 C         -18.4579   53.8500   -7.6176 C.ar    1  UNL1        0.0131
     52 H         -21.0074   53.1401   -5.7342 H       1  UNL1        0.1660
@<TRIPOS>BOND
     1    25    26    1
     2    26    24    1
     3    24    14    1
     4    14    15   ar
     5    15    16   ar
     6    16     8    1
     7     8     9    1
     8     9    10    1
     9    10    11    1
    10    11     1    1
    11     1     2   ar
    12     2     3   ar
    13     3     4   ar
    14     4    27    1
    15    27    28    2
    16    27    29   am
    17    29    31    1
    18    31    42    1
    19    42    43    1
    20    43    44   ar
    21    44    45   ar
    22    45    46   ar
    23    46    47   ar
    24    47    48   ar
    25    48    49   ar
    26    49    50   ar
    27    50    51   ar
    28    31    32    1
    29    32    33    2
    30    32    34   am
    31    34    36    1
    32    36    37   ar
    33    37    38   ar
    34    38    39   ar
    35    39    40   ar
    36    40    41   ar
    37     4     5   ar
    38     5     6    1
    39     5     7   ar
    40    11    12    1
    41    12    13    1
    42    16    17   ar
    43    17    18   ar
    44    18    19   ar
    45    19    20    1
    46    20    21    1
    47    20    22    1
    48    20    23    1
    49    19    14   ar
    50    13     8    1
    51     7     1   ar
    52    51    43   ar
    53    41    36   ar
    54    51    46   ar
    55    29    30    1
    56    45    52    1
    57    34    35    1
@<TRIPOS>MOLECULE
*****
 52 57 0 0 0
SMALL
GASTEIGER

@<TRIPOS>ATOM
      1 C         -25.5381   49.9066   -8.8627 C.ar    1  UNL1        0.0502
      2 C         -26.6306   49.6816   -9.7129 C.ar    1  UNL1        0.0148
      3 C         -27.3883   48.5140   -9.5966 C.ar    1  UNL1        0.0080
      4 C         -27.0639   47.5392   -8.6360 C.ar    1  UNL1        0.0808
      5 C         -25.9633   47.7687   -7.7821 C.ar    1  UNL1        0.1457
      6 F         -25.6336   46.8937   -6.8000 F       1  UNL1       -0.2040
      7 C         -25.2117   48.9415   -7.9003 C.ar    1  UNL1        0.0443
      8 N         -23.0917   53.2235   -9.6546 N.pl3   1  UNL1       -0.3041
      9 C         -22.4751   51.9666   -9.2141 C.3     1  UNL1        0.1122
     10 C         -23.4462   51.1979   -8.3206 C.3     1  UNL1        0.1122
     11 N         -24.7606   51.1139   -8.9685 N.pl3   1  UNL1       -0.3040
     12 C         -25.3837   52.3635   -9.4212 C.3     1  UNL1        0.1122
     13 C         -24.4089   53.1527  -10.2985 C.3     1  UNL1        0.1122
     14 C         -20.2478   55.6380   -9.1968 C.ar    1  UNL1        0.0124
     15 C         -21.0351   54.4741   -9.1406 C.ar    1  UNL1        0.0126
     16 C         -22.3016   54.4249   -9.7348 C.ar    1  UNL1        0.0477
     17 C         -22.7894   55.5565  -10.3968 C.ar    1  UNL1        0.0144
     18 C         -22.0204   56.7171  -10.4741 C.ar    1  UNL1        0.0049
     19 C         -20.7416   56.7827   -9.8846 C.ar    1  UNL1        0.0699
     20 C         -19.9290   58.0587  -10.0089 C.3     1  UNL1        0.4184
     21 F         -20.7204   59.1451  -10.3419 F       1  UNL1       -0.1659
     22 F         -18.9747   57.9093  -10.9991 F       1  UNL1       -0.1659
     23 F         -19.3076   58.3397   -8.8059 F       1  UNL1       -0.1659
     24 C         -18.8943   55.5949   -8.5132 C.3     1  UNL1        0.1687
     25 C         -18.3064   56.8629   -6.6643 C.3     1  UNL1        0.1746
     26 O         -19.0309   55.7378   -7.1119 O.3     1  UNL1       -0.3463
     27 C         -27.9144   46.3278   -8.5130 C.2     1  UNL1        0.2483
     28 O         -27.8049   45.4080   -9.3696 O.2     1  UNL1       -0.2701
     29 N         -28.8510   46.1795   -7.4344 N.am    1  UNL1       -0.2945
     30 H         -28.6970   46.7442   -6.5696 H       1  UNL1        0.1501
     31 C         -29.9352   45.1863   -7.4729 C.3     1  UNL1        0.1535
     32 C         -30.4320   44.8553   -6.0842 C.2     1  UNL1        0.2443
     33 O         -31.4451   44.1185   -5.9342 O.2     1  UNL1       -0.2730
     34 N         -29.6848   45.2987   -4.9400 N.am    1  UNL1       -0.2825
     35 H         -28.7075   45.6346   -5.0977 H       1  UNL1        0.1549
     36 C         -30.1514   45.1954   -3.5839 C.ar    1  UNL1        0.0535
     37 C         -31.0171   44.1646   -3.1800 C.ar    1  UNL1        0.0353
     38 C         -31.4633   44.1189   -1.8567 C.ar    1  UNL1        0.1002
     39 N         -31.0731   45.0735   -0.9712 N.ar    1  UNL1       -0.2422
     40 C         -30.2515   46.0919   -1.3387 C.ar    1  UNL1        0.1002
     41 C         -29.7834   46.1757   -2.6523 C.ar    1  UNL1        0.0353
     42 C         -31.0971   45.6493   -8.3803 C.3     1  UNL1        0.0569
     43 C         -31.1908   47.1464   -8.5057 C.ar    1  UNL1       -0.0017
     44 C         -31.5074   48.0453   -7.4909 C.ar    1  UNL1        0.0681
     45 N         -31.4326   49.3170   -7.9445 N.ar    1  UNL1       -0.3523
     46 C         -31.0753   49.2304   -9.2371 C.ar    1  UNL1        0.0563
     47 C         -30.8535   50.2839  -10.1233 C.ar    1  UNL1        0.0170
     48 C         -30.4712   49.9673  -11.4394 C.ar    1  UNL1        0.0015
     49 C         -30.3289   48.6204  -11.8384 C.ar    1  UNL1        0.0001
     50 C         -30.5631   47.5778  -10.9241 C.ar    1  UNL1        0.0012
     51 C         -30.9258   47.9217   -9.6203 C.ar    1  UNL1        0.0131
     52 H         -31.6092   50.1875   -7.3955 H       1  UNL1        0.1660
@<TRIPOS>BOND
     1    25    26    1
     2    26    24    1
     3    24    14    1
     4    14    15   ar
     5    15    16   ar
     6    16     8    1
     7     8     9    1
     8     9    10    1
     9    10    11    1
    10    11     1    1
    11     1     2   ar
    12     2     3   ar
    13     3     4   ar
    14     4    27    1
    15    27    28    2
    16    27    29   am
    17    29    31    1
    18    31    42    1
    19    42    43    1
    20    43    44   ar
    21    44    45   ar
    22    45    46   ar
    23    46    47   ar
    24    47    48   ar
    25    48    49   ar
    26    49    50   ar
    27    50    51   ar
    28    31    32    1
    29    32    33    2
    30    32    34   am
    31    34    36    1
    32    36    37   ar
    33    37    38   ar
    34    38    39   ar
    35    39    40   ar
    36    40    41   ar
    37     4     5   ar
    38     5     6    1
    39     5     7   ar
    40    11    12    1
    41    12    13    1
    42    16    17   ar
    43    17    18   ar
    44    18    19   ar
    45    19    20    1
    46    20    21    1
    47    20    22    1
    48    20    23    1
    49    19    14   ar
    50    13     8    1
    51     7     1   ar
    52    51    43   ar
    53    41    36   ar
    54    51    46   ar
    55    29    30    1
    56    45    52    1
    57    34    35    1
