@<TRIPOS>MOLECULE
*****
 47 52 0 0 0
SMALL
GASTEIGER

@<TRIPOS>ATOM
      1 C          60.6827   89.6394    9.2287 C.ar    1  UNL1        0.0661
      2 C          60.7304   90.3695   10.4255 C.ar    1  UNL1        0.1146
      3 N          60.5653   89.7474   11.6197 N.ar    1  UNL1       -0.2279
      4 C          60.3355   88.4113   11.7142 C.ar    1  UNL1        0.1315
      5 C          60.2980   87.6367   10.5459 C.ar    1  UNL1        0.0313
      6 C          60.4826   88.2390    9.2867 C.ar    1  UNL1       -0.0047
      7 N          60.1790   87.8074   13.0118 N.pl3   1  UNL1       -0.2933
      8 C          59.8569   86.3813   13.1605 C.3     1  UNL1        0.0923
      9 C          60.8231   85.7090   14.1486 C.3     1  UNL1        0.0252
     10 C          61.2418   86.6348   15.3254 C.3     1  UNL1        0.0472
     11 C          60.2806   87.8283   15.4966 C.3     1  UNL1        0.0252
     12 C          60.2359   88.6618   14.2071 C.3     1  UNL1        0.0923
     13 C          61.3919   85.8492   16.6375 C.3     1  UNL1        0.2054
     14 O          62.7233   85.3538   16.7726 O.3     1  UNL1       -0.4755
     15 C          63.4188   84.6610   15.7712 C.ar    1  UNL1        0.1388
     16 C          64.4540   85.2529   15.0245 C.ar    1  UNL1        0.0369
     17 C          65.1154   84.5190   14.0378 C.ar    1  UNL1        0.0033
     18 C          64.7544   83.1936   13.7856 C.ar    1  UNL1        0.0066
     19 C          63.7224   82.5856   14.5219 C.ar    1  UNL1        0.0785
     20 C          63.0612   83.3316   15.5139 C.ar    1  UNL1        0.0433
     21 C          63.3346   81.1820   14.2599 C.2     1  UNL1        0.3381
     22 O          62.6261   80.8913   13.2581 O.2     1  UNL1       -0.2451
     23 O          63.7491   80.1671   15.1188 O.3     1  UNL1       -0.4771
     24 H          63.4891   79.2029   14.9486 H       1  UNL1        0.2954
     25 C          59.7503   90.2610    6.9679 C.2     1  UNL1        0.2839
     26 O          58.6532   89.6949    7.2231 O.2     1  UNL1       -0.2665
     27 N          60.7741   90.3308    7.9722 N.am    1  UNL1       -0.2769
     28 H          61.6202   90.9154    7.7885 H       1  UNL1        0.1553
     29 C          57.5402   91.5834    5.0611 C.3     1  UNL1        0.0345
     30 C          59.0125   91.4537    4.8100 C.ar    1  UNL1        0.0202
     31 C          59.9746   90.8757    5.6457 C.ar    1  UNL1        0.1946
     32 O          61.1669   90.9499    5.0813 O.2     1  UNL1       -0.4492
     33 C          61.0279   91.5474    3.9232 C.ar    1  UNL1        0.1452
     34 C          62.0246   91.8366    2.9979 C.ar    1  UNL1        0.0375
     35 C          61.6533   92.4909    1.8106 C.ar    1  UNL1        0.0031
     36 C          60.2988   92.8446    1.5665 C.ar    1  UNL1        0.0002
     37 C          59.3145   92.5312    2.5347 C.ar    1  UNL1        0.0028
     38 C          59.7186   91.8811    3.7018 C.ar    1  UNL1        0.0337
     39 C          59.9185   93.5359    0.3085 C.ar    1  UNL1        0.0000
     40 C          58.5644   93.6706   -0.0531 C.ar    1  UNL1        0.0000
     41 C          58.2092   94.3221   -1.2382 C.ar    1  UNL1        0.0000
     42 C          59.1981   94.8462   -2.0736 C.ar    1  UNL1        0.0000
     43 C          60.5447   94.7196   -1.7258 C.ar    1  UNL1        0.0000
     44 C          60.9059   94.0683   -0.5423 C.ar    1  UNL1        0.0000
     45 C          60.4714   87.3782    8.0283 C.3     1  UNL1        0.0237
     46 C          59.0754   86.7956    7.7847 C.3     1  UNL1        0.0047
     47 C          61.5296   86.2672    8.0893 C.3     1  UNL1        0.0047
@<TRIPOS>BOND
     1    29    30    1
     2    30    31   ar
     3    31    25    1
     4    25    26    2
     5    25    27   am
     6    27     1    1
     7     1     2   ar
     8     2     3   ar
     9     3     4   ar
    10     4     7    1
    11     7     8    1
    12     8     9    1
    13     9    10    1
    14    10    13    1
    15    13    14    1
    16    14    15    1
    17    15    16   ar
    18    16    17   ar
    19    17    18   ar
    20    18    19   ar
    21    19    21    1
    22    21    22    2
    23    21    23    1
    24    19    20   ar
    25    10    11    1
    26    11    12    1
    27     4     5   ar
    28     5     6   ar
    29     6    45    1
    30    45    46    1
    31    45    47    1
    32    31    32   ar
    33    32    33   ar
    34    33    34   ar
    35    34    35   ar
    36    35    36   ar
    37    36    39    1
    38    39    40   ar
    39    40    41   ar
    40    41    42   ar
    41    42    43   ar
    42    43    44   ar
    43    36    37   ar
    44    37    38   ar
    45    38    30   ar
    46     6     1   ar
    47    38    33   ar
    48    12     7    1
    49    44    39   ar
    50    20    15   ar
    51    27    28    1
    52    23    24    1
@<TRIPOS>MOLECULE
*****
 47 52 0 0 0
SMALL
GASTEIGER

@<TRIPOS>ATOM
      1 C          61.8802   87.3859   10.8809 C.ar    1  UNL1        0.0661
      2 C          62.2059   86.9173    9.5995 C.ar    1  UNL1        0.1146
      3 N          61.4038   86.0243    8.9674 N.ar    1  UNL1       -0.2279
      4 C          60.2717   85.5367    9.5396 C.ar    1  UNL1        0.1315
      5 C          59.8952   85.9901   10.8120 C.ar    1  UNL1        0.0313
      6 C          60.6892   86.9304   11.4959 C.ar    1  UNL1       -0.0047
      7 N          59.4559   84.5985    8.8134 N.pl3   1  UNL1       -0.2933
      8 C          59.9937   83.8280    7.6834 C.3     1  UNL1        0.0923
      9 C          59.6803   82.3329    7.8506 C.3     1  UNL1        0.0252
     10 C          58.2973   82.0644    8.5083 C.3     1  UNL1        0.0472
     11 C          57.3711   83.2953    8.4380 C.3     1  UNL1        0.0252
     12 C          58.0268   84.4924    9.1427 C.3     1  UNL1        0.0923
     13 C          57.6178   80.8227    7.9101 C.3     1  UNL1        0.2054
     14 O          57.3752   79.8494    8.9252 O.3     1  UNL1       -0.4755
     15 C          57.8926   79.9130   10.2270 C.ar    1  UNL1        0.1388
     16 C          58.1654   78.7610   10.9872 C.ar    1  UNL1        0.0369
     17 C          58.6804   78.8791   12.2798 C.ar    1  UNL1        0.0033
     18 C          58.9279   80.1403   12.8262 C.ar    1  UNL1        0.0066
     19 C          58.6615   81.3025   12.0812 C.ar    1  UNL1        0.0785
     20 C          58.1429   81.1750   10.7803 C.ar    1  UNL1        0.0433
     21 C          58.9213   82.6418   12.6539 C.2     1  UNL1        0.3381
     22 O          60.0039   82.8806   13.2548 O.2     1  UNL1       -0.2451
     23 O          57.9711   83.6528   12.5345 O.3     1  UNL1       -0.4771
     24 H          58.1391   84.5733   12.9230 H       1  UNL1        0.2954
     25 C          62.6998   89.6953   11.4826 C.2     1  UNL1        0.2839
     26 O          61.7153   90.2348   10.9089 O.2     1  UNL1       -0.2665
     27 N          62.7877   88.2646   11.5663 N.am    1  UNL1       -0.2769
     28 H          63.5377   87.8401   12.1567 H       1  UNL1        0.1553
     29 C          64.3860   89.0448   14.1288 C.3     1  UNL1        0.0345
     30 C          64.4882   90.2530   13.2472 C.ar    1  UNL1        0.0202
     31 C          63.7500   90.5331   12.0919 C.ar    1  UNL1        0.1946
     32 O          64.1246   91.6952   11.5869 O.2     1  UNL1       -0.4492
     33 C          65.0684   92.1825   12.3544 C.ar    1  UNL1        0.1452
     34 C          65.7499   93.3839   12.1944 C.ar    1  UNL1        0.0375
     35 C          66.7353   93.7150   13.1404 C.ar    1  UNL1        0.0031
     36 C          67.0238   92.8454   14.2268 C.ar    1  UNL1        0.0002
     37 C          66.3062   91.6316   14.3534 C.ar    1  UNL1        0.0028
     38 C          65.3346   91.3350   13.3962 C.ar    1  UNL1        0.0337
     39 C          68.0672   93.2057   15.2199 C.ar    1  UNL1        0.0000
     40 C          68.7702   92.2033   15.9153 C.ar    1  UNL1        0.0000
     41 C          69.7523   92.5455   16.8499 C.ar    1  UNL1        0.0000
     42 C          70.0444   93.8880   17.1002 C.ar    1  UNL1        0.0000
     43 C          69.3547   94.8917   16.4166 C.ar    1  UNL1        0.0000
     44 C          68.3708   94.5554   15.4816 C.ar    1  UNL1        0.0000
     45 C          60.2493   87.4379   12.8647 C.3     1  UNL1        0.0237
     46 C          60.1372   86.2786   13.8603 C.3     1  UNL1        0.0047
     47 C          58.9331   88.2246   12.7840 C.3     1  UNL1        0.0047
@<TRIPOS>BOND
     1    29    30    1
     2    30    31   ar
     3    31    25    1
     4    25    26    2
     5    25    27   am
     6    27     1    1
     7     1     2   ar
     8     2     3   ar
     9     3     4   ar
    10     4     7    1
    11     7     8    1
    12     8     9    1
    13     9    10    1
    14    10    13    1
    15    13    14    1
    16    14    15    1
    17    15    16   ar
    18    16    17   ar
    19    17    18   ar
    20    18    19   ar
    21    19    21    1
    22    21    22    2
    23    21    23    1
    24    19    20   ar
    25    10    11    1
    26    11    12    1
    27     4     5   ar
    28     5     6   ar
    29     6    45    1
    30    45    46    1
    31    45    47    1
    32    31    32   ar
    33    32    33   ar
    34    33    34   ar
    35    34    35   ar
    36    35    36   ar
    37    36    39    1
    38    39    40   ar
    39    40    41   ar
    40    41    42   ar
    41    42    43   ar
    42    43    44   ar
    43    36    37   ar
    44    37    38   ar
    45    38    30   ar
    46     6     1   ar
    47    38    33   ar
    48    12     7    1
    49    44    39   ar
    50    20    15   ar
    51    27    28    1
    52    23    24    1
