@<TRIPOS>MOLECULE
*****
 54 60 0 0 0
SMALL
GASTEIGER

@<TRIPOS>ATOM
      1 C           6.1041   74.8118   25.8951 C.ar    1  UNL1        0.0360
      2 C           5.6132   76.1185   26.0549 C.ar    1  UNL1        0.0043
      3 C           5.1932   76.5666   27.3109 C.ar    1  UNL1        0.0148
      4 C           5.2647   75.7214   28.4265 C.ar    1  UNL1        0.0516
      5 C           5.7002   74.3978   28.2577 C.ar    1  UNL1        0.0148
      6 C           6.1260   73.9507   27.0051 C.ar    1  UNL1        0.0043
      7 N           5.5879   73.8138   21.1552 N.ar    1  UNL1       -0.2357
      8 N           6.4403   73.3849   20.2295 N.ar    1  UNL1       -0.1663
      9 C           7.6437   73.1717   20.8183 C.ar    1  UNL1        0.1260
     10 C           7.5344   73.4843   22.1613 C.ar    1  UNL1        0.0880
     11 C           8.4057   73.4843   23.2541 C.ar    1  UNL1        0.1380
     12 N           7.9032   73.9236   24.4485 N.ar    1  UNL1       -0.2117
     13 C           6.6047   74.3495   24.5839 C.ar    1  UNL1        0.1653
     14 N           5.7671   74.3346   23.5037 N.ar    1  UNL1       -0.2079
     15 C           6.2510   73.8965   22.3190 C.ar    1  UNL1        0.1652
     16 C           3.8152   78.3869   19.8709 C.2     1  UNL1        0.4050
     17 O           3.5969   79.2371   20.7781 O.2     1  UNL1       -0.2262
     18 N           4.0907   77.0129   20.2140 N.am    1  UNL1       -0.2459
     19 C           4.4618   76.0602   19.1580 C.3     1  UNL1        0.0987
     20 C           3.9374   74.6491   19.4674 C.3     1  UNL1        0.0461
     21 C           4.1896   74.2014   20.9213 C.3     1  UNL1        0.1102
     22 C           3.7419   75.2752   21.9231 C.3     1  UNL1        0.0461
     23 C           4.3590   76.6386   21.6099 C.3     1  UNL1        0.0987
     24 C           4.9547   79.1749   17.8178 C.3     1  UNL1        0.2573
     25 O           3.7868   78.7819   18.5285 O.3     1  UNL1       -0.4304
     26 N           9.7714   73.0334   23.1702 N.pl3   1  UNL1       -0.2879
     27 C          10.0939   71.7762   22.4890 C.3     1  UNL1        0.1242
     28 C          11.3655   71.9584   21.6551 C.3     1  UNL1        0.1636
     29 O          12.4156   72.4810   22.4476 O.3     1  UNL1       -0.3501
     30 C          12.0831   73.7855   22.8858 C.3     1  UNL1        0.1636
     31 C          10.8699   73.7539   23.8205 C.3     1  UNL1        0.1242
     32 N           4.8951   76.2239   29.7206 N.am    1  UNL1       -0.2681
     33 C           5.8105   76.3911   30.8173 C.2     1  UNL1        0.3082
     34 O           5.3714   76.3089   31.9948 O.2     1  UNL1       -0.2522
     35 N           7.2073   76.6692   30.6124 N.am    1  UNL1       -0.2683
     36 H           3.8971   76.4910   29.8782 H       1  UNL1        0.1564
     37 H           7.8541   76.5112   31.4175 H       1  UNL1        0.1564
     38 C           7.7409   77.2675   29.4175 C.ar    1  UNL1        0.0475
     39 C           7.1584   78.4431   28.9149 C.ar    1  UNL1        0.0141
     40 C           7.6302   79.0270   27.7417 C.ar    1  UNL1       -0.0030
     41 C           8.7229   78.4720   27.0687 C.ar    1  UNL1       -0.0210
     42 C           9.3352   77.3190   27.5782 C.ar    1  UNL1       -0.0073
     43 C           8.8459   76.6875   28.7401 C.ar    1  UNL1       -0.0093
     44 C           9.5250   75.4270   29.2685 C.3     1  UNL1        0.0236
     45 C          10.7449   75.0856   28.4081 C.3     1  UNL1        0.0047
     46 C           8.5720   74.2235   29.3613 C.3     1  UNL1        0.0047
     47 C           9.1813   79.0555   25.7596 C.3     1  UNL1        0.0437
     48 C           9.0261   78.0268   24.6363 C.3     1  UNL1        0.0769
     49 N           9.9566   78.3486   23.5295 N.3     1  UNL1       -0.2681
     50 C          10.2896   77.1668   22.7040 C.3     1  UNL1        0.1046
     51 C           9.1653   76.8209   21.7080 C.3     1  UNL1        0.1595
     52 O           8.8185   77.9381   20.9142 O.3     1  UNL1       -0.3508
     53 C           8.3572   78.9855   21.7426 C.3     1  UNL1        0.1595
     54 C           9.4739   79.4556   22.6812 C.3     1  UNL1        0.1046
@<TRIPOS>BOND
     1    24    25    1
     2    25    16    1
     3    16    17    2
     4    16    18   am
     5    18    19    1
     6    19    20    1
     7    20    21    1
     8    21     7    1
     9     7     8   ar
    10     8     9   ar
    11     9    10   ar
    12    10    11   ar
    13    11    26    1
    14    26    27    1
    15    27    28    1
    16    28    29    1
    17    29    30    1
    18    30    31    1
    19    11    12   ar
    20    12    13   ar
    21    13     1    1
    22     1     2   ar
    23     2     3   ar
    24     3     4   ar
    25     4    32    1
    26    32    33   am
    27    33    34    2
    28    33    35   am
    29    35    38    1
    30    38    39   ar
    31    39    40   ar
    32    40    41   ar
    33    41    47    1
    34    47    48    1
    35    48    49    1
    36    49    50    1
    37    50    51    1
    38    51    52    1
    39    52    53    1
    40    53    54    1
    41    41    42   ar
    42    42    43   ar
    43    43    44    1
    44    44    45    1
    45    44    46    1
    46     4     5   ar
    47     5     6   ar
    48    13    14   ar
    49    14    15   ar
    50    21    22    1
    51    22    23    1
    52    23    18    1
    53    15     7   ar
    54    15    10   ar
    55    31    26    1
    56     6     1   ar
    57    43    38   ar
    58    54    49    1
    59    32    36    1
    60    35    37    1
@<TRIPOS>MOLECULE
*****
 54 60 0 0 0
SMALL
GASTEIGER

@<TRIPOS>ATOM
      1 C           6.2998   75.0910   25.8326 C.ar    1  UNL1        0.0360
      2 C           6.2734   76.4784   26.0531 C.ar    1  UNL1        0.0043
      3 C           5.9003   76.9885   27.3001 C.ar    1  UNL1        0.0148
      4 C           5.5565   76.1228   28.3472 C.ar    1  UNL1        0.0516
      5 C           5.5263   74.7394   28.1118 C.ar    1  UNL1        0.0148
      6 C           5.9049   74.2281   26.8686 C.ar    1  UNL1        0.0043
      7 N           5.6063   73.8040   21.1859 N.ar    1  UNL1       -0.2357
      8 N           6.4214   73.3084   20.2599 N.ar    1  UNL1       -0.1663
      9 C           7.6429   73.1189   20.8186 C.ar    1  UNL1        0.1260
     10 C           7.5843   73.5162   22.1422 C.ar    1  UNL1        0.0880
     11 C           8.4938   73.5748   23.2017 C.ar    1  UNL1        0.1380
     12 N           8.0381   74.0937   24.3830 N.ar    1  UNL1       -0.2117
     13 C           6.7492   74.5419   24.5365 C.ar    1  UNL1        0.1653
     14 N           5.8737   74.4688   23.4893 N.ar    1  UNL1       -0.2079
     15 C           6.3111   73.9520   22.3183 C.ar    1  UNL1        0.1652
     16 C           3.8179   78.3593   19.8608 C.2     1  UNL1        0.4050
     17 O           3.6228   79.2263   20.7574 O.2     1  UNL1       -0.2262
     18 N           4.0972   76.9908   20.2221 N.am    1  UNL1       -0.2459
     19 C           4.4414   76.0182   19.1751 C.3     1  UNL1        0.0987
     20 C           3.9201   74.6146   19.5215 C.3     1  UNL1        0.0461
     21 C           4.2041   74.1920   20.9770 C.3     1  UNL1        0.1102
     22 C           3.7826   75.2850   21.9694 C.3     1  UNL1        0.0461
     23 C           4.3963   76.6405   21.6180 C.3     1  UNL1        0.0987
     24 C           4.9065   79.1445   17.7791 C.3     1  UNL1        0.2573
     25 O           3.7600   78.7305   18.5126 O.3     1  UNL1       -0.4304
     26 N           9.8516   73.1042   23.0988 N.pl3   1  UNL1       -0.2879
     27 C          10.1394   71.8091   22.4754 C.3     1  UNL1        0.1242
     28 C          11.3852   71.9322   21.5932 C.3     1  UNL1        0.1636
     29 O          12.4654   72.4834   22.3234 O.3     1  UNL1       -0.3501
     30 C          12.1604   73.8130   22.7020 C.3     1  UNL1        0.1636
     31 C          10.9776   73.8450   23.6749 C.3     1  UNL1        0.1242
     32 N           5.2449   76.6645   29.6408 N.am    1  UNL1       -0.2681
     33 C           5.9424   76.3245   30.8517 C.2     1  UNL1        0.3082
     34 O           5.3258   76.3884   31.9480 O.2     1  UNL1       -0.2522
     35 N           7.3272   75.9334   30.8530 N.am    1  UNL1       -0.2683
     36 H           4.4634   77.3549   29.7099 H       1  UNL1        0.1564
     37 H           7.6907   75.4474   31.7033 H       1  UNL1        0.1564
     38 C           8.2620   76.2827   29.8163 C.ar    1  UNL1        0.0475
     39 C           8.7818   75.2744   28.9873 C.ar    1  UNL1        0.0141
     40 C           9.7142   75.5759   27.9976 C.ar    1  UNL1       -0.0030
     41 C          10.1150   76.8988   27.7868 C.ar    1  UNL1       -0.0210
     42 C           9.5780   77.9186   28.5839 C.ar    1  UNL1       -0.0073
     43 C           8.6660   77.6297   29.6198 C.ar    1  UNL1       -0.0093
     44 C           8.1038   78.7580   30.4799 C.3     1  UNL1        0.0236
     45 C           7.2627   79.7064   29.6208 C.3     1  UNL1        0.0047
     46 C           9.1919   79.5348   31.2401 C.3     1  UNL1        0.0047
     47 C          11.1810   77.2140   26.7727 C.3     1  UNL1        0.0437
     48 C          10.6274   77.0565   25.3539 C.3     1  UNL1        0.0769
     49 N           9.4815   77.9745   25.1580 N.3     1  UNL1       -0.2681
     50 C           9.8668   79.3984   25.2720 C.3     1  UNL1        0.1046
     51 C          10.5498   79.9177   23.9915 C.3     1  UNL1        0.1595
     52 O           9.7532   79.6767   22.8487 O.3     1  UNL1       -0.3508
     53 C           9.5466   78.2872   22.6973 C.3     1  UNL1        0.1595
     54 C           8.7640   77.7302   23.8915 C.3     1  UNL1        0.1046
@<TRIPOS>BOND
     1    24    25    1
     2    25    16    1
     3    16    17    2
     4    16    18   am
     5    18    19    1
     6    19    20    1
     7    20    21    1
     8    21     7    1
     9     7     8   ar
    10     8     9   ar
    11     9    10   ar
    12    10    11   ar
    13    11    26    1
    14    26    27    1
    15    27    28    1
    16    28    29    1
    17    29    30    1
    18    30    31    1
    19    11    12   ar
    20    12    13   ar
    21    13     1    1
    22     1     2   ar
    23     2     3   ar
    24     3     4   ar
    25     4    32    1
    26    32    33   am
    27    33    34    2
    28    33    35   am
    29    35    38    1
    30    38    39   ar
    31    39    40   ar
    32    40    41   ar
    33    41    47    1
    34    47    48    1
    35    48    49    1
    36    49    50    1
    37    50    51    1
    38    51    52    1
    39    52    53    1
    40    53    54    1
    41    41    42   ar
    42    42    43   ar
    43    43    44    1
    44    44    45    1
    45    44    46    1
    46     4     5   ar
    47     5     6   ar
    48    13    14   ar
    49    14    15   ar
    50    21    22    1
    51    22    23    1
    52    23    18    1
    53    15     7   ar
    54    15    10   ar
    55    31    26    1
    56     6     1   ar
    57    43    38   ar
    58    54    49    1
    59    32    36    1
    60    35    37    1
@<TRIPOS>MOLECULE
*****
 54 60 0 0 0
SMALL
GASTEIGER

@<TRIPOS>ATOM
      1 C           6.0542   74.9380   25.8879 C.ar    1  UNL1        0.0360
      2 C           5.5785   76.2486   26.0616 C.ar    1  UNL1        0.0043
      3 C           5.0976   76.6664   27.3061 C.ar    1  UNL1        0.0148
      4 C           5.0921   75.7864   28.3969 C.ar    1  UNL1        0.0516
      5 C           5.5127   74.4603   28.2107 C.ar    1  UNL1        0.0148
      6 C           5.9993   74.0434   26.9698 C.ar    1  UNL1        0.0043
      7 N           5.7223   73.8625   21.1485 N.ar    1  UNL1       -0.2357
      8 N           6.6261   73.4951   20.2454 N.ar    1  UNL1       -0.1663
      9 C           7.8295   73.3835   20.8615 C.ar    1  UNL1        0.1260
     10 C           7.6665   73.6976   22.1986 C.ar    1  UNL1        0.0880
     11 C           8.5110   73.7762   23.3094 C.ar    1  UNL1        0.1380
     12 N           7.9493   74.1840   24.4886 N.ar    1  UNL1       -0.2117
     13 C           6.6184   74.5061   24.5923 C.ar    1  UNL1        0.1653
     14 N           5.8084   74.4155   23.4950 N.ar    1  UNL1       -0.2079
     15 C           6.3512   74.0075   22.3251 C.ar    1  UNL1        0.1652
     16 C           3.6190   78.2706   19.7887 C.2     1  UNL1        0.4050
     17 O           3.3134   79.1065   20.6840 O.2     1  UNL1       -0.2262
     18 N           3.9956   76.9254   20.1490 N.am    1  UNL1       -0.2459
     19 C           4.4649   75.9985   19.1091 C.3     1  UNL1        0.0987
     20 C           4.0482   74.5520   19.4188 C.3     1  UNL1        0.0461
     21 C           4.3030   74.1354   20.8814 C.3     1  UNL1        0.1102
     22 C           3.7490   75.1764   21.8644 C.3     1  UNL1        0.0461
     23 C           4.2620   76.5827   21.5534 C.3     1  UNL1        0.0987
     24 C           4.7378   79.1311   17.7534 C.3     1  UNL1        0.2573
     25 O           3.5888   78.6533   18.4428 O.3     1  UNL1       -0.4304
     26 N           9.9098   73.4349   23.2589 N.pl3   1  UNL1       -0.2879
     27 C          10.3345   72.1347   22.7320 C.3     1  UNL1        0.1242
     28 C          11.5807   72.3186   21.8610 C.3     1  UNL1        0.1636
     29 O          12.5870   73.0217   22.5657 O.3     1  UNL1       -0.3501
     30 C          12.1469   74.3378   22.8458 C.3     1  UNL1        0.1636
     31 C          10.9466   74.3202   23.7974 C.3     1  UNL1        0.1242
     32 N           4.6603   76.2564   29.6839 N.am    1  UNL1       -0.2681
     33 C           5.5138   76.3623   30.8367 C.2     1  UNL1        0.3082
     34 O           5.0045   76.2539   31.9834 O.2     1  UNL1       -0.2522
     35 N           6.9270   76.6081   30.7225 N.am    1  UNL1       -0.2683
     36 H           3.6620   76.5458   29.7926 H       1  UNL1        0.1564
     37 H           7.5211   76.4060   31.5576 H       1  UNL1        0.1564
     38 C           7.5450   77.2301   29.5815 C.ar    1  UNL1        0.0475
     39 C           7.0268   78.4400   29.0899 C.ar    1  UNL1        0.0141
     40 C           7.5814   79.0487   27.9667 C.ar    1  UNL1       -0.0030
     41 C           8.6938   78.4832   27.3361 C.ar    1  UNL1       -0.0210
     42 C           9.2420   77.2948   27.8370 C.ar    1  UNL1       -0.0073
     43 C           8.6691   76.6393   28.9463 C.ar    1  UNL1       -0.0093
     44 C           9.2798   75.3407   29.4659 C.3     1  UNL1        0.0236
     45 C          10.5501   75.0044   28.6798 C.3     1  UNL1        0.0047
     46 C           8.2954   74.1594   29.4386 C.3     1  UNL1        0.0047
     47 C           9.2428   79.0967   26.0766 C.3     1  UNL1        0.0437
     48 C          10.7380   78.7939   25.9463 C.3     1  UNL1        0.0769
     49 N          11.2015   79.1337   24.5811 N.3     1  UNL1       -0.2681
     50 C          11.0517   80.5726   24.2708 C.3     1  UNL1        0.1046
     51 C          12.1727   81.4209   24.9029 C.3     1  UNL1        0.1595
     52 O          13.4509   80.9344   24.5452 O.3     1  UNL1       -0.3508
     53 C          13.6002   79.6067   25.0045 C.3     1  UNL1        0.1595
     54 C          12.5836   78.6869   24.3194 C.3     1  UNL1        0.1046
@<TRIPOS>BOND
     1    24    25    1
     2    25    16    1
     3    16    17    2
     4    16    18   am
     5    18    19    1
     6    19    20    1
     7    20    21    1
     8    21     7    1
     9     7     8   ar
    10     8     9   ar
    11     9    10   ar
    12    10    11   ar
    13    11    26    1
    14    26    27    1
    15    27    28    1
    16    28    29    1
    17    29    30    1
    18    30    31    1
    19    11    12   ar
    20    12    13   ar
    21    13     1    1
    22     1     2   ar
    23     2     3   ar
    24     3     4   ar
    25     4    32    1
    26    32    33   am
    27    33    34    2
    28    33    35   am
    29    35    38    1
    30    38    39   ar
    31    39    40   ar
    32    40    41   ar
    33    41    47    1
    34    47    48    1
    35    48    49    1
    36    49    50    1
    37    50    51    1
    38    51    52    1
    39    52    53    1
    40    53    54    1
    41    41    42   ar
    42    42    43   ar
    43    43    44    1
    44    44    45    1
    45    44    46    1
    46     4     5   ar
    47     5     6   ar
    48    13    14   ar
    49    14    15   ar
    50    21    22    1
    51    22    23    1
    52    23    18    1
    53    15     7   ar
    54    15    10   ar
    55    31    26    1
    56     6     1   ar
    57    43    38   ar
    58    54    49    1
    59    32    36    1
    60    35    37    1
@<TRIPOS>MOLECULE
*****
 54 60 0 0 0
SMALL
GASTEIGER

@<TRIPOS>ATOM
      1 C           4.7077   76.7631   23.9604 C.ar    1  UNL1        0.0360
      2 C           4.5818   75.4389   23.5078 C.ar    1  UNL1        0.0043
      3 C           3.7035   75.1292   22.4652 C.ar    1  UNL1        0.0148
      4 C           2.9447   76.1363   21.8534 C.ar    1  UNL1        0.0516
      5 C           3.0261   77.4494   22.3424 C.ar    1  UNL1        0.0148
      6 C           3.9077   77.7615   23.3796 C.ar    1  UNL1        0.0043
      7 N           8.9879   78.4624   25.5483 N.ar    1  UNL1       -0.2357
      8 N           9.4854   78.6448   26.7676 N.ar    1  UNL1       -0.1663
      9 C           8.5756   78.2069   27.6736 C.ar    1  UNL1        0.1260
     10 C           7.4688   77.7379   26.9895 C.ar    1  UNL1        0.0880
     11 C           6.2357   77.1901   27.3541 C.ar    1  UNL1        0.1380
     12 N           5.3668   76.8883   26.3411 N.ar    1  UNL1       -0.2117
     13 C           5.6762   77.1086   25.0215 C.ar    1  UNL1        0.1653
     14 N           6.8908   77.6387   24.6863 N.ar    1  UNL1       -0.2079
     15 C           7.7606   77.9353   25.6788 C.ar    1  UNL1        0.1652
     16 C          13.8778   79.5786   24.8083 C.2     1  UNL1        0.4050
     17 O          14.2806   80.7526   25.0382 O.2     1  UNL1       -0.2262
     18 N          12.4650   79.2877   24.7801 N.am    1  UNL1       -0.2459
     19 C          12.0117   77.8974   24.6317 C.3     1  UNL1        0.0987
     20 C          10.6987   77.8183   23.8370 C.3     1  UNL1        0.0461
     21 C           9.6406   78.8452   24.2883 C.3     1  UNL1        0.1102
     22 C          10.2364   80.2569   24.3847 C.3     1  UNL1        0.0461
     23 C          11.4947   80.2857   25.2526 C.3     1  UNL1        0.0987
     24 C          15.7700   78.6170   23.5317 C.3     1  UNL1        0.2573
     25 O          14.8081   78.5585   24.5781 O.3     1  UNL1       -0.4304
     26 N           5.8673   76.9243   28.7213 N.pl3   1  UNL1       -0.2879
     27 C           5.0584   77.8907   29.4697 C.3     1  UNL1        0.1242
     28 C           4.0132   77.1447   30.3043 C.3     1  UNL1        0.1636
     29 O           4.6255   76.1499   31.1039 O.3     1  UNL1       -0.3501
     30 C           5.2011   75.1558   30.2766 C.3     1  UNL1        0.1636
     31 C           6.3437   75.7383   29.4389 C.3     1  UNL1        0.1242
     32 N           2.1016   75.8087   20.7373 N.am    1  UNL1       -0.2681
     33 C           2.4608   76.0186   19.3606 C.2     1  UNL1        0.3082
     34 O           1.5478   76.2211   18.5171 O.2     1  UNL1       -0.2522
     35 N           3.8279   75.9845   18.9128 N.am    1  UNL1       -0.2683
     36 H           1.1666   75.3856   20.9345 H       1  UNL1        0.1564
     37 H           4.0410   76.4046   17.9803 H       1  UNL1        0.1564
     38 C           4.8847   75.2991   19.6085 C.ar    1  UNL1        0.0475
     39 C           4.9044   73.8943   19.6222 C.ar    1  UNL1        0.0141
     40 C           5.8944   73.2022   20.3154 C.ar    1  UNL1       -0.0030
     41 C           6.9115   73.8996   20.9743 C.ar    1  UNL1       -0.0210
     42 C           6.9233   75.3004   20.9394 C.ar    1  UNL1       -0.0073
     43 C           5.9062   76.0211   20.2803 C.ar    1  UNL1       -0.0093
     44 C           5.9372   77.5469   20.2658 C.3     1  UNL1        0.0236
     45 C           5.8846   78.0613   18.8244 C.3     1  UNL1        0.0047
     46 C           7.1513   78.1314   21.0070 C.3     1  UNL1        0.0047
     47 C           7.9342   73.1552   21.7893 C.3     1  UNL1        0.0437
     48 C           9.0902   74.0849   22.1683 C.3     1  UNL1        0.0769
     49 N           9.9669   73.4173   23.1581 N.3     1  UNL1       -0.2681
     50 C          10.5492   72.1578   22.6447 C.3     1  UNL1        0.1046
     51 C          11.7431   72.4131   21.7039 C.3     1  UNL1        0.1595
     52 O          12.7173   73.2326   22.3186 O.3     1  UNL1       -0.3508
     53 C          12.1483   74.4835   22.6469 C.3     1  UNL1        0.1595
     54 C          11.0255   74.3064   23.6749 C.3     1  UNL1        0.1046
@<TRIPOS>BOND
     1    24    25    1
     2    25    16    1
     3    16    17    2
     4    16    18   am
     5    18    19    1
     6    19    20    1
     7    20    21    1
     8    21     7    1
     9     7     8   ar
    10     8     9   ar
    11     9    10   ar
    12    10    11   ar
    13    11    26    1
    14    26    27    1
    15    27    28    1
    16    28    29    1
    17    29    30    1
    18    30    31    1
    19    11    12   ar
    20    12    13   ar
    21    13     1    1
    22     1     2   ar
    23     2     3   ar
    24     3     4   ar
    25     4    32    1
    26    32    33   am
    27    33    34    2
    28    33    35   am
    29    35    38    1
    30    38    39   ar
    31    39    40   ar
    32    40    41   ar
    33    41    47    1
    34    47    48    1
    35    48    49    1
    36    49    50    1
    37    50    51    1
    38    51    52    1
    39    52    53    1
    40    53    54    1
    41    41    42   ar
    42    42    43   ar
    43    43    44    1
    44    44    45    1
    45    44    46    1
    46     4     5   ar
    47     5     6   ar
    48    13    14   ar
    49    14    15   ar
    50    21    22    1
    51    22    23    1
    52    23    18    1
    53    15     7   ar
    54    15    10   ar
    55    31    26    1
    56     6     1   ar
    57    43    38   ar
    58    54    49    1
    59    32    36    1
    60    35    37    1
@<TRIPOS>MOLECULE
*****
 54 60 0 0 0
SMALL
GASTEIGER

@<TRIPOS>ATOM
      1 C           5.0317   76.6392   26.2336 C.ar    1  UNL1        0.0360
      2 C           5.0312   77.8886   26.8763 C.ar    1  UNL1        0.0043
      3 C           4.8711   77.9697   28.2628 C.ar    1  UNL1        0.0148
      4 C           4.7178   76.8063   29.0289 C.ar    1  UNL1        0.0516
      5 C           4.6601   75.5617   28.3825 C.ar    1  UNL1        0.0148
      6 C           4.8263   75.4786   26.9983 C.ar    1  UNL1        0.0043
      7 N           7.8361   76.8092   22.2542 N.ar    1  UNL1       -0.2357
      8 N           7.5836   76.5907   20.9674 N.ar    1  UNL1       -0.1663
      9 C           6.2620   76.3181   20.8284 C.ar    1  UNL1        0.1260
     10 C           5.6723   76.3657   22.0786 C.ar    1  UNL1        0.0880
     11 C           4.3809   76.1667   22.5747 C.ar    1  UNL1        0.1380
     12 N           4.2148   76.2631   23.9295 N.ar    1  UNL1       -0.2117
     13 C           5.2590   76.5406   24.7769 C.ar    1  UNL1        0.1653
     14 N           6.5130   76.7388   24.2700 N.ar    1  UNL1       -0.2079
     15 C           6.6883   76.6522   22.9316 C.ar    1  UNL1        0.1652
     16 C          11.6712   73.5704   22.9661 C.2     1  UNL1        0.4050
     17 O          11.6874   72.8585   24.0084 O.2     1  UNL1       -0.2262
     18 N          10.7331   74.6597   22.8449 N.am    1  UNL1       -0.2459
     19 C          10.6420   75.4035   21.5804 C.3     1  UNL1        0.0987
     20 C          10.3018   76.8823   21.8238 C.3     1  UNL1        0.0461
     21 C           9.1562   77.0945   22.8340 C.3     1  UNL1        0.1102
     22 C           9.3817   76.2791   24.1151 C.3     1  UNL1        0.0461
     23 C           9.6359   74.8021   23.8126 C.3     1  UNL1        0.0987
     24 C          12.4785   72.1359   21.1152 C.3     1  UNL1        0.2573
     25 O          12.5696   73.3003   21.9274 O.3     1  UNL1       -0.4304
     26 N           3.2483   75.8888   21.7288 N.pl3   1  UNL1       -0.2879
     27 C           2.1323   76.8361   21.6536 C.3     1  UNL1        0.1242
     28 C           1.6644   76.9604   20.2006 C.3     1  UNL1        0.1636
     29 O           1.3882   75.6854   19.6510 O.3     1  UNL1       -0.3501
     30 C           2.5798   74.9242   19.5810 C.3     1  UNL1        0.1636
     31 C           3.1236   74.6330   20.9832 C.3     1  UNL1        0.1242
     32 N           4.6261   76.9069   30.4591 N.am    1  UNL1       -0.2681
     33 C           5.6275   76.4248   31.3718 C.2     1  UNL1        0.3082
     34 O           5.2756   76.0608   32.5250 O.2     1  UNL1       -0.2522
     35 N           7.0206   76.3640   31.0169 N.am    1  UNL1       -0.2683
     36 H           3.7794   77.3641   30.8668 H       1  UNL1        0.1564
     37 H           7.6428   75.7653   31.6048 H       1  UNL1        0.1564
     38 C           7.6243   77.1711   29.9898 C.ar    1  UNL1        0.0475
     39 C           7.6065   78.5706   30.1121 C.ar    1  UNL1        0.0141
     40 C           8.1520   79.3798   29.1184 C.ar    1  UNL1       -0.0030
     41 C           8.7659   78.8059   28.0009 C.ar    1  UNL1       -0.0210
     42 C           8.8213   77.4106   27.8834 C.ar    1  UNL1       -0.0073
     43 C           8.2367   76.5741   28.8564 C.ar    1  UNL1       -0.0093
     44 C           8.3023   75.0574   28.6994 C.3     1  UNL1        0.0236
     45 C           9.6467   74.5324   29.2110 C.3     1  UNL1        0.0047
     46 C           8.0506   74.5903   27.2559 C.3     1  UNL1        0.0047
     47 C           9.2832   79.6791   26.8899 C.3     1  UNL1        0.0437
     48 C          10.6994   79.2522   26.4946 C.3     1  UNL1        0.0769
     49 N          10.9008   79.4661   25.0427 N.3     1  UNL1       -0.2681
     50 C          10.7624   80.8863   24.6520 C.3     1  UNL1        0.1046
     51 C          12.0255   81.7043   24.9856 C.3     1  UNL1        0.1595
     52 O          13.1833   81.1144   24.4287 O.3     1  UNL1       -0.3508
     53 C          13.3559   79.8151   24.9562 C.3     1  UNL1        0.1595
     54 C          12.1810   78.9158   24.5565 C.3     1  UNL1        0.1046
@<TRIPOS>BOND
     1    24    25    1
     2    25    16    1
     3    16    17    2
     4    16    18   am
     5    18    19    1
     6    19    20    1
     7    20    21    1
     8    21     7    1
     9     7     8   ar
    10     8     9   ar
    11     9    10   ar
    12    10    11   ar
    13    11    26    1
    14    26    27    1
    15    27    28    1
    16    28    29    1
    17    29    30    1
    18    30    31    1
    19    11    12   ar
    20    12    13   ar
    21    13     1    1
    22     1     2   ar
    23     2     3   ar
    24     3     4   ar
    25     4    32    1
    26    32    33   am
    27    33    34    2
    28    33    35   am
    29    35    38    1
    30    38    39   ar
    31    39    40   ar
    32    40    41   ar
    33    41    47    1
    34    47    48    1
    35    48    49    1
    36    49    50    1
    37    50    51    1
    38    51    52    1
    39    52    53    1
    40    53    54    1
    41    41    42   ar
    42    42    43   ar
    43    43    44    1
    44    44    45    1
    45    44    46    1
    46     4     5   ar
    47     5     6   ar
    48    13    14   ar
    49    14    15   ar
    50    21    22    1
    51    22    23    1
    52    23    18    1
    53    15     7   ar
    54    15    10   ar
    55    31    26    1
    56     6     1   ar
    57    43    38   ar
    58    54    49    1
    59    32    36    1
    60    35    37    1
@<TRIPOS>MOLECULE
*****
 54 60 0 0 0
SMALL
GASTEIGER

@<TRIPOS>ATOM
      1 C           5.6794   76.5094   26.1850 C.ar    1  UNL1        0.0360
      2 C           4.8434   76.0967   27.2363 C.ar    1  UNL1        0.0043
      3 C           4.9081   76.7306   28.4806 C.ar    1  UNL1        0.0148
      4 C           5.8007   77.7902   28.6920 C.ar    1  UNL1        0.0516
      5 C           6.6766   78.1654   27.6614 C.ar    1  UNL1        0.0148
      6 C           6.6088   77.5373   26.4159 C.ar    1  UNL1        0.0043
      7 N           7.3579   73.7436   22.5433 N.ar    1  UNL1       -0.2357
      8 N           6.8354   73.3822   21.3754 N.ar    1  UNL1       -0.1663
      9 C           5.6243   73.9788   21.2427 C.ar    1  UNL1        0.1260
     10 C           5.3846   74.7371   22.3743 C.ar    1  UNL1        0.0880
     11 C           4.3373   75.5470   22.8224 C.ar    1  UNL1        0.1380
     12 N           4.4709   76.1030   24.0655 N.ar    1  UNL1       -0.2117
     13 C           5.5765   75.8844   24.8500 C.ar    1  UNL1        0.1653
     14 N           6.5927   75.0945   24.3895 N.ar    1  UNL1       -0.2079
     15 C           6.4746   74.5443   23.1595 C.ar    1  UNL1        0.1652
     16 C          11.8700   76.0313   22.2086 C.2     1  UNL1        0.4050
     17 O          12.5739   75.8514   21.1763 O.2     1  UNL1       -0.2262
     18 N          10.7009   75.2187   22.4413 N.am    1  UNL1       -0.2459
     19 C           9.8233   75.5172   23.5821 C.3     1  UNL1        0.0987
     20 C           9.2037   74.2360   24.1622 C.3     1  UNL1        0.0461
     21 C           8.6416   73.2812   23.0897 C.3     1  UNL1        0.1102
     22 C           9.6608   73.0378   21.9676 C.3     1  UNL1        0.0461
     23 C          10.1809   74.3485   21.3768 C.3     1  UNL1        0.0987
     24 C          13.5726   77.2299   23.5500 C.3     1  UNL1        0.2573
     25 O          12.2296   77.0220   23.1296 O.3     1  UNL1       -0.4304
     26 N           3.1633   75.8215   22.0337 N.pl3   1  UNL1       -0.2879
     27 C           2.3250   76.9850   22.3370 C.3     1  UNL1        0.1242
     28 C           1.8907   77.6564   21.0309 C.3     1  UNL1        0.1636
     29 O           1.2935   76.7164   20.1571 O.3     1  UNL1       -0.3501
     30 C           2.2510   75.7506   19.7637 C.3     1  UNL1        0.1636
     31 C           2.7158   74.9227   20.9658 C.3     1  UNL1        0.1242
     32 N           5.8015   78.4744   29.9552 N.am    1  UNL1       -0.2681
     33 C           6.4414   77.9803   31.1447 C.2     1  UNL1        0.3082
     34 O           5.9777   78.3112   32.2678 O.2     1  UNL1       -0.2522
     35 N           7.6060   77.1368   31.0929 N.am    1  UNL1       -0.2683
     36 H           5.3096   79.3944   30.0168 H       1  UNL1        0.1564
     37 H           7.8531   76.6016   31.9553 H       1  UNL1        0.1564
     38 C           8.5132   77.0867   29.9770 C.ar    1  UNL1        0.0475
     39 C           9.2444   78.2352   29.6299 C.ar    1  UNL1        0.0141
     40 C          10.1044   78.2284   28.5345 C.ar    1  UNL1       -0.0030
     41 C          10.2850   77.0600   27.7879 C.ar    1  UNL1       -0.0210
     42 C           9.5880   75.8978   28.1445 C.ar    1  UNL1       -0.0073
     43 C           8.6797   75.8952   29.2230 C.ar    1  UNL1       -0.0093
     44 C           7.9258   74.6183   29.5843 C.3     1  UNL1        0.0236
     45 C           8.8751   73.6152   30.2456 C.3     1  UNL1        0.0047
     46 C           7.2130   73.9792   28.3807 C.3     1  UNL1        0.0047
     47 C          11.1514   77.0744   26.5578 C.3     1  UNL1        0.0437
     48 C          11.4529   78.5155   26.1374 C.3     1  UNL1        0.0769
     49 N          10.1864   79.2680   25.9822 N.3     1  UNL1       -0.2681
     50 C          10.3773   80.7314   26.0872 C.3     1  UNL1        0.1046
     51 C          10.9399   81.3367   24.7861 C.3     1  UNL1        0.1595
     52 O          10.1460   80.9870   23.6698 O.3     1  UNL1       -0.3508
     53 C          10.1262   79.5820   23.5216 C.3     1  UNL1        0.1595
     54 C           9.4672   78.9256   24.7397 C.3     1  UNL1        0.1046
@<TRIPOS>BOND
     1    24    25    1
     2    25    16    1
     3    16    17    2
     4    16    18   am
     5    18    19    1
     6    19    20    1
     7    20    21    1
     8    21     7    1
     9     7     8   ar
    10     8     9   ar
    11     9    10   ar
    12    10    11   ar
    13    11    26    1
    14    26    27    1
    15    27    28    1
    16    28    29    1
    17    29    30    1
    18    30    31    1
    19    11    12   ar
    20    12    13   ar
    21    13     1    1
    22     1     2   ar
    23     2     3   ar
    24     3     4   ar
    25     4    32    1
    26    32    33   am
    27    33    34    2
    28    33    35   am
    29    35    38    1
    30    38    39   ar
    31    39    40   ar
    32    40    41   ar
    33    41    47    1
    34    47    48    1
    35    48    49    1
    36    49    50    1
    37    50    51    1
    38    51    52    1
    39    52    53    1
    40    53    54    1
    41    41    42   ar
    42    42    43   ar
    43    43    44    1
    44    44    45    1
    45    44    46    1
    46     4     5   ar
    47     5     6   ar
    48    13    14   ar
    49    14    15   ar
    50    21    22    1
    51    22    23    1
    52    23    18    1
    53    15     7   ar
    54    15    10   ar
    55    31    26    1
    56     6     1   ar
    57    43    38   ar
    58    54    49    1
    59    32    36    1
    60    35    37    1
@<TRIPOS>MOLECULE
*****
 54 60 0 0 0
SMALL
GASTEIGER

@<TRIPOS>ATOM
      1 C           5.9080   74.5378   21.8331 C.ar    1  UNL1        0.0360
      2 C           6.1437   74.7975   20.4725 C.ar    1  UNL1        0.0043
      3 C           5.0884   74.7746   19.5558 C.ar    1  UNL1        0.0148
      4 C           3.7822   74.5011   19.9837 C.ar    1  UNL1        0.0516
      5 C           3.5541   74.1846   21.3320 C.ar    1  UNL1        0.0148
      6 C           4.6061   74.2133   22.2500 C.ar    1  UNL1        0.0043
      7 N           7.8470   75.9502   26.0727 N.ar    1  UNL1       -0.2357
      8 N           9.0329   75.7355   26.6339 N.ar    1  UNL1       -0.1663
      9 C           9.7930   75.0151   25.7716 C.ar    1  UNL1        0.1260
     10 C           9.0479   74.7701   24.6323 C.ar    1  UNL1        0.0880
     11 C           9.2666   74.0900   23.4311 C.ar    1  UNL1        0.1380
     12 N           8.2217   74.0362   22.5492 N.ar    1  UNL1       -0.2117
     13 C           7.0070   74.6178   22.8175 C.ar    1  UNL1        0.1653
     14 N           6.8167   75.2844   23.9956 N.ar    1  UNL1       -0.2079
     15 C           7.8444   75.3495   24.8726 C.ar    1  UNL1        0.1652
     16 C           7.8469   78.5814   30.4065 C.2     1  UNL1        0.4050
     17 O           7.6904   77.9662   31.4976 O.2     1  UNL1       -0.2262
     18 N           7.6180   77.9059   29.1524 N.am    1  UNL1       -0.2459
     19 C           7.9196   78.5953   27.8897 C.3     1  UNL1        0.0987
     20 C           6.9452   78.1775   26.7771 C.3     1  UNL1        0.0461
     21 C           6.7172   76.6547   26.6952 C.3     1  UNL1        0.1102
     22 C           6.3927   76.0625   28.0741 C.3     1  UNL1        0.0461
     23 C           7.4399   76.4472   29.1196 C.3     1  UNL1        0.0987
     24 C           9.4712   80.3595   30.9854 C.3     1  UNL1        0.2573
     25 O           8.2416   79.9242   30.4175 O.3     1  UNL1       -0.4304
     26 N          10.5255   73.4762   23.0933 N.pl3   1  UNL1       -0.2879
     27 C          10.5789   72.0624   22.7103 C.3     1  UNL1        0.1242
     28 C          11.5486   71.8868   21.5379 C.3     1  UNL1        0.1636
     29 O          12.8077   72.4604   21.8371 O.3     1  UNL1       -0.3501
     30 C          12.6739   73.8618   21.9861 C.3     1  UNL1        0.1636
     31 C          11.7960   74.2001   23.1950 C.3     1  UNL1        0.1242
     32 N           2.7018   74.5523   19.0382 N.am    1  UNL1       -0.2681
     33 C           1.6324   75.5132   19.0802 C.2     1  UNL1        0.3082
     34 O           0.5096   75.1956   18.6064 O.2     1  UNL1       -0.2522
     35 N           1.8099   76.8320   19.6276 N.am    1  UNL1       -0.2683
     36 H           2.6910   73.8496   18.2648 H       1  UNL1        0.1564
     37 H           0.9502   77.3720   19.8741 H       1  UNL1        0.1564
     38 C           3.0834   77.4933   19.7344 C.ar    1  UNL1        0.0475
     39 C           3.8191   77.7665   18.5690 C.ar    1  UNL1        0.0141
     40 C           5.0701   78.3743   18.6420 C.ar    1  UNL1       -0.0030
     41 C           5.5939   78.7615   19.8793 C.ar    1  UNL1       -0.0210
     42 C           4.8550   78.5262   21.0465 C.ar    1  UNL1       -0.0073
     43 C           3.6063   77.8730   20.9987 C.ar    1  UNL1       -0.0093
     44 C           2.8264   77.6200   22.2859 C.3     1  UNL1        0.0236
     45 C           1.8611   78.7782   22.5534 C.3     1  UNL1        0.0047
     46 C           3.7353   77.3785   23.5029 C.3     1  UNL1        0.0047
     47 C           6.9785   79.3443   19.9658 C.3     1  UNL1        0.0437
     48 C           7.4479   79.3838   21.4226 C.3     1  UNL1        0.0769
     49 N           8.9247   79.4885   21.4710 N.3     1  UNL1       -0.2681
     50 C           9.4365   79.6890   22.8446 C.3     1  UNL1        0.1046
     51 C           9.4661   78.3745   23.6490 C.3     1  UNL1        0.1595
     52 O          10.1800   77.3661   22.9621 O.3     1  UNL1       -0.3508
     53 C           9.5560   77.1021   21.7222 C.3     1  UNL1        0.1595
     54 C           9.5998   78.3450   20.8267 C.3     1  UNL1        0.1046
@<TRIPOS>BOND
     1    24    25    1
     2    25    16    1
     3    16    17    2
     4    16    18   am
     5    18    19    1
     6    19    20    1
     7    20    21    1
     8    21     7    1
     9     7     8   ar
    10     8     9   ar
    11     9    10   ar
    12    10    11   ar
    13    11    26    1
    14    26    27    1
    15    27    28    1
    16    28    29    1
    17    29    30    1
    18    30    31    1
    19    11    12   ar
    20    12    13   ar
    21    13     1    1
    22     1     2   ar
    23     2     3   ar
    24     3     4   ar
    25     4    32    1
    26    32    33   am
    27    33    34    2
    28    33    35   am
    29    35    38    1
    30    38    39   ar
    31    39    40   ar
    32    40    41   ar
    33    41    47    1
    34    47    48    1
    35    48    49    1
    36    49    50    1
    37    50    51    1
    38    51    52    1
    39    52    53    1
    40    53    54    1
    41    41    42   ar
    42    42    43   ar
    43    43    44    1
    44    44    45    1
    45    44    46    1
    46     4     5   ar
    47     5     6   ar
    48    13    14   ar
    49    14    15   ar
    50    21    22    1
    51    22    23    1
    52    23    18    1
    53    15     7   ar
    54    15    10   ar
    55    31    26    1
    56     6     1   ar
    57    43    38   ar
    58    54    49    1
    59    32    36    1
    60    35    37    1
@<TRIPOS>MOLECULE
*****
 54 60 0 0 0
SMALL
GASTEIGER

@<TRIPOS>ATOM
      1 C           6.8872   76.0245   23.2476 C.ar    1  UNL1        0.0360
      2 C           7.3680   74.7045   23.2736 C.ar    1  UNL1        0.0043
      3 C           8.4919   74.3473   22.5228 C.ar    1  UNL1        0.0148
      4 C           9.1573   75.3024   21.7425 C.ar    1  UNL1        0.0516
      5 C           8.6445   76.6070   21.6699 C.ar    1  UNL1        0.0148
      6 C           7.5257   76.9670   22.4242 C.ar    1  UNL1        0.0043
      7 N           2.4171   77.8483   23.8968 N.ar    1  UNL1       -0.2357
      8 N           1.6621   78.0119   24.9788 N.ar    1  UNL1       -0.1663
      9 C           2.3699   77.6064   26.0627 C.ar    1  UNL1        0.1260
     10 C           3.6113   77.1708   25.6359 C.ar    1  UNL1        0.0880
     11 C           4.7440   76.6388   26.2583 C.ar    1  UNL1        0.1380
     12 N           5.7857   76.2780   25.4478 N.ar    1  UNL1       -0.2117
     13 C           5.7360   76.4243   24.0833 C.ar    1  UNL1        0.1653
     14 N           4.6210   76.9534   23.4954 N.ar    1  UNL1       -0.2079
     15 C           3.5872   77.3195   24.2871 C.ar    1  UNL1        0.1652
     16 C           4.9859   76.8422   19.6431 C.2     1  UNL1        0.4050
     17 O           5.8576   77.6634   19.2442 O.2     1  UNL1       -0.2262
     18 N           4.0797   77.2038   20.7058 N.am    1  UNL1       -0.2459
     19 C           3.1508   76.1990   21.2426 C.3     1  UNL1        0.0987
     20 C           1.8252   76.8402   21.6824 C.3     1  UNL1        0.0461
     21 C           2.0068   78.1265   22.5132 C.3     1  UNL1        0.1102
     22 C           2.9836   79.0975   21.8349 C.3     1  UNL1        0.0461
     23 C           4.3124   78.4226   21.4939 C.3     1  UNL1        0.0987
     24 C           5.5898   74.4418   19.5540 C.3     1  UNL1        0.2573
     25 O           4.8997   75.5783   19.0482 O.3     1  UNL1       -0.4304
     26 N           4.8542   76.4788   27.6858 N.pl3   1  UNL1       -0.2879
     27 C           4.5611   77.6026   28.5800 C.3     1  UNL1        0.1242
     28 C           3.7725   77.0989   29.7924 C.3     1  UNL1        0.1636
     29 O           4.4415   76.0163   30.4124 O.3     1  UNL1       -0.3501
     30 C           4.4877   74.9109   29.5291 C.3     1  UNL1        0.1636
     31 C           5.3346   75.2349   28.2944 C.3     1  UNL1        0.1242
     32 N          10.3514   74.9319   21.0349 N.am    1  UNL1       -0.2681
     33 C          11.5861   75.6674   21.0869 C.2     1  UNL1        0.3082
     34 O          12.3633   75.6234   20.0969 O.2     1  UNL1       -0.2522
     35 N          11.9712   76.4353   22.2413 N.am    1  UNL1       -0.2683
     36 H          10.3265   74.0689   20.4459 H       1  UNL1        0.1564
     37 H          12.7249   77.1481   22.1174 H       1  UNL1        0.1564
     38 C          11.4749   76.1929   23.5700 C.ar    1  UNL1        0.0475
     39 C          11.4163   74.8757   24.0552 C.ar    1  UNL1        0.0141
     40 C          10.9090   74.6055   25.3238 C.ar    1  UNL1       -0.0030
     41 C          10.4892   75.6509   26.1520 C.ar    1  UNL1       -0.0210
     42 C          10.5746   76.9724   25.6934 C.ar    1  UNL1       -0.0073
     43 C          11.0442   77.2643   24.3963 C.ar    1  UNL1       -0.0093
     44 C          11.1178   78.7117   23.9179 C.3     1  UNL1        0.0236
     45 C          12.1419   79.4898   24.7489 C.3     1  UNL1        0.0047
     46 C           9.7534   79.4212   23.9342 C.3     1  UNL1        0.0047
     47 C           9.8671   75.3537   27.4895 C.3     1  UNL1        0.0437
     48 C           9.8515   76.6135   28.3595 C.3     1  UNL1        0.0769
     49 N           8.4552   77.0626   28.5667 N.3     1  UNL1       -0.2681
     50 C           8.1784   77.4313   29.9725 C.3     1  UNL1        0.1046
     51 C           8.7200   78.8317   30.3211 C.3     1  UNL1        0.1595
     52 O           8.2442   79.8080   29.4162 O.3     1  UNL1       -0.3508
     53 C           8.6708   79.4914   28.1070 C.3     1  UNL1        0.1595
     54 C           8.0663   78.1572   27.6562 C.3     1  UNL1        0.1046
@<TRIPOS>BOND
     1    24    25    1
     2    25    16    1
     3    16    17    2
     4    16    18   am
     5    18    19    1
     6    19    20    1
     7    20    21    1
     8    21     7    1
     9     7     8   ar
    10     8     9   ar
    11     9    10   ar
    12    10    11   ar
    13    11    26    1
    14    26    27    1
    15    27    28    1
    16    28    29    1
    17    29    30    1
    18    30    31    1
    19    11    12   ar
    20    12    13   ar
    21    13     1    1
    22     1     2   ar
    23     2     3   ar
    24     3     4   ar
    25     4    32    1
    26    32    33   am
    27    33    34    2
    28    33    35   am
    29    35    38    1
    30    38    39   ar
    31    39    40   ar
    32    40    41   ar
    33    41    47    1
    34    47    48    1
    35    48    49    1
    36    49    50    1
    37    50    51    1
    38    51    52    1
    39    52    53    1
    40    53    54    1
    41    41    42   ar
    42    42    43   ar
    43    43    44    1
    44    44    45    1
    45    44    46    1
    46     4     5   ar
    47     5     6   ar
    48    13    14   ar
    49    14    15   ar
    50    21    22    1
    51    22    23    1
    52    23    18    1
    53    15     7   ar
    54    15    10   ar
    55    31    26    1
    56     6     1   ar
    57    43    38   ar
    58    54    49    1
    59    32    36    1
    60    35    37    1
@<TRIPOS>MOLECULE
*****
 54 60 0 0 0
SMALL
GASTEIGER

@<TRIPOS>ATOM
      1 C           7.4130   75.1318   24.4043 C.ar    1  UNL1        0.0360
      2 C           8.6384   75.3625   25.0519 C.ar    1  UNL1        0.0043
      3 C           9.8218   74.8253   24.5367 C.ar    1  UNL1        0.0148
      4 C           9.8015   74.0578   23.3643 C.ar    1  UNL1        0.0516
      5 C           8.5716   73.7780   22.7485 C.ar    1  UNL1        0.0148
      6 C           7.3895   74.3193   23.2584 C.ar    1  UNL1        0.0043
      7 N           3.4215   77.8825   23.9234 N.ar    1  UNL1       -0.2357
      8 N           2.4208   78.1658   24.7515 N.ar    1  UNL1       -0.1663
      9 C           2.6662   77.5671   25.9439 C.ar    1  UNL1        0.1260
     10 C           3.8644   76.8825   25.8505 C.ar    1  UNL1        0.0880
     11 C           4.6210   76.0847   26.7133 C.ar    1  UNL1        0.1380
     12 N           5.7658   75.5337   26.2053 N.ar    1  UNL1       -0.2117
     13 C           6.1664   75.7442   24.9088 C.ar    1  UNL1        0.1653
     14 N           5.4152   76.5339   24.0837 N.ar    1  UNL1       -0.2079
     15 C           4.2846   77.0890   24.5767 C.ar    1  UNL1        0.1652
     16 C           1.5804   75.5019   19.8433 C.2     1  UNL1        0.4050
     17 O           2.2592   74.5790   19.3132 O.2     1  UNL1       -0.2262
     18 N           2.1701   76.3517   20.8490 N.am    1  UNL1       -0.2459
     19 C           1.3359   77.3423   21.5440 C.3     1  UNL1        0.0987
     20 C           2.1405   78.6035   21.8963 C.3     1  UNL1        0.0461
     21 C           3.5190   78.3031   22.5185 C.3     1  UNL1        0.1102
     22 C           4.2946   77.2706   21.6882 C.3     1  UNL1        0.0461
     23 C           3.4716   76.0065   21.4386 C.3     1  UNL1        0.0987
     24 C          -0.5794   74.6413   18.9890 C.3     1  UNL1        0.2573
     25 O           0.2519   75.6998   19.4497 O.3     1  UNL1       -0.4304
     26 N           4.2545   75.8446   28.0858 N.pl3   1  UNL1       -0.2879
     27 C           4.2139   74.4768   28.6112 C.3     1  UNL1        0.1242
     28 C           4.8086   74.4535   30.0223 C.3     1  UNL1        0.1636
     29 O           4.1808   75.4168   30.8481 O.3     1  UNL1       -0.3501
     30 C           4.4567   76.7180   30.3632 C.3     1  UNL1        0.1636
     31 C           3.8337   76.9275   28.9795 C.3     1  UNL1        0.1242
     32 N          11.0369   73.5747   22.8126 N.am    1  UNL1       -0.2681
     33 C          11.7160   74.1751   21.6960 C.2     1  UNL1        0.3082
     34 O          12.4345   73.4497   20.9587 O.2     1  UNL1       -0.2522
     35 N          11.6172   75.5811   21.4064 N.am    1  UNL1       -0.2683
     36 H          11.4765   72.7344   23.2516 H       1  UNL1        0.1564
     37 H          11.9008   75.8985   20.4524 H       1  UNL1        0.1564
     38 C          11.2765   76.5810   22.3835 C.ar    1  UNL1        0.0475
     39 C          12.0926   76.7464   23.5151 C.ar    1  UNL1        0.0141
     40 C          11.7706   77.6819   24.4954 C.ar    1  UNL1       -0.0030
     41 C          10.6487   78.5027   24.3443 C.ar    1  UNL1       -0.0210
     42 C           9.8456   78.3718   23.2034 C.ar    1  UNL1       -0.0073
     43 C          10.1291   77.4014   22.2205 C.ar    1  UNL1       -0.0093
     44 C           9.2325   77.2730   20.9922 C.3     1  UNL1        0.0236
     45 C           9.2144   78.5911   20.2130 C.3     1  UNL1        0.0047
     46 C           7.8017   76.8255   21.3355 C.3     1  UNL1        0.0047
     47 C          10.2559   79.4564   25.4399 C.3     1  UNL1        0.0437
     48 C          10.1195   78.7102   26.7699 C.3     1  UNL1        0.0769
     49 N           8.9819   79.2631   27.5408 N.3     1  UNL1       -0.2681
     50 C           7.7797   78.4030   27.4774 C.3     1  UNL1        0.1046
     51 C           7.8830   77.1928   28.4264 C.3     1  UNL1        0.1595
     52 O           8.1721   77.5987   29.7494 O.3     1  UNL1       -0.3508
     53 C           9.4097   78.2797   29.7784 C.3     1  UNL1        0.1595
     54 C           9.3335   79.5622   28.9427 C.3     1  UNL1        0.1046
@<TRIPOS>BOND
     1    24    25    1
     2    25    16    1
     3    16    17    2
     4    16    18   am
     5    18    19    1
     6    19    20    1
     7    20    21    1
     8    21     7    1
     9     7     8   ar
    10     8     9   ar
    11     9    10   ar
    12    10    11   ar
    13    11    26    1
    14    26    27    1
    15    27    28    1
    16    28    29    1
    17    29    30    1
    18    30    31    1
    19    11    12   ar
    20    12    13   ar
    21    13     1    1
    22     1     2   ar
    23     2     3   ar
    24     3     4   ar
    25     4    32    1
    26    32    33   am
    27    33    34    2
    28    33    35   am
    29    35    38    1
    30    38    39   ar
    31    39    40   ar
    32    40    41   ar
    33    41    47    1
    34    47    48    1
    35    48    49    1
    36    49    50    1
    37    50    51    1
    38    51    52    1
    39    52    53    1
    40    53    54    1
    41    41    42   ar
    42    42    43   ar
    43    43    44    1
    44    44    45    1
    45    44    46    1
    46     4     5   ar
    47     5     6   ar
    48    13    14   ar
    49    14    15   ar
    50    21    22    1
    51    22    23    1
    52    23    18    1
    53    15     7   ar
    54    15    10   ar
    55    31    26    1
    56     6     1   ar
    57    43    38   ar
    58    54    49    1
    59    32    36    1
    60    35    37    1
