@<TRIPOS>MOLECULE
*****
 50 55 0 0 0
SMALL
GASTEIGER

@<TRIPOS>ATOM
      1 C          60.8108   82.9844   13.8250 C.3     1  UNL1        0.1535
      2 N          61.5432   84.2468   13.6377 N.am    1  UNL1       -0.2945
      3 C          61.6666   85.2228   14.6847 C.2     1  UNL1        0.2483
      4 O          60.9676   85.1055   15.7286 O.2     1  UNL1       -0.2701
      5 H          61.8865   84.5060   12.6867 H       1  UNL1        0.1501
      6 C          62.5868   86.3820   14.5558 C.ar    1  UNL1        0.0808
      7 C          62.7466   86.9962   13.3007 C.ar    1  UNL1        0.0080
      8 C          63.5866   88.1017   13.1481 C.ar    1  UNL1        0.0148
      9 C          64.2746   88.6287   14.2501 C.ar    1  UNL1        0.0502
     10 C          64.1174   88.0230   15.5056 C.ar    1  UNL1        0.0443
     11 C          63.2819   86.9135   15.6637 C.ar    1  UNL1        0.1457
     12 F          63.1298   86.3996   16.9095 F       1  UNL1       -0.2040
     13 N          65.1431   89.7666   14.0928 N.pl3   1  UNL1       -0.3040
     14 C          64.5662   91.0805   13.7641 C.3     1  UNL1        0.1122
     15 C          65.6565   92.0924   13.3936 C.3     1  UNL1        0.1122
     16 N          66.6498   91.4536   12.5182 N.pl3   1  UNL1       -0.3040
     17 C          67.2626   90.1771   12.9217 C.3     1  UNL1        0.1122
     18 C          66.6022   89.6145   14.1855 C.3     1  UNL1        0.1122
     19 C          66.9755   92.0245   11.2364 C.ar    1  UNL1        0.0488
     20 C          66.4466   93.2693   10.8573 C.ar    1  UNL1        0.0154
     21 C          66.7512   93.8161    9.6084 C.ar    1  UNL1        0.0135
     22 C          67.5834   93.1273    8.7201 C.ar    1  UNL1        0.0683
     23 CL         67.9433   93.8476    7.1569 Cl      1  UNL1       -0.0814
     24 C          68.1123   91.8786    9.0867 C.ar    1  UNL1        0.0694
     25 CL         69.1624   90.9794    7.9999 Cl      1  UNL1       -0.0813
     26 C          67.8051   91.3321   10.3386 C.ar    1  UNL1        0.0268
     27 C          59.7091   82.8277   12.8017 C.2     1  UNL1        0.2443
     28 O          58.5045   82.7800   13.1746 O.2     1  UNL1       -0.2730
     29 N          60.0325   82.8512   11.4019 N.am    1  UNL1       -0.2825
     30 H          61.0079   83.1136   11.1330 H       1  UNL1        0.1549
     31 C          59.0523   82.7502   10.3558 C.ar    1  UNL1        0.0535
     32 C          58.8398   81.5471    9.6626 C.ar    1  UNL1        0.0353
     33 C          57.8820   81.4982    8.6467 C.ar    1  UNL1        0.1002
     34 N          57.1713   82.6111    8.3242 N.ar    1  UNL1       -0.2422
     35 C          57.3690   83.7927    8.9663 C.ar    1  UNL1        0.1002
     36 C          58.3184   83.8854    9.9867 C.ar    1  UNL1        0.0353
     37 C          61.7647   81.7667   13.8098 C.3     1  UNL1        0.0569
     38 C          62.4216   80.7237   11.4914 C.ar    1  UNL1        0.0878
     39 N          61.9796   79.7174   10.6986 N.ar    1  UNL1       -0.3511
     40 C          60.8648   79.2448   11.2785 C.ar    1  UNL1        0.0564
     41 C          60.0536   78.2074   10.8199 C.ar    1  UNL1        0.0170
     42 C          58.9184   77.8737   11.5796 C.ar    1  UNL1        0.0015
     43 C          58.6166   78.5830   12.7618 C.ar    1  UNL1        0.0001
     44 C          59.4508   79.6276   13.1980 C.ar    1  UNL1        0.0012
     45 C          60.5819   79.9266   12.4340 C.ar    1  UNL1        0.0132
     46 C          61.5779   80.8743   12.6045 C.ar    1  UNL1       -0.0002
     47 H          62.4014   79.3853    9.8025 H       1  UNL1        0.1660
     48 C          63.5563   82.5712   10.0840 C.3     1  UNL1        0.0788
     49 C          63.6126   81.5374   11.1631 C.2     1  UNL1        0.1886
     50 O          64.6750   81.4055   11.8262 O.2     1  UNL1       -0.2898
@<TRIPOS>BOND
     1    48    49    1
     2    49    50    2
     3    49    38    1
     4    38    39   ar
     5    39    40   ar
     6    40    41   ar
     7    41    42   ar
     8    42    43   ar
     9    43    44   ar
    10    44    45   ar
    11    45    46   ar
    12    46    37    1
    13    37     1    1
    14     1     2    1
    15     2     3   am
    16     3     4    2
    17     3     6    1
    18     6     7   ar
    19     7     8   ar
    20     8     9   ar
    21     9    13    1
    22    13    14    1
    23    14    15    1
    24    15    16    1
    25    16    19    1
    26    19    20   ar
    27    20    21   ar
    28    21    22   ar
    29    22    23    1
    30    22    24   ar
    31    24    25    1
    32    24    26   ar
    33    16    17    1
    34    17    18    1
    35     9    10   ar
    36    10    11   ar
    37    11    12    1
    38     1    27    1
    39    27    28    2
    40    27    29   am
    41    29    31    1
    42    31    32   ar
    43    32    33   ar
    44    33    34   ar
    45    34    35   ar
    46    35    36   ar
    47    46    38   ar
    48    11     6   ar
    49    36    31   ar
    50    45    40   ar
    51    18    13    1
    52    26    19   ar
    53    39    47    1
    54     2     5    1
    55    29    30    1
@<TRIPOS>MOLECULE
*****
 50 55 0 0 0
SMALL
GASTEIGER

@<TRIPOS>ATOM
      1 C          58.9917   82.3375    8.8112 C.3     1  UNL1        0.1535
      2 N          59.8208   83.4783    9.2312 N.am    1  UNL1       -0.2945
      3 C          60.1470   84.5568    8.3400 C.2     1  UNL1        0.2483
      4 O          59.8967   84.4422    7.1086 O.2     1  UNL1       -0.2701
      5 H          60.2893   83.4578   10.1637 H       1  UNL1        0.1501
      6 C          60.7935   85.7994    8.8349 C.ar    1  UNL1        0.0808
      7 C          60.0024   86.7901    9.4437 C.ar    1  UNL1        0.0080
      8 C          60.5804   87.9609    9.9401 C.ar    1  UNL1        0.0148
      9 C          61.9651   88.1616    9.8533 C.ar    1  UNL1        0.0502
     10 C          62.7608   87.1763    9.2500 C.ar    1  UNL1        0.0443
     11 C          62.1875   86.0046    8.7472 C.ar    1  UNL1        0.1457
     12 F          63.0110   85.0652    8.2192 F       1  UNL1       -0.2040
     13 N          62.5612   89.3698   10.3620 N.pl3   1  UNL1       -0.3040
     14 C          63.6131   90.0442    9.5836 C.3     1  UNL1        0.1122
     15 C          64.2881   91.1525   10.3995 C.3     1  UNL1        0.1122
     16 N          64.5357   90.6800   11.7692 N.pl3   1  UNL1       -0.3040
     17 C          63.4354   90.0825   12.5439 C.3     1  UNL1        0.1122
     18 C          62.1820   89.8949   11.6815 C.3     1  UNL1        0.1122
     19 C          65.8595   90.7272   12.3353 C.ar    1  UNL1        0.0488
     20 C          66.9893   90.5691   11.5160 C.ar    1  UNL1        0.0154
     21 C          68.2725   90.6006   12.0673 C.ar    1  UNL1        0.0135
     22 C          68.4456   90.7860   13.4427 C.ar    1  UNL1        0.0683
     23 CL         70.0763   90.8193   14.0996 Cl      1  UNL1       -0.0814
     24 C          67.3221   90.9386   14.2721 C.ar    1  UNL1        0.0694
     25 CL         67.4951   91.1737   16.0062 Cl      1  UNL1       -0.0813
     26 C          66.0369   90.9059   13.7175 C.ar    1  UNL1        0.0268
     27 C          59.8056   81.0669    8.7198 C.2     1  UNL1        0.2443
     28 O          59.8756   80.4404    7.6266 O.2     1  UNL1       -0.2730
     29 N          60.5891   80.6435    9.8474 N.am    1  UNL1       -0.2825
     30 H          60.6781   81.3042   10.6526 H       1  UNL1        0.1549
     31 C          61.4246   79.4743    9.8433 C.ar    1  UNL1        0.0535
     32 C          62.6675   79.4626    9.1889 C.ar    1  UNL1        0.0353
     33 C          63.4421   78.2999    9.2039 C.ar    1  UNL1        0.1002
     34 N          62.9886   77.1855    9.8364 N.ar    1  UNL1       -0.2422
     35 C          61.7821   77.1634   10.4621 C.ar    1  UNL1        0.1002
     36 C          60.9755   78.3038   10.4691 C.ar    1  UNL1        0.0353
     37 C          57.7686   82.1519    9.7400 C.3     1  UNL1        0.0569
     38 C          58.3744   82.4183   12.2810 C.ar    1  UNL1        0.0878
     39 N          58.5257   81.6025   13.3526 N.ar    1  UNL1       -0.3511
     40 C          58.4062   80.3482   12.8892 C.ar    1  UNL1        0.0564
     41 C          58.4970   79.1677   13.6259 C.ar    1  UNL1        0.0170
     42 C          58.3495   77.9496   12.9391 C.ar    1  UNL1        0.0015
     43 C          58.1275   77.9381   11.5455 C.ar    1  UNL1        0.0001
     44 C          58.0445   79.1444   10.8276 C.ar    1  UNL1        0.0012
     45 C          58.1767   80.3406   11.5374 C.ar    1  UNL1        0.0132
     46 C          58.1347   81.6615   11.1218 C.ar    1  UNL1       -0.0002
     47 H          58.7203   81.8835   14.3397 H       1  UNL1        0.1660
     48 C          57.5478   84.6770   13.2279 C.3     1  UNL1        0.0788
     49 C          58.4892   83.8903   12.3728 C.2     1  UNL1        0.1886
     50 O          59.4169   84.4941   11.7724 O.2     1  UNL1       -0.2898
@<TRIPOS>BOND
     1    48    49    1
     2    49    50    2
     3    49    38    1
     4    38    39   ar
     5    39    40   ar
     6    40    41   ar
     7    41    42   ar
     8    42    43   ar
     9    43    44   ar
    10    44    45   ar
    11    45    46   ar
    12    46    37    1
    13    37     1    1
    14     1     2    1
    15     2     3   am
    16     3     4    2
    17     3     6    1
    18     6     7   ar
    19     7     8   ar
    20     8     9   ar
    21     9    13    1
    22    13    14    1
    23    14    15    1
    24    15    16    1
    25    16    19    1
    26    19    20   ar
    27    20    21   ar
    28    21    22   ar
    29    22    23    1
    30    22    24   ar
    31    24    25    1
    32    24    26   ar
    33    16    17    1
    34    17    18    1
    35     9    10   ar
    36    10    11   ar
    37    11    12    1
    38     1    27    1
    39    27    28    2
    40    27    29   am
    41    29    31    1
    42    31    32   ar
    43    32    33   ar
    44    33    34   ar
    45    34    35   ar
    46    35    36   ar
    47    46    38   ar
    48    11     6   ar
    49    36    31   ar
    50    45    40   ar
    51    18    13    1
    52    26    19   ar
    53    39    47    1
    54     2     5    1
    55    29    30    1
@<TRIPOS>MOLECULE
*****
 50 55 0 0 0
SMALL
GASTEIGER

@<TRIPOS>ATOM
      1 C          60.6233   80.6156   11.8321 C.3     1  UNL1        0.1535
      2 N          60.7692   82.0711   11.9913 N.am    1  UNL1       -0.2945
      3 C          60.8786   82.6929   13.2819 C.2     1  UNL1        0.2483
      4 O          60.6423   82.0152   14.3197 O.2     1  UNL1       -0.2701
      5 H          60.6733   82.6918   11.1577 H       1  UNL1        0.1501
      6 C          61.2444   84.1260   13.4205 C.ar    1  UNL1        0.0808
      7 C          62.3441   84.4800   14.2227 C.ar    1  UNL1        0.0080
      8 C          62.7293   85.8158   14.3576 C.ar    1  UNL1        0.0148
      9 C          62.0337   86.8277   13.6811 C.ar    1  UNL1        0.0502
     10 C          60.9377   86.4815   12.8768 C.ar    1  UNL1        0.0443
     11 C          60.5445   85.1469   12.7416 C.ar    1  UNL1        0.1457
     12 F          59.5088   84.8661   11.9121 F       1  UNL1       -0.2040
     13 N          62.4285   88.2054   13.8223 N.pl3   1  UNL1       -0.3040
     14 C          63.0599   88.8996   12.6880 C.3     1  UNL1        0.1122
     15 C          63.6291   90.2585   13.1116 C.3     1  UNL1        0.1122
     16 N          64.3152   90.1279   14.4049 N.pl3   1  UNL1       -0.3040
     17 C          63.6190   89.4973   15.5387 C.3     1  UNL1        0.1122
     18 C          62.2739   88.9017   15.1075 C.3     1  UNL1        0.1122
     19 C          65.6866   90.5427   14.5550 C.ar    1  UNL1        0.0488
     20 C          66.1115   91.1819   15.7313 C.ar    1  UNL1        0.0154
     21 C          67.4381   91.5969   15.8709 C.ar    1  UNL1        0.0135
     22 C          68.3568   91.3837   14.8381 C.ar    1  UNL1        0.0683
     23 CL         70.0177   91.9207   15.0506 Cl      1  UNL1       -0.0814
     24 C          67.9407   90.7512   13.6548 C.ar    1  UNL1        0.0694
     25 CL         69.0633   90.4640   12.3320 Cl      1  UNL1       -0.0813
     26 C          66.6105   90.3368   13.5168 C.ar    1  UNL1        0.0268
     27 C          59.7640   80.2740   10.6362 C.2     1  UNL1        0.2443
     28 O          58.7704   79.5080   10.7721 O.2     1  UNL1       -0.2730
     29 N          60.0149   80.9162    9.3756 N.am    1  UNL1       -0.2825
     30 H          60.7012   81.7045    9.3601 H       1  UNL1        0.1549
     31 C          59.2289   80.6876    8.1944 C.ar    1  UNL1        0.0535
     32 C          57.8730   81.0495    8.1336 C.ar    1  UNL1        0.0353
     33 C          57.1458   80.7998    6.9670 C.ar    1  UNL1        0.1002
     34 N          57.7445   80.1991    5.9047 N.ar    1  UNL1       -0.2422
     35 C          59.0499   79.8224    5.9427 C.ar    1  UNL1        0.1002
     36 C          59.8123   80.0518    7.0904 C.ar    1  UNL1        0.0353
     37 C          61.9989   79.9124   11.7507 C.3     1  UNL1        0.0569
     38 C          63.9054   81.7170   11.6967 C.ar    1  UNL1        0.0878
     39 N          64.7135   82.3295   12.5960 N.ar    1  UNL1       -0.3511
     40 C          64.4747   81.7395   13.7780 C.ar    1  UNL1        0.0564
     41 C          65.0791   82.0309   15.0004 C.ar    1  UNL1        0.0170
     42 C          64.6875   81.2819   16.1242 C.ar    1  UNL1        0.0015
     43 C          63.7191   80.2627   16.0008 C.ar    1  UNL1        0.0001
     44 C          63.1293   79.9880   14.7541 C.ar    1  UNL1        0.0012
     45 C          63.5235   80.7592   13.6577 C.ar    1  UNL1        0.0132
     46 C          63.1269   80.7342   12.3305 C.ar    1  UNL1       -0.0002
     47 H          65.4037   83.0915   12.4110 H       1  UNL1        0.1660
     48 C          63.0352   83.1459    9.7263 C.3     1  UNL1        0.0788
     49 C          63.9096   82.0547   10.2565 C.2     1  UNL1        0.1886
     50 O          64.6907   81.4616    9.4668 O.2     1  UNL1       -0.2898
@<TRIPOS>BOND
     1    48    49    1
     2    49    50    2
     3    49    38    1
     4    38    39   ar
     5    39    40   ar
     6    40    41   ar
     7    41    42   ar
     8    42    43   ar
     9    43    44   ar
    10    44    45   ar
    11    45    46   ar
    12    46    37    1
    13    37     1    1
    14     1     2    1
    15     2     3   am
    16     3     4    2
    17     3     6    1
    18     6     7   ar
    19     7     8   ar
    20     8     9   ar
    21     9    13    1
    22    13    14    1
    23    14    15    1
    24    15    16    1
    25    16    19    1
    26    19    20   ar
    27    20    21   ar
    28    21    22   ar
    29    22    23    1
    30    22    24   ar
    31    24    25    1
    32    24    26   ar
    33    16    17    1
    34    17    18    1
    35     9    10   ar
    36    10    11   ar
    37    11    12    1
    38     1    27    1
    39    27    28    2
    40    27    29   am
    41    29    31    1
    42    31    32   ar
    43    32    33   ar
    44    33    34   ar
    45    34    35   ar
    46    35    36   ar
    47    46    38   ar
    48    11     6   ar
    49    36    31   ar
    50    45    40   ar
    51    18    13    1
    52    26    19   ar
    53    39    47    1
    54     2     5    1
    55    29    30    1
@<TRIPOS>MOLECULE
*****
 50 55 0 0 0
SMALL
GASTEIGER

@<TRIPOS>ATOM
      1 C          59.2240   82.5866   13.0398 C.3     1  UNL1        0.1535
      2 N          59.7819   83.9463   12.9687 N.am    1  UNL1       -0.2945
      3 C          60.6800   84.4583   13.9664 C.2     1  UNL1        0.2483
      4 O          60.8460   83.8171   15.0404 O.2     1  UNL1       -0.2701
      5 H          59.4313   84.6087   12.2423 H       1  UNL1        0.1501
      6 C          61.4036   85.7407   13.7694 C.ar    1  UNL1        0.0808
      7 C          61.7392   86.1470   12.4655 C.ar    1  UNL1        0.0080
      8 C          62.4000   87.3572   12.2421 C.ar    1  UNL1        0.0148
      9 C          62.7268   88.1970   13.3160 C.ar    1  UNL1        0.0502
     10 C          62.3923   87.7995   14.6191 C.ar    1  UNL1        0.0443
     11 C          61.7352   86.5873   14.8493 C.ar    1  UNL1        0.1457
     12 F          61.3928   86.2775   16.1246 F       1  UNL1       -0.2040
     13 N          63.4108   89.4434   13.0866 N.pl3   1  UNL1       -0.3040
     14 C          63.1481   90.1990   11.8508 C.3     1  UNL1        0.1122
     15 C          64.1456   91.3500   11.6772 C.3     1  UNL1        0.1122
     16 N          65.4993   90.8894   12.0177 N.pl3   1  UNL1       -0.3040
     17 C          65.7354   90.2068   13.3007 C.3     1  UNL1        0.1122
     18 C          64.4199   89.9310   14.0377 C.3     1  UNL1        0.1122
     19 C          66.5825   91.0322   11.0789 C.ar    1  UNL1        0.0488
     20 C          67.7296   90.2291   11.1892 C.ar    1  UNL1        0.0154
     21 C          68.7860   90.3776   10.2872 C.ar    1  UNL1        0.0135
     22 C          68.7141   91.3311    9.2666 C.ar    1  UNL1        0.0683
     23 CL         70.0641   91.4888    8.1510 Cl      1  UNL1       -0.0814
     24 C          67.5741   92.1439    9.1513 C.ar    1  UNL1        0.0694
     25 CL         67.4431   93.3549    7.8830 Cl      1  UNL1       -0.0813
     26 C          66.5169   91.9939   10.0568 C.ar    1  UNL1        0.0268
     27 C          58.7278   82.1217   11.6896 C.2     1  UNL1        0.2443
     28 O          57.5030   81.8692   11.5208 O.2     1  UNL1       -0.2730
     29 N          59.6347   82.0820   10.5757 N.am    1  UNL1       -0.2825
     30 H          60.5807   82.5077   10.7041 H       1  UNL1        0.1549
     31 C          59.2484   81.6935    9.2471 C.ar    1  UNL1        0.0535
     32 C          58.0693   80.9684    9.0080 C.ar    1  UNL1        0.0353
     33 C          57.7385   80.6047    7.7002 C.ar    1  UNL1        0.1002
     34 N          58.5596   80.9396    6.6700 N.ar    1  UNL1       -0.2422
     35 C          59.7153   81.6251    6.8747 C.ar    1  UNL1        0.1002
     36 C          60.0843   82.0063    8.1669 C.ar    1  UNL1        0.0353
     37 C          60.2415   81.5856   13.6361 C.3     1  UNL1        0.0569
     38 C          60.7180   79.5883   11.9995 C.ar    1  UNL1        0.0878
     39 N          61.5847   79.3194   10.9929 N.ar    1  UNL1       -0.3511
     40 C          62.4394   80.3538   10.9473 C.ar    1  UNL1        0.0564
     41 C          63.5140   80.5184   10.0741 C.ar    1  UNL1        0.0170
     42 C          64.2953   81.6805   10.2025 C.ar    1  UNL1        0.0015
     43 C          63.9951   82.6363   11.1965 C.ar    1  UNL1        0.0001
     44 C          62.9073   82.4418   12.0661 C.ar    1  UNL1        0.0012
     45 C          62.1369   81.2873   11.9050 C.ar    1  UNL1        0.0132
     46 C          61.0218   80.8279   12.5868 C.ar    1  UNL1       -0.0002
     47 H          61.6058   78.4699   10.3855 H       1  UNL1        0.1660
     48 C          58.5477   78.2973   11.4478 C.3     1  UNL1        0.0788
     49 C          59.6430   78.6549   12.4011 C.2     1  UNL1        0.1886
     50 O          59.6670   78.1076   13.5349 O.2     1  UNL1       -0.2898
@<TRIPOS>BOND
     1    48    49    1
     2    49    50    2
     3    49    38    1
     4    38    39   ar
     5    39    40   ar
     6    40    41   ar
     7    41    42   ar
     8    42    43   ar
     9    43    44   ar
    10    44    45   ar
    11    45    46   ar
    12    46    37    1
    13    37     1    1
    14     1     2    1
    15     2     3   am
    16     3     4    2
    17     3     6    1
    18     6     7   ar
    19     7     8   ar
    20     8     9   ar
    21     9    13    1
    22    13    14    1
    23    14    15    1
    24    15    16    1
    25    16    19    1
    26    19    20   ar
    27    20    21   ar
    28    21    22   ar
    29    22    23    1
    30    22    24   ar
    31    24    25    1
    32    24    26   ar
    33    16    17    1
    34    17    18    1
    35     9    10   ar
    36    10    11   ar
    37    11    12    1
    38     1    27    1
    39    27    28    2
    40    27    29   am
    41    29    31    1
    42    31    32   ar
    43    32    33   ar
    44    33    34   ar
    45    34    35   ar
    46    35    36   ar
    47    46    38   ar
    48    11     6   ar
    49    36    31   ar
    50    45    40   ar
    51    18    13    1
    52    26    19   ar
    53    39    47    1
    54     2     5    1
    55    29    30    1
@<TRIPOS>MOLECULE
*****
 50 55 0 0 0
SMALL
GASTEIGER

@<TRIPOS>ATOM
      1 C          62.1352   81.3168    9.5618 C.3     1  UNL1        0.1535
      2 N          62.3018   82.6950   10.0495 N.am    1  UNL1       -0.2945
      3 C          61.5514   83.2096   11.1613 C.2     1  UNL1        0.2483
      4 O          60.5778   82.5465   11.6136 O.2     1  UNL1       -0.2701
      5 H          62.8916   83.3644    9.5078 H       1  UNL1        0.1501
      6 C          61.8847   84.5191   11.7785 C.ar    1  UNL1        0.0808
      7 C          61.5031   85.7042   11.1243 C.ar    1  UNL1        0.0080
      8 C          61.7810   86.9522   11.6869 C.ar    1  UNL1        0.0148
      9 C          62.4331   87.0442   12.9245 C.ar    1  UNL1        0.0502
     10 C          62.8138   85.8662   13.5842 C.ar    1  UNL1        0.0443
     11 C          62.5427   84.6145   13.0239 C.ar    1  UNL1        0.1457
     12 F          62.8896   83.5092   13.7293 F       1  UNL1       -0.2040
     13 N          62.7225   88.3305   13.5036 N.pl3   1  UNL1       -0.3040
     14 C          63.1953   89.4255   12.6407 C.3     1  UNL1        0.1122
     15 C          63.6834   90.6190   13.4697 C.3     1  UNL1        0.1122
     16 N          64.4854   90.1403   14.6048 N.pl3   1  UNL1       -0.3040
     17 C          63.9428   89.0982   15.4922 C.3     1  UNL1        0.1122
     18 C          62.6202   88.5395   14.9550 C.3     1  UNL1        0.1122
     19 C          65.8252   90.6257   14.8152 C.ar    1  UNL1        0.0488
     20 C          66.1432   91.3567   15.9716 C.ar    1  UNL1        0.0154
     21 C          67.4392   91.8397   16.1687 C.ar    1  UNL1        0.0135
     22 C          68.4334   91.6036   15.2137 C.ar    1  UNL1        0.0683
     23 CL         70.0526   92.2281   15.4969 Cl      1  UNL1       -0.0814
     24 C          68.1243   90.8793   14.0504 C.ar    1  UNL1        0.0694
     25 CL         69.3442   90.5603   12.8247 Cl      1  UNL1       -0.0813
     26 C          66.8246   90.3968   13.8546 C.ar    1  UNL1        0.0268
     27 C          61.5960   80.4092   10.6438 C.2     1  UNL1        0.2443
     28 O          62.3693   79.9633   11.5358 O.2     1  UNL1       -0.2730
     29 N          60.1840   80.1537   10.7172 N.am    1  UNL1       -0.2825
     30 H          59.5559   80.7156   10.0987 H       1  UNL1        0.1549
     31 C          59.5732   79.3388   11.7312 C.ar    1  UNL1        0.0535
     32 C          59.6433   79.6838   13.0910 C.ar    1  UNL1        0.0353
     33 C          59.0420   78.8564   14.0428 C.ar    1  UNL1        0.1002
     34 N          58.4057   77.7196   13.6547 N.ar    1  UNL1       -0.2422
     35 C          58.3382   77.3525   12.3478 C.ar    1  UNL1        0.1002
     36 C          58.9278   78.1503   11.3644 C.ar    1  UNL1        0.0353
     37 C          61.2473   81.2657    8.2960 C.3     1  UNL1        0.0569
     38 C          58.8653   82.3631    8.4237 C.ar    1  UNL1        0.0878
     39 N          58.3518   83.6172    8.4071 N.ar    1  UNL1       -0.3511
     40 C          59.3844   84.4425    8.1722 C.ar    1  UNL1        0.0564
     41 C          59.3416   85.8317    8.0602 C.ar    1  UNL1        0.0170
     42 C          60.5462   86.5093    7.8011 C.ar    1  UNL1        0.0015
     43 C          61.7515   85.7906    7.6510 C.ar    1  UNL1        0.0001
     44 C          61.7639   84.3891    7.7652 C.ar    1  UNL1        0.0012
     45 C          60.5562   83.7426    8.0407 C.ar    1  UNL1        0.0132
     46 C          60.2541   82.4018    8.2147 C.ar    1  UNL1       -0.0002
     47 H          57.3516   83.8935    8.5277 H       1  UNL1        0.1660
     48 C          57.7079   80.2677    7.4485 C.3     1  UNL1        0.0788
     49 C          58.0280   81.1575    8.6070 C.2     1  UNL1        0.1886
     50 O          57.6182   80.8365    9.7536 O.2     1  UNL1       -0.2898
@<TRIPOS>BOND
     1    48    49    1
     2    49    50    2
     3    49    38    1
     4    38    39   ar
     5    39    40   ar
     6    40    41   ar
     7    41    42   ar
     8    42    43   ar
     9    43    44   ar
    10    44    45   ar
    11    45    46   ar
    12    46    37    1
    13    37     1    1
    14     1     2    1
    15     2     3   am
    16     3     4    2
    17     3     6    1
    18     6     7   ar
    19     7     8   ar
    20     8     9   ar
    21     9    13    1
    22    13    14    1
    23    14    15    1
    24    15    16    1
    25    16    19    1
    26    19    20   ar
    27    20    21   ar
    28    21    22   ar
    29    22    23    1
    30    22    24   ar
    31    24    25    1
    32    24    26   ar
    33    16    17    1
    34    17    18    1
    35     9    10   ar
    36    10    11   ar
    37    11    12    1
    38     1    27    1
    39    27    28    2
    40    27    29   am
    41    29    31    1
    42    31    32   ar
    43    32    33   ar
    44    33    34   ar
    45    34    35   ar
    46    35    36   ar
    47    46    38   ar
    48    11     6   ar
    49    36    31   ar
    50    45    40   ar
    51    18    13    1
    52    26    19   ar
    53    39    47    1
    54     2     5    1
    55    29    30    1
@<TRIPOS>MOLECULE
*****
 50 55 0 0 0
SMALL
GASTEIGER

@<TRIPOS>ATOM
      1 C          58.8954   82.1449    8.8968 C.3     1  UNL1        0.1535
      2 N          59.6854   83.3030    9.3439 N.am    1  UNL1       -0.2945
      3 C          60.2647   84.2375    8.4191 C.2     1  UNL1        0.2483
      4 O          60.2794   83.9642    7.1874 O.2     1  UNL1       -0.2701
      5 H          59.9392   83.3940   10.3522 H       1  UNL1        0.1501
      6 C          60.8671   85.5130    8.8851 C.ar    1  UNL1        0.0808
      7 C          60.0543   86.4607    9.5323 C.ar    1  UNL1        0.0080
      8 C          60.5922   87.6609   10.0029 C.ar    1  UNL1        0.0148
      9 C          61.9587   87.9348    9.8511 C.ar    1  UNL1        0.0502
     10 C          62.7761   86.9925    9.2093 C.ar    1  UNL1        0.0443
     11 C          62.2426   85.7917    8.7321 C.ar    1  UNL1        0.1457
     12 F          63.0888   84.8968    8.1641 F       1  UNL1       -0.2040
     13 N          62.5134   89.1732   10.3333 N.pl3   1  UNL1       -0.3040
     14 C          63.5780   89.8397    9.5655 C.3     1  UNL1        0.1122
     15 C          64.2029   90.9916   10.3608 C.3     1  UNL1        0.1122
     16 N          64.4125   90.5758   11.7551 N.pl3   1  UNL1       -0.3040
     17 C          63.2981   89.9849   12.5145 C.3     1  UNL1        0.1122
     18 C          62.0789   89.7392   11.6184 C.3     1  UNL1        0.1122
     19 C          65.7149   90.6715   12.3631 C.ar    1  UNL1        0.0488
     20 C          66.8753   90.5322   11.5841 C.ar    1  UNL1        0.0154
     21 C          68.1381   90.6109   12.1764 C.ar    1  UNL1        0.0135
     22 C          68.2601   90.8254   13.5530 C.ar    1  UNL1        0.0683
     23 CL         69.8666   90.9178   14.2621 Cl      1  UNL1       -0.0814
     24 C          67.1058   90.9595   14.3423 C.ar    1  UNL1        0.0694
     25 CL         67.2144   91.2299   16.0766 Cl      1  UNL1       -0.0813
     26 C          65.8412   90.8795   13.7468 C.ar    1  UNL1        0.0268
     27 C          59.7493   80.9021    8.7887 C.2     1  UNL1        0.2443
     28 O          59.9909   80.3999    7.6566 O.2     1  UNL1       -0.2730
     29 N          60.3765   80.3677    9.9658 N.am    1  UNL1       -0.2825
     30 H          60.3320   80.9373   10.8411 H       1  UNL1        0.1549
     31 C          61.2366   79.2164    9.9575 C.ar    1  UNL1        0.0535
     32 C          62.4615   79.2201    9.2700 C.ar    1  UNL1        0.0353
     33 C          63.2610   78.0744    9.2824 C.ar    1  UNL1        0.1002
     34 N          62.8486   76.9612    9.9443 N.ar    1  UNL1       -0.2422
     35 C          61.6600   76.9239   10.6027 C.ar    1  UNL1        0.1002
     36 C          60.8296   78.0470   10.6136 C.ar    1  UNL1        0.0353
     37 C          57.6720   81.9043    9.8126 C.3     1  UNL1        0.0569
     38 C          58.3247   81.2815   12.2785 C.ar    1  UNL1        0.0878
     39 N          58.6282   81.9468   13.4195 N.ar    1  UNL1       -0.3511
     40 C          58.4340   83.2491   13.1575 C.ar    1  UNL1        0.0564
     41 C          58.6115   84.3186   14.0345 C.ar    1  UNL1        0.0170
     42 C          58.3417   85.6136   13.5575 C.ar    1  UNL1        0.0015
     43 C          57.8955   85.8079   12.2328 C.ar    1  UNL1        0.0001
     44 C          57.7214   84.7098   11.3717 C.ar    1  UNL1        0.0012
     45 C          58.0139   83.4360   11.8657 C.ar    1  UNL1        0.0132
     46 C          57.9508   82.1863   11.2709 C.ar    1  UNL1       -0.0002
     47 H          58.9301   81.5356   14.3311 H       1  UNL1        0.1660
     48 C          58.8631   78.9767   13.3176 C.3     1  UNL1        0.0788
     49 C          58.3669   79.8063   12.1766 C.2     1  UNL1        0.1886
     50 O          57.9344   79.2278   11.1451 O.2     1  UNL1       -0.2898
@<TRIPOS>BOND
     1    48    49    1
     2    49    50    2
     3    49    38    1
     4    38    39   ar
     5    39    40   ar
     6    40    41   ar
     7    41    42   ar
     8    42    43   ar
     9    43    44   ar
    10    44    45   ar
    11    45    46   ar
    12    46    37    1
    13    37     1    1
    14     1     2    1
    15     2     3   am
    16     3     4    2
    17     3     6    1
    18     6     7   ar
    19     7     8   ar
    20     8     9   ar
    21     9    13    1
    22    13    14    1
    23    14    15    1
    24    15    16    1
    25    16    19    1
    26    19    20   ar
    27    20    21   ar
    28    21    22   ar
    29    22    23    1
    30    22    24   ar
    31    24    25    1
    32    24    26   ar
    33    16    17    1
    34    17    18    1
    35     9    10   ar
    36    10    11   ar
    37    11    12    1
    38     1    27    1
    39    27    28    2
    40    27    29   am
    41    29    31    1
    42    31    32   ar
    43    32    33   ar
    44    33    34   ar
    45    34    35   ar
    46    35    36   ar
    47    46    38   ar
    48    11     6   ar
    49    36    31   ar
    50    45    40   ar
    51    18    13    1
    52    26    19   ar
    53    39    47    1
    54     2     5    1
    55    29    30    1
@<TRIPOS>MOLECULE
*****
 50 55 0 0 0
SMALL
GASTEIGER

@<TRIPOS>ATOM
      1 C          60.3410   82.8562   13.9345 C.3     1  UNL1        0.1535
      2 N          61.0683   84.1209   13.7435 N.am    1  UNL1       -0.2945
      3 C          61.2961   85.0433   14.8212 C.2     1  UNL1        0.2483
      4 O          60.6919   84.8798   15.9168 O.2     1  UNL1       -0.2701
      5 H          61.3282   84.4242   12.7792 H       1  UNL1        0.1501
      6 C          62.2144   86.2007   14.6664 C.ar    1  UNL1        0.0808
      7 C          62.6842   86.8635   15.8145 C.ar    1  UNL1        0.0080
      8 C          63.5660   87.9415   15.7066 C.ar    1  UNL1        0.0148
      9 C          64.0111   88.3721   14.4489 C.ar    1  UNL1        0.0502
     10 C          63.5491   87.7136   13.2996 C.ar    1  UNL1        0.0443
     11 C          62.6628   86.6373   13.4010 C.ar    1  UNL1        0.1457
     12 F          62.2883   86.0074   12.2597 F       1  UNL1       -0.2040
     13 N          64.9178   89.4853   14.3368 N.pl3   1  UNL1       -0.3040
     14 C          64.3835   90.8354   14.0939 C.3     1  UNL1        0.1122
     15 C          65.5031   91.8269   13.7573 C.3     1  UNL1        0.1122
     16 N          66.4552   91.2034   12.8270 N.pl3   1  UNL1       -0.3040
     17 C          67.0282   89.8852   13.1458 C.3     1  UNL1        0.1122
     18 C          66.3718   89.2762   14.3900 C.3     1  UNL1        0.1122
     19 C          66.7773   91.8337   11.5723 C.ar    1  UNL1        0.0488
     20 C          66.2681   93.1059   11.2643 C.ar    1  UNL1        0.0154
     21 C          66.5689   93.7108   10.0415 C.ar    1  UNL1        0.0135
     22 C          67.3775   93.0535    9.1088 C.ar    1  UNL1        0.0683
     23 CL         67.7334   93.8468    7.5803 Cl      1  UNL1       -0.0814
     24 C          67.8866   91.7779    9.4041 C.ar    1  UNL1        0.0694
     25 CL         68.9068   90.9167    8.2596 Cl      1  UNL1       -0.0813
     26 C          67.5832   91.1732   10.6299 C.ar    1  UNL1        0.0268
     27 C          59.3859   82.5903   12.7932 C.2     1  UNL1        0.2443
     28 O          58.1924   82.2588   13.0342 O.2     1  UNL1       -0.2730
     29 N          59.8112   82.8298   11.4418 N.am    1  UNL1       -0.2825
     30 H          60.7275   83.3123   11.2991 H       1  UNL1        0.1549
     31 C          58.9645   82.6451   10.2954 C.ar    1  UNL1        0.0535
     32 C          57.8930   83.5128   10.0268 C.ar    1  UNL1        0.0353
     33 C          57.0909   83.2890    8.9050 C.ar    1  UNL1        0.1002
     34 N          57.3393   82.2313    8.0881 N.ar    1  UNL1       -0.2422
     35 C          58.3581   81.3659    8.3340 C.ar    1  UNL1        0.1002
     36 C          59.1827   81.5522    9.4460 C.ar    1  UNL1        0.0353
     37 C          61.3109   81.6687   14.1396 C.3     1  UNL1        0.0569
     38 C          61.2782   79.9138   12.1867 C.ar    1  UNL1        0.0878
     39 N          61.8711   79.7694   10.9766 N.ar    1  UNL1       -0.3511
     40 C          62.7508   80.7776   10.8670 C.ar    1  UNL1        0.0564
     41 C          63.6016   81.0378    9.7933 C.ar    1  UNL1        0.0170
     42 C          64.4577   82.1495    9.8855 C.ar    1  UNL1        0.0015
     43 C          64.4521   82.9612   11.0400 C.ar    1  UNL1        0.0001
     44 C          63.5858   82.6722   12.1094 C.ar    1  UNL1        0.0012
     45 C          62.7331   81.5724   11.9841 C.ar    1  UNL1        0.0132
     46 C          61.7814   81.0489   12.8441 C.ar    1  UNL1       -0.0002
     47 H          61.7013   79.0149   10.2744 H       1  UNL1        0.1660
     48 C          58.8845   78.9391   12.1494 C.3     1  UNL1        0.0788
     49 C          60.2729   78.9602   12.7046 C.2     1  UNL1        0.1886
     50 O          60.5906   78.1168   13.5841 O.2     1  UNL1       -0.2898
@<TRIPOS>BOND
     1    48    49    1
     2    49    50    2
     3    49    38    1
     4    38    39   ar
     5    39    40   ar
     6    40    41   ar
     7    41    42   ar
     8    42    43   ar
     9    43    44   ar
    10    44    45   ar
    11    45    46   ar
    12    46    37    1
    13    37     1    1
    14     1     2    1
    15     2     3   am
    16     3     4    2
    17     3     6    1
    18     6     7   ar
    19     7     8   ar
    20     8     9   ar
    21     9    13    1
    22    13    14    1
    23    14    15    1
    24    15    16    1
    25    16    19    1
    26    19    20   ar
    27    20    21   ar
    28    21    22   ar
    29    22    23    1
    30    22    24   ar
    31    24    25    1
    32    24    26   ar
    33    16    17    1
    34    17    18    1
    35     9    10   ar
    36    10    11   ar
    37    11    12    1
    38     1    27    1
    39    27    28    2
    40    27    29   am
    41    29    31    1
    42    31    32   ar
    43    32    33   ar
    44    33    34   ar
    45    34    35   ar
    46    35    36   ar
    47    46    38   ar
    48    11     6   ar
    49    36    31   ar
    50    45    40   ar
    51    18    13    1
    52    26    19   ar
    53    39    47    1
    54     2     5    1
    55    29    30    1
@<TRIPOS>MOLECULE
*****
 50 55 0 0 0
SMALL
GASTEIGER

@<TRIPOS>ATOM
      1 C          60.0809   80.5603   12.6089 C.3     1  UNL1        0.1535
      2 N          60.2649   82.0137   12.7470 N.am    1  UNL1       -0.2945
      3 C          60.8709   82.6016   13.9095 C.2     1  UNL1        0.2483
      4 O          61.0712   81.8903   14.9323 O.2     1  UNL1       -0.2701
      5 H          59.8410   82.6551   12.0411 H       1  UNL1        0.1501
      6 C          61.2488   84.0379   13.9409 C.ar    1  UNL1        0.0808
      7 C          61.4011   84.6814   15.1821 C.ar    1  UNL1        0.0080
      8 C          61.7770   86.0250   15.2490 C.ar    1  UNL1        0.0148
      9 C          62.0247   86.7526   14.0765 C.ar    1  UNL1        0.0502
     10 C          61.8779   86.1162   12.8350 C.ar    1  UNL1        0.0443
     11 C          61.4973   84.7731   12.7616 C.ar    1  UNL1        0.1457
     12 F          61.4189   84.1965   11.5365 F       1  UNL1       -0.2040
     13 N          62.4094   88.1387   14.1446 N.pl3   1  UNL1       -0.3040
     14 C          63.0072   88.7852   12.9649 C.3     1  UNL1        0.1122
     15 C          63.5730   90.1670   13.3118 C.3     1  UNL1        0.1122
     16 N          64.2906   90.1022   14.5930 N.pl3   1  UNL1       -0.3040
     17 C          63.6273   89.5188   15.7709 C.3     1  UNL1        0.1122
     18 C          62.2783   88.8923   15.3998 C.3     1  UNL1        0.1122
     19 C          65.6610   90.5353   14.6910 C.ar    1  UNL1        0.0488
     20 C          66.1164   91.1990   15.8420 C.ar    1  UNL1        0.0154
     21 C          67.4417   91.6316   15.9310 C.ar    1  UNL1        0.0135
     22 C          68.3286   91.4117   14.8722 C.ar    1  UNL1        0.0683
     23 CL         69.9889   91.9715   15.0210 Cl      1  UNL1       -0.0814
     24 C          67.8817   90.7547   13.7137 C.ar    1  UNL1        0.0694
     25 CL         68.9638   90.4583   12.3596 Cl      1  UNL1       -0.0813
     26 C          66.5528   90.3227   13.6264 C.ar    1  UNL1        0.0268
     27 C          59.4320   80.2085   11.2897 C.2     1  UNL1        0.2443
     28 O          58.5343   79.3227   11.2452 O.2     1  UNL1       -0.2730
     29 N          59.7588   80.9666   10.1137 N.am    1  UNL1       -0.2825
     30 H          60.3361   81.8293   10.2368 H       1  UNL1        0.1549
     31 C          59.1659   80.7342    8.8254 C.ar    1  UNL1        0.0535
     32 C          59.9248   80.2596    7.7428 C.ar    1  UNL1        0.0353
     33 C          59.3073   80.0568    6.5061 C.ar    1  UNL1        0.1002
     34 N          57.9848   80.3297    6.3503 N.ar    1  UNL1       -0.2422
     35 C          57.2309   80.8067    7.3757 C.ar    1  UNL1        0.1002
     36 C          57.8095   81.0255    8.6281 C.ar    1  UNL1        0.0353
     37 C          61.4143   79.7987   12.7963 C.3     1  UNL1        0.0569
     38 C          63.7119   80.8505   13.5101 C.ar    1  UNL1        0.0878
     39 N          64.6787   81.6020   12.9294 N.ar    1  UNL1       -0.3511
     40 C          64.2235   81.9199   11.7071 C.ar    1  UNL1        0.0564
     41 C          64.8717   82.6911   10.7430 C.ar    1  UNL1        0.0170
     42 C          64.2098   82.9128    9.5223 C.ar    1  UNL1        0.0015
     43 C          62.9248   82.3738    9.2989 C.ar    1  UNL1        0.0001
     44 C          62.2934   81.6030   10.2912 C.ar    1  UNL1        0.0012
     45 C          62.9809   81.3833   11.4876 C.ar    1  UNL1        0.0132
     46 C          62.6337   80.6751   12.6266 C.ar    1  UNL1       -0.0002
     47 H          65.5877   81.8991   13.3497 H       1  UNL1        0.1660
     48 C          64.2972   81.2283   15.9993 C.3     1  UNL1        0.0788
     49 C          63.8171   80.3415   14.8951 C.2     1  UNL1        0.1886
     50 O          63.4519   79.1682   15.1705 O.2     1  UNL1       -0.2898
@<TRIPOS>BOND
     1    48    49    1
     2    49    50    2
     3    49    38    1
     4    38    39   ar
     5    39    40   ar
     6    40    41   ar
     7    41    42   ar
     8    42    43   ar
     9    43    44   ar
    10    44    45   ar
    11    45    46   ar
    12    46    37    1
    13    37     1    1
    14     1     2    1
    15     2     3   am
    16     3     4    2
    17     3     6    1
    18     6     7   ar
    19     7     8   ar
    20     8     9   ar
    21     9    13    1
    22    13    14    1
    23    14    15    1
    24    15    16    1
    25    16    19    1
    26    19    20   ar
    27    20    21   ar
    28    21    22   ar
    29    22    23    1
    30    22    24   ar
    31    24    25    1
    32    24    26   ar
    33    16    17    1
    34    17    18    1
    35     9    10   ar
    36    10    11   ar
    37    11    12    1
    38     1    27    1
    39    27    28    2
    40    27    29   am
    41    29    31    1
    42    31    32   ar
    43    32    33   ar
    44    33    34   ar
    45    34    35   ar
    46    35    36   ar
    47    46    38   ar
    48    11     6   ar
    49    36    31   ar
    50    45    40   ar
    51    18    13    1
    52    26    19   ar
    53    39    47    1
    54     2     5    1
    55    29    30    1
@<TRIPOS>MOLECULE
*****
 50 55 0 0 0
SMALL
GASTEIGER

@<TRIPOS>ATOM
      1 C          60.5144   80.5504    9.5257 C.3     1  UNL1        0.1535
      2 N          60.5965   81.9394    9.0472 N.am    1  UNL1       -0.2945
      3 C          59.8367   82.4075    7.9213 C.2     1  UNL1        0.2483
      4 O          59.2354   81.5748    7.1885 O.2     1  UNL1       -0.2701
      5 H          61.3114   82.5821    9.4541 H       1  UNL1        0.1501
      6 C          59.7606   83.8532    7.5879 C.ar    1  UNL1        0.0808
      7 C          58.5186   84.5095    7.6557 C.ar    1  UNL1        0.0080
      8 C          58.4144   85.8729    7.3703 C.ar    1  UNL1        0.0148
      9 C          59.5524   86.6155    7.0255 C.ar    1  UNL1        0.0502
     10 C          60.7951   85.9680    6.9589 C.ar    1  UNL1        0.0443
     11 C          60.9048   84.6028    7.2389 C.ar    1  UNL1        0.1457
     12 F          62.1386   84.0404    7.2070 F       1  UNL1       -0.2040
     13 N          59.4453   88.0205    6.7281 N.pl3   1  UNL1       -0.3040
     14 C          58.3434   88.5008    5.8783 C.3     1  UNL1        0.1122
     15 C          58.5459   89.9662    5.4763 C.3     1  UNL1        0.1122
     16 N          59.9504   90.1894    5.1045 N.pl3   1  UNL1       -0.3040
     17 C          61.0227   89.7648    6.0198 C.3     1  UNL1        0.1122
     18 C          60.4640   88.9673    7.2038 C.3     1  UNL1        0.1122
     19 C          60.2914   90.7513    3.8227 C.ar    1  UNL1        0.0488
     20 C          59.2841   91.1946    2.9500 C.ar    1  UNL1        0.0154
     21 C          59.6144   91.7264    1.7011 C.ar    1  UNL1        0.0135
     22 C          60.9524   91.8192    1.3047 C.ar    1  UNL1        0.0683
     23 CL         61.3284   92.4937   -0.2751 Cl      1  UNL1       -0.0814
     24 C          61.9673   91.3727    2.1673 C.ar    1  UNL1        0.0694
     25 CL         63.6619   91.4710    1.7080 Cl      1  UNL1       -0.0813
     26 C          61.6340   90.8393    3.4182 C.ar    1  UNL1        0.0268
     27 C          61.4399   80.3139   10.6973 C.2     1  UNL1        0.2443
     28 O          62.1446   79.2681   10.7429 O.2     1  UNL1       -0.2730
     29 N          61.5980   81.3365   11.6942 N.am    1  UNL1       -0.2825
     30 H          61.1690   82.2706   11.5042 H       1  UNL1        0.1549
     31 C          62.4828   81.2212   12.8208 C.ar    1  UNL1        0.0535
     32 C          62.1845   80.3797   13.9053 C.ar    1  UNL1        0.0353
     33 C          63.0704   80.3062   14.9832 C.ar    1  UNL1        0.1002
     34 N          64.2053   81.0542   14.9864 N.ar    1  UNL1       -0.2422
     35 C          64.5098   81.8901   13.9587 C.ar    1  UNL1        0.1002
     36 C          63.6503   81.9949   12.8626 C.ar    1  UNL1        0.0353
     37 C          59.0600   80.1547    9.8738 C.3     1  UNL1        0.0569
     38 C          58.4980   80.0834   12.4377 C.ar    1  UNL1        0.0878
     39 N          58.1649   80.9750   13.4026 N.ar    1  UNL1       -0.3511
     40 C          58.0191   82.1585   12.7858 C.ar    1  UNL1        0.0564
     41 C          57.6708   83.3747   13.3721 C.ar    1  UNL1        0.0170
     42 C          57.5624   84.5013   12.5376 C.ar    1  UNL1        0.0015
     43 C          57.7916   84.3865   11.1498 C.ar    1  UNL1        0.0001
     44 C          58.1376   83.1459   10.5854 C.ar    1  UNL1        0.0012
     45 C          58.2560   82.0467   11.4398 C.ar    1  UNL1        0.0132
     46 C          58.5831   80.7238   11.1902 C.ar    1  UNL1       -0.0002
     47 H          58.0243   80.7840   14.4199 H       1  UNL1        0.1660
     48 C          58.9871   78.1652   14.0999 C.3     1  UNL1        0.0788
     49 C          58.6988   78.6439   12.7127 C.2     1  UNL1        0.1886
     50 O          58.5760   77.7971   11.7889 O.2     1  UNL1       -0.2898
@<TRIPOS>BOND
     1    48    49    1
     2    49    50    2
     3    49    38    1
     4    38    39   ar
     5    39    40   ar
     6    40    41   ar
     7    41    42   ar
     8    42    43   ar
     9    43    44   ar
    10    44    45   ar
    11    45    46   ar
    12    46    37    1
    13    37     1    1
    14     1     2    1
    15     2     3   am
    16     3     4    2
    17     3     6    1
    18     6     7   ar
    19     7     8   ar
    20     8     9   ar
    21     9    13    1
    22    13    14    1
    23    14    15    1
    24    15    16    1
    25    16    19    1
    26    19    20   ar
    27    20    21   ar
    28    21    22   ar
    29    22    23    1
    30    22    24   ar
    31    24    25    1
    32    24    26   ar
    33    16    17    1
    34    17    18    1
    35     9    10   ar
    36    10    11   ar
    37    11    12    1
    38     1    27    1
    39    27    28    2
    40    27    29   am
    41    29    31    1
    42    31    32   ar
    43    32    33   ar
    44    33    34   ar
    45    34    35   ar
    46    35    36   ar
    47    46    38   ar
    48    11     6   ar
    49    36    31   ar
    50    45    40   ar
    51    18    13    1
    52    26    19   ar
    53    39    47    1
    54     2     5    1
    55    29    30    1
