@<TRIPOS>MOLECULE
*****
 42 46 0 0 0
SMALL
GASTEIGER

@<TRIPOS>ATOM
      1 C         -31.4653   49.6173   -8.4327 C.3     1  UNL1        0.1333
      2 N         -30.0527   49.4288   -8.1016 N.ar    1  UNL1       -0.2950
      3 C         -29.5226   48.8348   -6.9995 C.ar    1  UNL1        0.2018
      4 N         -28.1655   48.8624   -6.9692 N.ar    1  UNL1       -0.2136
      5 C         -27.8437   49.5053   -8.1077 C.ar    1  UNL1        0.1016
      6 C         -26.5590   49.8364   -8.5622 C.ar    1  UNL1        0.0337
      7 C         -26.4660   50.5801   -9.7730 C.ar    1  UNL1        0.0905
      8 C         -27.6450   50.9535  -10.4661 C.ar    1  UNL1        0.1780
      9 C         -28.9145   50.6141   -9.9608 C.ar    1  UNL1        0.1896
     10 C         -28.9765   49.8621   -8.7862 C.ar    1  UNL1        0.1171
     11 O         -30.0590   51.0466  -10.6376 O.3     1  UNL1       -0.4669
     12 C         -29.9783   52.0342  -11.6673 C.3     1  UNL1        0.2527
     13 C         -28.7191   51.8140  -12.5139 C.3     1  UNL1        0.2526
     14 O         -27.5754   51.6686  -11.6688 O.3     1  UNL1       -0.4682
     15 C         -25.1619   50.9812  -10.3270 C.2     1  UNL1        0.2524
     16 O         -24.7393   50.4158  -11.3711 O.2     1  UNL1       -0.2697
     17 N         -24.3909   52.0066   -9.6809 N.am    1  UNL1       -0.2803
     18 H         -24.8485   52.5566   -8.9188 H       1  UNL1        0.1552
     19 C         -23.0672   52.3927  -10.0854 C.ar    1  UNL1        0.0506
     20 C         -22.8854   53.0165  -11.3264 C.ar    1  UNL1        0.0170
     21 C         -21.6146   53.4273  -11.7311 C.ar    1  UNL1        0.0309
     22 C         -20.5116   53.2293  -10.8970 C.ar    1  UNL1        0.1441
     23 F         -19.2892   53.6526  -11.3084 F       1  UNL1       -0.2042
     24 C         -20.6720   52.6142   -9.6413 C.ar    1  UNL1        0.1000
     25 C         -21.9607   52.2169   -9.2350 C.ar    1  UNL1        0.0208
     26 C         -19.4790   52.4440   -8.7308 C.3     1  UNL1        0.4207
     27 F         -18.8548   53.6529   -8.4746 F       1  UNL1       -0.1658
     28 F         -18.5674   51.5914   -9.3258 F       1  UNL1       -0.1658
     29 F         -19.8840   51.9019   -7.5242 F       1  UNL1       -0.1658
     30 C         -25.3453   49.5032   -7.7252 C.3     1  UNL1        0.1654
     31 O         -25.3759   48.1541   -7.3490 O.3     1  UNL1       -0.3772
     32 H         -25.1375   47.6296   -8.1578 H       1  UNL1        0.2109
     33 N         -30.3097   48.3015   -5.9233 N.pl3   1  UNL1       -0.2814
     34 H         -31.3495   48.3644   -5.9835 H       1  UNL1        0.1551
     35 C         -29.7254   47.8611   -4.6866 C.ar    1  UNL1        0.0889
     36 C         -29.6776   48.7205   -3.5710 C.ar    1  UNL1        0.1543
     37 F         -30.1575   49.9872   -3.6515 F       1  UNL1       -0.2028
     38 C         -29.0952   48.2904   -2.3752 C.ar    1  UNL1        0.0310
     39 C         -28.5477   47.0098   -2.2819 C.ar    1  UNL1        0.0033
     40 C         -28.5744   46.1561   -3.3864 C.ar    1  UNL1        0.0128
     41 C         -29.1542   46.5759   -4.5894 C.ar    1  UNL1        0.0733
     42 CL        -29.1868   45.4570   -5.9464 Cl      1  UNL1       -0.0809
@<TRIPOS>BOND
     1     1     2    1
     2     2     3   ar
     3     3    33    1
     4    33    35    1
     5    35    36   ar
     6    36    37    1
     7    36    38   ar
     8    38    39   ar
     9    39    40   ar
    10    40    41   ar
    11    41    42    1
    12     3     4   ar
    13     4     5   ar
    14     5     6   ar
    15     6    30    1
    16    30    31    1
    17     6     7   ar
    18     7    15    1
    19    15    16    2
    20    15    17   am
    21    17    19    1
    22    19    20   ar
    23    20    21   ar
    24    21    22   ar
    25    22    23    1
    26    22    24   ar
    27    24    26    1
    28    26    27    1
    29    26    28    1
    30    26    29    1
    31    24    25   ar
    32     7     8   ar
    33     8     9   ar
    34     9    10   ar
    35     9    11    1
    36    11    12    1
    37    12    13    1
    38    13    14    1
    39    10     2   ar
    40    41    35   ar
    41    10     5   ar
    42    25    19   ar
    43    14     8    1
    44    33    34    1
    45    31    32    1
    46    17    18    1
@<TRIPOS>MOLECULE
*****
 42 46 0 0 0
SMALL
GASTEIGER

@<TRIPOS>ATOM
      1 C         -31.3157   48.9886   -8.4587 C.3     1  UNL1        0.1333
      2 N         -29.8765   48.8938   -8.2134 N.ar    1  UNL1       -0.2950
      3 C         -29.2407   48.2621   -7.1910 C.ar    1  UNL1        0.2018
      4 N         -27.8906   48.4007   -7.2245 N.ar    1  UNL1       -0.2136
      5 C         -27.6843   49.1552   -8.3206 C.ar    1  UNL1        0.1016
      6 C         -26.4570   49.6271   -8.8082 C.ar    1  UNL1        0.0337
      7 C         -26.4904   50.4682   -9.9568 C.ar    1  UNL1        0.0905
      8 C         -27.7318   50.7946  -10.5586 C.ar    1  UNL1        0.1780
      9 C         -28.9405   50.3116  -10.0218 C.ar    1  UNL1        0.1896
     10 C         -28.8776   49.4678   -8.9115 C.ar    1  UNL1        0.1171
     11 O         -30.1514   50.6984  -10.6043 O.3     1  UNL1       -0.4669
     12 C         -30.2065   51.7666  -11.5520 C.3     1  UNL1        0.2527
     13 C         -28.9824   51.7193  -12.4740 C.3     1  UNL1        0.2526
     14 O         -27.7858   51.6047  -11.7003 O.3     1  UNL1       -0.4682
     15 C         -25.2549   51.0190  -10.5387 C.2     1  UNL1        0.2524
     16 O         -24.8399   50.5651  -11.6388 O.2     1  UNL1       -0.2697
     17 N         -24.5414   52.0621   -9.8558 N.am    1  UNL1       -0.2803
     18 H         -25.0044   52.5168   -9.0363 H       1  UNL1        0.1552
     19 C         -23.2775   52.5896  -10.2908 C.ar    1  UNL1        0.0506
     20 C         -23.1471   53.9685  -10.5010 C.ar    1  UNL1        0.0170
     21 C         -21.9231   54.5102  -10.8958 C.ar    1  UNL1        0.0309
     22 C         -20.8120   53.6829  -11.0755 C.ar    1  UNL1        0.1441
     23 F         -19.6293   54.2378  -11.4445 F       1  UNL1       -0.2042
     24 C         -20.9167   52.2960  -10.8597 C.ar    1  UNL1        0.1000
     25 C         -22.1520   51.7604  -10.4466 C.ar    1  UNL1        0.0208
     26 C         -19.6979   51.4177  -11.0160 C.3     1  UNL1        0.4207
     27 F         -20.0142   50.0762  -10.8859 F       1  UNL1       -0.1658
     28 F         -18.7676   51.7500  -10.0485 F       1  UNL1       -0.1658
     29 F         -19.1383   51.6111  -12.2664 F       1  UNL1       -0.1658
     30 C         -25.1762   49.3324   -8.0615 C.3     1  UNL1        0.1654
     31 O         -24.6799   50.5045   -7.4763 O.3     1  UNL1       -0.3772
     32 H         -25.2588   50.6963   -6.6927 H       1  UNL1        0.2109
     33 N         -29.9223   47.5824   -6.1253 N.pl3   1  UNL1       -0.2814
     34 H         -30.9008   47.8632   -5.8962 H       1  UNL1        0.1551
     35 C         -29.2517   46.6703   -5.2403 C.ar    1  UNL1        0.0889
     36 C         -29.0860   45.3174   -5.5974 C.ar    1  UNL1        0.1543
     37 F         -29.5793   44.8451   -6.7700 F       1  UNL1       -0.2028
     38 C         -28.4449   44.4324   -4.7255 C.ar    1  UNL1        0.0310
     39 C         -27.9739   44.8814   -3.4907 C.ar    1  UNL1        0.0033
     40 C         -28.1480   46.2161   -3.1195 C.ar    1  UNL1        0.0128
     41 C         -28.7890   47.1114   -3.9838 C.ar    1  UNL1        0.0733
     42 CL        -28.9636   48.7889   -3.4838 Cl      1  UNL1       -0.0809
@<TRIPOS>BOND
     1     1     2    1
     2     2     3   ar
     3     3    33    1
     4    33    35    1
     5    35    36   ar
     6    36    37    1
     7    36    38   ar
     8    38    39   ar
     9    39    40   ar
    10    40    41   ar
    11    41    42    1
    12     3     4   ar
    13     4     5   ar
    14     5     6   ar
    15     6    30    1
    16    30    31    1
    17     6     7   ar
    18     7    15    1
    19    15    16    2
    20    15    17   am
    21    17    19    1
    22    19    20   ar
    23    20    21   ar
    24    21    22   ar
    25    22    23    1
    26    22    24   ar
    27    24    26    1
    28    26    27    1
    29    26    28    1
    30    26    29    1
    31    24    25   ar
    32     7     8   ar
    33     8     9   ar
    34     9    10   ar
    35     9    11    1
    36    11    12    1
    37    12    13    1
    38    13    14    1
    39    10     2   ar
    40    41    35   ar
    41    10     5   ar
    42    25    19   ar
    43    14     8    1
    44    33    34    1
    45    31    32    1
    46    17    18    1
@<TRIPOS>MOLECULE
*****
 42 46 0 0 0
SMALL
GASTEIGER

@<TRIPOS>ATOM
      1 C         -29.8305   49.6354   -6.3092 C.3     1  UNL1        0.1333
      2 N         -29.5845   48.3547   -6.9723 N.ar    1  UNL1       -0.2950
      3 C         -29.2176   47.1746   -6.4055 C.ar    1  UNL1        0.2018
      4 N         -29.0222   46.1783   -7.3068 N.ar    1  UNL1       -0.2136
      5 C         -29.2807   46.7736   -8.4866 C.ar    1  UNL1        0.1016
      6 C         -29.1974   46.1999   -9.7637 C.ar    1  UNL1        0.0337
      7 C         -29.4568   47.0472  -10.8784 C.ar    1  UNL1        0.0905
      8 C         -29.7841   48.4107  -10.6695 C.ar    1  UNL1        0.1780
      9 C         -29.8376   48.9465   -9.3686 C.ar    1  UNL1        0.1896
     10 C         -29.6050   48.0881   -8.2926 C.ar    1  UNL1        0.1171
     11 O         -30.1067   50.3081   -9.1994 O.3     1  UNL1       -0.4669
     12 C         -30.0674   51.2112  -10.3062 C.3     1  UNL1        0.2527
     13 C         -30.6539   50.5430  -11.5553 C.3     1  UNL1        0.2526
     14 O         -30.0616   49.2568  -11.7511 O.3     1  UNL1       -0.4682
     15 C         -29.3871   46.5392  -12.2588 C.2     1  UNL1        0.2524
     16 O         -28.4878   45.7099  -12.5622 O.2     1  UNL1       -0.2697
     17 N         -30.3381   46.9860  -13.2383 N.am    1  UNL1       -0.2803
     18 H         -31.1577   47.5436  -12.9065 H       1  UNL1        0.1552
     19 C         -30.2887   46.6277  -14.6290 C.ar    1  UNL1        0.0506
     20 C         -30.6771   45.3393  -15.0181 C.ar    1  UNL1        0.0170
     21 C         -30.6658   44.9747  -16.3651 C.ar    1  UNL1        0.0309
     22 C         -30.2764   45.8955  -17.3407 C.ar    1  UNL1        0.1441
     23 F         -30.2896   45.5197  -18.6451 F       1  UNL1       -0.2042
     24 C         -29.8922   47.1990  -16.9741 C.ar    1  UNL1        0.1000
     25 C         -29.9214   47.5625  -15.6138 C.ar    1  UNL1        0.0208
     26 C         -29.5139   48.1983  -18.0416 C.3     1  UNL1        0.4207
     27 F         -30.6027   48.5512  -18.8206 F       1  UNL1       -0.1658
     28 F         -28.5431   47.6491  -18.8589 F       1  UNL1       -0.1658
     29 F         -29.0130   49.3456  -17.4529 F       1  UNL1       -0.1658
     30 C         -28.7399   44.7687   -9.9278 C.3     1  UNL1        0.1654
     31 O         -27.4210   44.7361  -10.3989 O.3     1  UNL1       -0.3772
     32 H         -26.8406   44.9824   -9.6317 H       1  UNL1        0.2109
     33 N         -28.9741   47.0053   -5.0004 N.pl3   1  UNL1       -0.2814
     34 H         -29.5962   47.4954   -4.3209 H       1  UNL1        0.1551
     35 C         -27.7995   46.3489   -4.4959 C.ar    1  UNL1        0.0889
     36 C         -27.7147   44.9425   -4.4833 C.ar    1  UNL1        0.1543
     37 F         -28.7496   44.1823   -4.9218 F       1  UNL1       -0.2028
     38 C         -26.5747   44.3103   -3.9782 C.ar    1  UNL1        0.0310
     39 C         -25.5172   45.0685   -3.4733 C.ar    1  UNL1        0.0033
     40 C         -25.5978   46.4624   -3.4652 C.ar    1  UNL1        0.0128
     41 C         -26.7346   47.1067   -3.9677 C.ar    1  UNL1        0.0733
     42 CL        -26.7809   48.8652   -3.9596 Cl      1  UNL1       -0.0809
@<TRIPOS>BOND
     1     1     2    1
     2     2     3   ar
     3     3    33    1
     4    33    35    1
     5    35    36   ar
     6    36    37    1
     7    36    38   ar
     8    38    39   ar
     9    39    40   ar
    10    40    41   ar
    11    41    42    1
    12     3     4   ar
    13     4     5   ar
    14     5     6   ar
    15     6    30    1
    16    30    31    1
    17     6     7   ar
    18     7    15    1
    19    15    16    2
    20    15    17   am
    21    17    19    1
    22    19    20   ar
    23    20    21   ar
    24    21    22   ar
    25    22    23    1
    26    22    24   ar
    27    24    26    1
    28    26    27    1
    29    26    28    1
    30    26    29    1
    31    24    25   ar
    32     7     8   ar
    33     8     9   ar
    34     9    10   ar
    35     9    11    1
    36    11    12    1
    37    12    13    1
    38    13    14    1
    39    10     2   ar
    40    41    35   ar
    41    10     5   ar
    42    25    19   ar
    43    14     8    1
    44    33    34    1
    45    31    32    1
    46    17    18    1
@<TRIPOS>MOLECULE
*****
 42 46 0 0 0
SMALL
GASTEIGER

@<TRIPOS>ATOM
      1 C         -27.1917   51.3413  -11.4057 C.3     1  UNL1        0.1333
      2 N         -27.0504   51.5021   -9.9584 N.ar    1  UNL1       -0.2950
      3 C         -26.2222   52.3450   -9.2860 C.ar    1  UNL1        0.2018
      4 N         -26.2984   52.2171   -7.9365 N.ar    1  UNL1       -0.2136
      5 C         -27.2179   51.2478   -7.7691 C.ar    1  UNL1        0.1016
      6 C         -27.6593   50.6958   -6.5578 C.ar    1  UNL1        0.0337
      7 C         -28.5986   49.6279   -6.6306 C.ar    1  UNL1        0.0905
      8 C         -29.0489   49.1667   -7.8933 C.ar    1  UNL1        0.1780
      9 C         -28.5628   49.7402   -9.0837 C.ar    1  UNL1        0.1896
     10 C         -27.6631   50.8029   -8.9835 C.ar    1  UNL1        0.1171
     11 O         -28.9831   49.2246  -10.3136 O.3     1  UNL1       -0.4669
     12 C         -29.6767   47.9777  -10.3927 C.3     1  UNL1        0.2527
     13 C         -30.6525   47.8398   -9.2181 C.3     1  UNL1        0.2526
     14 O         -29.9870   48.1305   -7.9869 O.3     1  UNL1       -0.4682
     15 C         -29.1156   48.9788   -5.4141 C.2     1  UNL1        0.2524
     16 O         -30.3062   49.1958   -5.0622 O.2     1  UNL1       -0.2697
     17 N         -28.2677   48.1087   -4.6477 N.am    1  UNL1       -0.2803
     18 H         -27.3484   47.8317   -5.0612 H       1  UNL1        0.1552
     19 C         -28.6476   47.5134   -3.3962 C.ar    1  UNL1        0.0506
     20 C         -28.3409   46.1675   -3.1574 C.ar    1  UNL1        0.0170
     21 C         -28.6730   45.5728   -1.9394 C.ar    1  UNL1        0.0309
     22 C         -29.3060   46.3175   -0.9414 C.ar    1  UNL1        0.1441
     23 F         -29.6037   45.7186    0.2399 F       1  UNL1       -0.2042
     24 C         -29.6142   47.6741   -1.1550 C.ar    1  UNL1        0.1000
     25 C         -29.2615   48.2697   -2.3815 C.ar    1  UNL1        0.0208
     26 C         -30.2603   48.4798   -0.0529 C.3     1  UNL1        0.4207
     27 F         -29.3819   48.7143    0.9913 F       1  UNL1       -0.1658
     28 F         -31.3557   47.7913    0.4352 F       1  UNL1       -0.1658
     29 F         -30.6788   49.7014   -0.5491 F       1  UNL1       -0.1658
     30 C         -27.0630   51.1575   -5.2479 C.3     1  UNL1        0.1654
     31 O         -26.9769   52.5556   -5.2247 O.3     1  UNL1       -0.3772
     32 H         -27.9003   52.8934   -5.0860 H       1  UNL1        0.2109
     33 N         -25.2907   53.2297   -9.9278 N.pl3   1  UNL1       -0.2814
     34 H         -25.6425   54.1315  -10.3174 H       1  UNL1        0.1551
     35 C         -23.9394   52.8415  -10.2250 C.ar    1  UNL1        0.0889
     36 C         -23.5906   51.4798  -10.3229 C.ar    1  UNL1        0.1543
     37 F         -24.5167   50.5107  -10.1123 F       1  UNL1       -0.2028
     38 C         -22.2711   51.1090  -10.5985 C.ar    1  UNL1        0.0310
     39 C         -21.2885   52.0857  -10.7683 C.ar    1  UNL1        0.0033
     40 C         -21.6197   53.4374  -10.6565 C.ar    1  UNL1        0.0128
     41 C         -22.9374   53.8209  -10.3801 C.ar    1  UNL1        0.0733
     42 CL        -23.3125   55.5362  -10.2728 Cl      1  UNL1       -0.0809
@<TRIPOS>BOND
     1     1     2    1
     2     2     3   ar
     3     3    33    1
     4    33    35    1
     5    35    36   ar
     6    36    37    1
     7    36    38   ar
     8    38    39   ar
     9    39    40   ar
    10    40    41   ar
    11    41    42    1
    12     3     4   ar
    13     4     5   ar
    14     5     6   ar
    15     6    30    1
    16    30    31    1
    17     6     7   ar
    18     7    15    1
    19    15    16    2
    20    15    17   am
    21    17    19    1
    22    19    20   ar
    23    20    21   ar
    24    21    22   ar
    25    22    23    1
    26    22    24   ar
    27    24    26    1
    28    26    27    1
    29    26    28    1
    30    26    29    1
    31    24    25   ar
    32     7     8   ar
    33     8     9   ar
    34     9    10   ar
    35     9    11    1
    36    11    12    1
    37    12    13    1
    38    13    14    1
    39    10     2   ar
    40    41    35   ar
    41    10     5   ar
    42    25    19   ar
    43    14     8    1
    44    33    34    1
    45    31    32    1
    46    17    18    1
@<TRIPOS>MOLECULE
*****
 42 46 0 0 0
SMALL
GASTEIGER

@<TRIPOS>ATOM
      1 C         -30.4109   50.0644   -5.8234 C.3     1  UNL1        0.1333
      2 N         -30.6007   48.7927   -6.5213 N.ar    1  UNL1       -0.2950
      3 C         -30.9541   47.5912   -5.9921 C.ar    1  UNL1        0.2018
      4 N         -31.0004   46.5889   -6.9068 N.ar    1  UNL1       -0.2136
      5 C         -30.6581   47.2025   -8.0555 C.ar    1  UNL1        0.1016
      6 C         -30.5173   46.6169   -9.3220 C.ar    1  UNL1        0.0337
      7 C         -30.0803   47.4573  -10.3852 C.ar    1  UNL1        0.0905
      8 C         -29.8083   48.8266  -10.1384 C.ar    1  UNL1        0.1780
      9 C         -29.9463   49.3657   -8.8451 C.ar    1  UNL1        0.1896
     10 C         -30.4015   48.5264   -7.8267 C.ar    1  UNL1        0.1171
     11 O         -29.6151   50.7059   -8.6230 O.3     1  UNL1       -0.4669
     12 C         -28.8987   51.4610   -9.6021 C.3     1  UNL1        0.2527
     13 C         -29.3824   51.0951  -11.0102 C.3     1  UNL1        0.2526
     14 O         -29.3958   49.6751  -11.1740 O.3     1  UNL1       -0.4682
     15 C         -29.8958   46.9333  -11.7490 C.2     1  UNL1        0.2524
     16 O         -29.1127   45.9629  -11.9321 O.2     1  UNL1       -0.2697
     17 N         -30.6060   47.5247  -12.8487 N.am    1  UNL1       -0.2803
     18 H         -31.3608   48.2141  -12.6303 H       1  UNL1        0.1552
     19 C         -30.4148   47.1516  -14.2232 C.ar    1  UNL1        0.0506
     20 C         -30.7362   45.8503  -14.6302 C.ar    1  UNL1        0.0170
     21 C         -30.5870   45.4705  -15.9648 C.ar    1  UNL1        0.0309
     22 C         -30.1249   46.3886  -16.9108 C.ar    1  UNL1        0.1441
     23 F         -30.0040   45.9976  -18.2051 F       1  UNL1       -0.2042
     24 C         -29.8059   47.7046  -16.5267 C.ar    1  UNL1        0.1000
     25 C         -29.9742   48.0831  -15.1807 C.ar    1  UNL1        0.0208
     26 C         -29.3477   48.6999  -17.5663 C.3     1  UNL1        0.4207
     27 F         -30.2979   48.8781  -18.5574 F       1  UNL1       -0.1658
     28 F         -28.1784   48.2469  -18.1492 F       1  UNL1       -0.1658
     29 F         -29.1100   49.9250  -16.9694 F       1  UNL1       -0.1658
     30 C         -30.7191   45.1296   -9.5005 C.3     1  UNL1        0.1654
     31 O         -30.0250   44.4272   -8.5067 O.3     1  UNL1       -0.3772
     32 H         -30.5428   44.5398   -7.6669 H       1  UNL1        0.2109
     33 N         -31.1770   47.3705   -4.5908 N.pl3   1  UNL1       -0.2814
     34 H         -32.0382   47.7638   -4.1519 H       1  UNL1        0.1551
     35 C         -30.1760   46.7998   -3.7322 C.ar    1  UNL1        0.0889
     36 C         -29.3523   47.6277   -2.9438 C.ar    1  UNL1        0.1543
     37 F         -29.4706   48.9783   -3.0004 F       1  UNL1       -0.2028
     38 C         -28.3710   47.0665   -2.1213 C.ar    1  UNL1        0.0310
     39 C         -28.1940   45.6825   -2.0837 C.ar    1  UNL1        0.0033
     40 C         -28.9933   44.8539   -2.8737 C.ar    1  UNL1        0.0128
     41 C         -29.9786   45.4043   -3.7019 C.ar    1  UNL1        0.0733
     42 CL        -30.9780   44.3196   -4.6606 Cl      1  UNL1       -0.0809
@<TRIPOS>BOND
     1     1     2    1
     2     2     3   ar
     3     3    33    1
     4    33    35    1
     5    35    36   ar
     6    36    37    1
     7    36    38   ar
     8    38    39   ar
     9    39    40   ar
    10    40    41   ar
    11    41    42    1
    12     3     4   ar
    13     4     5   ar
    14     5     6   ar
    15     6    30    1
    16    30    31    1
    17     6     7   ar
    18     7    15    1
    19    15    16    2
    20    15    17   am
    21    17    19    1
    22    19    20   ar
    23    20    21   ar
    24    21    22   ar
    25    22    23    1
    26    22    24   ar
    27    24    26    1
    28    26    27    1
    29    26    28    1
    30    26    29    1
    31    24    25   ar
    32     7     8   ar
    33     8     9   ar
    34     9    10   ar
    35     9    11    1
    36    11    12    1
    37    12    13    1
    38    13    14    1
    39    10     2   ar
    40    41    35   ar
    41    10     5   ar
    42    25    19   ar
    43    14     8    1
    44    33    34    1
    45    31    32    1
    46    17    18    1
@<TRIPOS>MOLECULE
*****
 42 46 0 0 0
SMALL
GASTEIGER

@<TRIPOS>ATOM
      1 C         -26.8755   51.1322   -4.9805 C.3     1  UNL1        0.1333
      2 N         -27.5346   49.8993   -5.4117 N.ar    1  UNL1       -0.2950
      3 C         -27.9370   48.8518   -4.6440 C.ar    1  UNL1        0.2018
      4 N         -28.4780   47.8323   -5.3591 N.ar    1  UNL1       -0.2136
      5 C         -28.4047   48.2728   -6.6295 C.ar    1  UNL1        0.1016
      6 C         -28.8004   47.5906   -7.7891 C.ar    1  UNL1        0.0337
      7 C         -28.5658   48.2341   -9.0376 C.ar    1  UNL1        0.0905
      8 C         -27.9555   49.5132   -9.0704 C.ar    1  UNL1        0.1780
      9 C         -27.5581   50.1514   -7.8800 C.ar    1  UNL1        0.1896
     10 C         -27.8237   49.5104   -6.6686 C.ar    1  UNL1        0.1171
     11 O         -26.9069   51.3868   -7.9498 O.3     1  UNL1       -0.4669
     12 C         -26.4043   51.8870   -9.1905 C.3     1  UNL1        0.2527
     13 C         -27.3782   51.5563  -10.3275 C.3     1  UNL1        0.2526
     14 O         -27.7330   50.1722  -10.2865 O.3     1  UNL1       -0.4682
     15 C         -28.9397   47.5950  -10.3105 C.2     1  UNL1        0.2524
     16 O         -28.3196   46.5633  -10.6840 O.2     1  UNL1       -0.2697
     17 N         -30.0009   48.1456  -11.1070 N.am    1  UNL1       -0.2803
     18 H         -30.5902   48.8987  -10.6847 H       1  UNL1        0.1552
     19 C         -30.3680   47.6554  -12.4070 C.ar    1  UNL1        0.0506
     20 C         -31.1776   46.5165  -12.5055 C.ar    1  UNL1        0.0170
     21 C         -31.5722   46.0363  -13.7549 C.ar    1  UNL1        0.0309
     22 C         -31.1716   46.6936  -14.9206 C.ar    1  UNL1        0.1441
     23 F         -31.5826   46.2145  -16.1224 F       1  UNL1       -0.2042
     24 C         -30.3668   47.8459  -14.8456 C.ar    1  UNL1        0.1000
     25 C         -29.9863   48.3319  -13.5797 C.ar    1  UNL1        0.0208
     26 C         -29.9755   48.5720  -16.1108 C.3     1  UNL1        0.4207
     27 F         -29.0655   49.5844  -15.8588 F       1  UNL1       -0.1658
     28 F         -31.1038   49.1236  -16.6893 F       1  UNL1       -0.1658
     29 F         -29.3992   47.6840  -17.0015 F       1  UNL1       -0.1658
     30 C         -29.3479   46.1847   -7.6968 C.3     1  UNL1        0.1654
     31 O         -28.5919   45.4326   -6.7882 O.3     1  UNL1       -0.3772
     32 H         -28.8489   45.7438   -5.8809 H       1  UNL1        0.2109
     33 N         -27.7386   48.7802   -3.2235 N.pl3   1  UNL1       -0.2814
     34 H         -26.9945   49.3700   -2.7907 H       1  UNL1        0.1551
     35 C         -28.3874   47.7942   -2.4040 C.ar    1  UNL1        0.0889
     36 C         -29.5685   48.1099   -1.7034 C.ar    1  UNL1        0.1543
     37 F         -30.0999   49.3567   -1.7682 F       1  UNL1       -0.2028
     38 C         -30.1867   47.1499   -0.8968 C.ar    1  UNL1        0.0310
     39 C         -29.6319   45.8752   -0.7721 C.ar    1  UNL1        0.0033
     40 C         -28.4525   45.5570   -1.4483 C.ar    1  UNL1        0.0128
     41 C         -27.8239   46.5102   -2.2583 C.ar    1  UNL1        0.0733
     42 CL        -26.3534   46.0561   -3.1103 Cl      1  UNL1       -0.0809
@<TRIPOS>BOND
     1     1     2    1
     2     2     3   ar
     3     3    33    1
     4    33    35    1
     5    35    36   ar
     6    36    37    1
     7    36    38   ar
     8    38    39   ar
     9    39    40   ar
    10    40    41   ar
    11    41    42    1
    12     3     4   ar
    13     4     5   ar
    14     5     6   ar
    15     6    30    1
    16    30    31    1
    17     6     7   ar
    18     7    15    1
    19    15    16    2
    20    15    17   am
    21    17    19    1
    22    19    20   ar
    23    20    21   ar
    24    21    22   ar
    25    22    23    1
    26    22    24   ar
    27    24    26    1
    28    26    27    1
    29    26    28    1
    30    26    29    1
    31    24    25   ar
    32     7     8   ar
    33     8     9   ar
    34     9    10   ar
    35     9    11    1
    36    11    12    1
    37    12    13    1
    38    13    14    1
    39    10     2   ar
    40    41    35   ar
    41    10     5   ar
    42    25    19   ar
    43    14     8    1
    44    33    34    1
    45    31    32    1
    46    17    18    1
@<TRIPOS>MOLECULE
*****
 42 46 0 0 0
SMALL
GASTEIGER

@<TRIPOS>ATOM
      1 C         -22.4326   53.7877  -12.3503 C.3     1  UNL1        0.1333
      2 N         -22.7490   53.0601  -11.1211 N.ar    1  UNL1       -0.2950
      3 C         -22.0151   52.9857   -9.9791 C.ar    1  UNL1        0.2018
      4 N         -22.5669   52.1850   -9.0316 N.ar    1  UNL1       -0.2136
      5 C         -23.6956   51.7439   -9.6187 C.ar    1  UNL1        0.1016
      6 C         -24.6368   50.8509   -9.0863 C.ar    1  UNL1        0.0337
      7 C         -25.7272   50.4762   -9.9221 C.ar    1  UNL1        0.0905
      8 C         -25.8269   51.0042  -11.2340 C.ar    1  UNL1        0.1780
      9 C         -24.8468   51.8840  -11.7317 C.ar    1  UNL1        0.1896
     10 C         -23.8029   52.2556  -10.8826 C.ar    1  UNL1        0.1171
     11 O         -24.9433   52.3419  -13.0493 O.3     1  UNL1       -0.4669
     12 C         -25.8514   51.7411  -13.9748 C.3     1  UNL1        0.2527
     13 C         -27.1662   51.3858  -13.2707 C.3     1  UNL1        0.2526
     14 O         -26.9015   50.6636  -12.0658 O.3     1  UNL1       -0.4682
     15 C         -26.7625   49.5387   -9.4556 C.2     1  UNL1        0.2524
     16 O         -27.6968   49.9697   -8.7277 O.2     1  UNL1       -0.2697
     17 N         -26.7018   48.1541   -9.8335 N.am    1  UNL1       -0.2803
     18 H         -26.0077   47.8758  -10.5639 H       1  UNL1        0.1552
     19 C         -27.6041   47.1473   -9.3464 C.ar    1  UNL1        0.0506
     20 C         -28.1460   46.2207  -10.2465 C.ar    1  UNL1        0.0170
     21 C         -29.0021   45.2153   -9.7952 C.ar    1  UNL1        0.0309
     22 C         -29.3193   45.1169   -8.4383 C.ar    1  UNL1        0.1441
     23 F         -30.1421   44.1199   -8.0239 F       1  UNL1       -0.2042
     24 C         -28.7782   46.0304   -7.5143 C.ar    1  UNL1        0.1000
     25 C         -27.9030   47.0322   -7.9768 C.ar    1  UNL1        0.0208
     26 C         -29.0948   45.8878   -6.0444 C.3     1  UNL1        0.4207
     27 F         -28.6860   44.6610   -5.5499 F       1  UNL1       -0.1658
     28 F         -30.4594   46.0093   -5.8565 F       1  UNL1       -0.1658
     29 F         -28.4499   46.8799   -5.3278 F       1  UNL1       -0.1658
     30 C         -24.4199   50.2394   -7.7212 C.3     1  UNL1        0.1654
     31 O         -25.4620   50.6049   -6.8591 O.3     1  UNL1       -0.3772
     32 H         -26.2533   50.0693   -7.1293 H       1  UNL1        0.2109
     33 N         -20.7373   53.6185   -9.8085 N.pl3   1  UNL1       -0.2814
     34 H         -20.6531   54.6398  -10.0054 H       1  UNL1        0.1551
     35 C         -19.5341   52.8714   -9.5656 C.ar    1  UNL1        0.0889
     36 C         -18.8075   52.3158  -10.6374 C.ar    1  UNL1        0.1543
     37 F         -19.2439   52.4529  -11.9149 F       1  UNL1       -0.2028
     38 C         -17.6453   51.5782  -10.3930 C.ar    1  UNL1        0.0310
     39 C         -17.2030   51.3786   -9.0842 C.ar    1  UNL1        0.0033
     40 C         -17.9248   51.9101   -8.0137 C.ar    1  UNL1        0.0128
     41 C         -19.0903   52.6498   -8.2460 C.ar    1  UNL1        0.0733
     42 CL        -19.9529   53.3210   -6.8676 Cl      1  UNL1       -0.0809
@<TRIPOS>BOND
     1     1     2    1
     2     2     3   ar
     3     3    33    1
     4    33    35    1
     5    35    36   ar
     6    36    37    1
     7    36    38   ar
     8    38    39   ar
     9    39    40   ar
    10    40    41   ar
    11    41    42    1
    12     3     4   ar
    13     4     5   ar
    14     5     6   ar
    15     6    30    1
    16    30    31    1
    17     6     7   ar
    18     7    15    1
    19    15    16    2
    20    15    17   am
    21    17    19    1
    22    19    20   ar
    23    20    21   ar
    24    21    22   ar
    25    22    23    1
    26    22    24   ar
    27    24    26    1
    28    26    27    1
    29    26    28    1
    30    26    29    1
    31    24    25   ar
    32     7     8   ar
    33     8     9   ar
    34     9    10   ar
    35     9    11    1
    36    11    12    1
    37    12    13    1
    38    13    14    1
    39    10     2   ar
    40    41    35   ar
    41    10     5   ar
    42    25    19   ar
    43    14     8    1
    44    33    34    1
    45    31    32    1
    46    17    18    1
