@<TRIPOS>MOLECULE
*****
 35 38 0 0 0
SMALL
GASTEIGER

@<TRIPOS>ATOM
      1 N         -28.1384   49.6487   -4.8998 N.am    1  UNL1       -0.2685
      2 C         -29.1038   50.2835   -5.7500 C.2     1  UNL1        0.2672
      3 O         -29.6817   51.3322   -5.3563 O.2     1  UNL1       -0.2682
      4 C         -29.4367   49.6850   -7.0563 C.ar    1  UNL1        0.1352
      5 C         -29.7593   48.3270   -7.1761 C.ar    1  UNL1        0.0238
      6 C         -30.0313   47.7907   -8.4412 C.ar    1  UNL1        0.0036
      7 C         -30.3526   46.4314   -8.5808 C.ar    1  UNL1        0.0001
      8 C         -30.6196   45.8990   -9.8439 C.ar    1  UNL1        0.0000
      9 C         -30.5679   46.7159  -10.9748 C.ar    1  UNL1        0.0001
     10 C         -30.2491   48.0711  -10.8516 C.ar    1  UNL1        0.0020
     11 C         -29.9775   48.6244   -9.5858 C.ar    1  UNL1        0.0241
     12 C         -29.6509   49.9850   -9.4146 C.ar    1  UNL1        0.1154
     13 BR        -29.5367   51.2191  -10.8765 Br      1  UNL1       -0.0280
     14 N         -29.3943   50.4637   -8.1701 N.ar    1  UNL1       -0.2341
     15 C         -26.3275   51.2324   -4.2599 C.3     1  UNL1        0.0265
     16 C         -26.7151   49.9873   -5.0729 C.3     1  UNL1        0.1007
     17 C         -26.3624   50.0725   -6.5511 C.ar    1  UNL1        0.0234
     18 C         -26.2705   51.3080   -7.2266 C.ar    1  UNL1        0.0019
     19 C         -25.9882   51.3511   -8.5948 C.ar    1  UNL1        0.0295
     20 C         -25.8071   50.1676   -9.3117 C.ar    1  UNL1        0.1424
     21 F         -25.5357   50.2133  -10.6393 F       1  UNL1       -0.2041
     22 C         -25.9140   48.9368   -8.6624 C.ar    1  UNL1        0.0590
     23 C         -26.1962   48.8842   -7.2938 C.ar    1  UNL1        0.1399
     24 F         -26.3106   47.6708   -6.6961 F       1  UNL1       -0.2044
     25 C         -28.6259   48.8305   -3.7797 C.3     1  UNL1        0.1207
     26 C         -28.0787   47.4294   -3.8793 C.ar    1  UNL1       -0.0021
     27 C         -28.5954   46.5369   -4.8309 C.ar    1  UNL1       -0.0026
     28 C         -28.0289   45.2711   -4.9889 C.ar    1  UNL1       -0.0001
     29 C         -26.9380   44.8868   -4.2062 C.ar    1  UNL1        0.0064
     30 C         -26.4015   45.7688   -3.2515 C.ar    1  UNL1        0.0752
     31 C         -26.9804   47.0406   -3.0951 C.ar    1  UNL1        0.0038
     32 C         -25.2353   45.3736   -2.4314 C.2     1  UNL1        0.3380
     33 O         -24.0684   45.6982   -2.7820 O.2     1  UNL1       -0.2451
     34 O         -25.4161   44.6422   -1.2603 O.3     1  UNL1       -0.4771
     35 H         -24.6249   44.3702   -0.6893 H       1  UNL1        0.2954
@<TRIPOS>BOND
     1    15    16    1
     2    16    17    1
     3    17    18   ar
     4    18    19   ar
     5    19    20   ar
     6    20    21    1
     7    20    22   ar
     8    22    23   ar
     9    23    24    1
    10    16     1    1
    11     1    25    1
    12    25    26    1
    13    26    27   ar
    14    27    28   ar
    15    28    29   ar
    16    29    30   ar
    17    30    32    1
    18    32    33    2
    19    32    34    1
    20    30    31   ar
    21     1     2   am
    22     2     3    2
    23     2     4    1
    24     4     5   ar
    25     5     6   ar
    26     6     7   ar
    27     7     8   ar
    28     8     9   ar
    29     9    10   ar
    30    10    11   ar
    31    11    12   ar
    32    12    13    1
    33    12    14   ar
    34    23    17   ar
    35    31    26   ar
    36    14     4   ar
    37    11     6   ar
    38    34    35    1
@<TRIPOS>MOLECULE
*****
 35 38 0 0 0
SMALL
GASTEIGER

@<TRIPOS>ATOM
      1 N         -27.7069   47.8496   -7.3614 N.am    1  UNL1       -0.2685
      2 C         -27.8968   47.1861   -8.6190 C.2     1  UNL1        0.2672
      3 O         -27.3902   46.0463   -8.8011 O.2     1  UNL1       -0.2682
      4 C         -28.6491   47.8568   -9.6959 C.ar    1  UNL1        0.1352
      5 C         -28.7934   49.2499   -9.7271 C.ar    1  UNL1        0.0238
      6 C         -29.5486   49.8434  -10.7466 C.ar    1  UNL1        0.0036
      7 C         -29.7073   51.2375  -10.7916 C.ar    1  UNL1        0.0001
      8 C         -30.4640   51.8257  -11.8072 C.ar    1  UNL1        0.0000
      9 C         -31.0673   51.0303  -12.7830 C.ar    1  UNL1        0.0001
     10 C         -30.9186   49.6410  -12.7512 C.ar    1  UNL1        0.0020
     11 C         -30.1588   49.0314  -11.7346 C.ar    1  UNL1        0.0241
     12 C         -29.9829   47.6346  -11.6627 C.ar    1  UNL1        0.1154
     13 BR        -30.7579   46.4221  -12.9288 Br      1  UNL1       -0.0280
     14 N         -29.2428   47.1006  -10.6573 N.ar    1  UNL1       -0.2341
     15 C         -29.6943   46.5360   -6.6390 C.3     1  UNL1        0.0265
     16 C         -28.7372   47.6951   -6.3197 C.3     1  UNL1        0.1007
     17 C         -29.4319   49.0231   -6.0546 C.ar    1  UNL1        0.0234
     18 C         -30.4312   49.5275   -6.9139 C.ar    1  UNL1        0.0019
     19 C         -31.0193   50.7712   -6.6677 C.ar    1  UNL1        0.0295
     20 C         -30.6129   51.5354   -5.5731 C.ar    1  UNL1        0.1424
     21 F         -31.1841   52.7425   -5.3389 F       1  UNL1       -0.2041
     22 C         -29.6121   51.0596   -4.7246 C.ar    1  UNL1        0.0590
     23 C         -29.0181   49.8163   -4.9634 C.ar    1  UNL1        0.1399
     24 F         -28.0355   49.3903   -4.1293 F       1  UNL1       -0.2044
     25 C         -26.4144   48.5018   -7.1047 C.3     1  UNL1        0.1207
     26 C         -26.3303   49.8073   -7.8537 C.ar    1  UNL1       -0.0021
     27 C         -26.9522   50.9557   -7.3404 C.ar    1  UNL1       -0.0026
     28 C         -26.7982   52.1856   -7.9821 C.ar    1  UNL1       -0.0001
     29 C         -26.0170   52.2835   -9.1355 C.ar    1  UNL1        0.0064
     30 C         -25.3804   51.1458   -9.6622 C.ar    1  UNL1        0.0752
     31 C         -25.5437   49.9095   -9.0127 C.ar    1  UNL1        0.0038
     32 C         -24.5377   51.2466  -10.8741 C.2     1  UNL1        0.3380
     33 O         -24.7470   50.4918  -11.8621 O.2     1  UNL1       -0.2451
     34 O         -23.5069   52.1807  -10.9366 O.3     1  UNL1       -0.4771
     35 H         -22.9268   52.2609  -11.7632 H       1  UNL1        0.2954
@<TRIPOS>BOND
     1    15    16    1
     2    16    17    1
     3    17    18   ar
     4    18    19   ar
     5    19    20   ar
     6    20    21    1
     7    20    22   ar
     8    22    23   ar
     9    23    24    1
    10    16     1    1
    11     1    25    1
    12    25    26    1
    13    26    27   ar
    14    27    28   ar
    15    28    29   ar
    16    29    30   ar
    17    30    32    1
    18    32    33    2
    19    32    34    1
    20    30    31   ar
    21     1     2   am
    22     2     3    2
    23     2     4    1
    24     4     5   ar
    25     5     6   ar
    26     6     7   ar
    27     7     8   ar
    28     8     9   ar
    29     9    10   ar
    30    10    11   ar
    31    11    12   ar
    32    12    13    1
    33    12    14   ar
    34    23    17   ar
    35    31    26   ar
    36    14     4   ar
    37    11     6   ar
    38    34    35    1
@<TRIPOS>MOLECULE
*****
 35 38 0 0 0
SMALL
GASTEIGER

@<TRIPOS>ATOM
      1 N         -27.6629   47.7481   -7.4384 N.am    1  UNL1       -0.2685
      2 C         -27.8833   47.0333   -8.6624 C.2     1  UNL1        0.2672
      3 O         -27.3842   45.8849   -8.8079 O.2     1  UNL1       -0.2682
      4 C         -28.6578   47.6612   -9.7493 C.ar    1  UNL1        0.1352
      5 C         -29.2957   46.8910  -10.7303 C.ar    1  UNL1        0.0238
      6 C         -29.9886   47.5290  -11.7670 C.ar    1  UNL1        0.0036
      7 C         -30.6306   46.7734  -12.7608 C.ar    1  UNL1        0.0001
      8 C         -31.3174   47.4127  -13.7951 C.ar    1  UNL1        0.0000
      9 C         -31.3689   48.8068  -13.8465 C.ar    1  UNL1        0.0001
     10 C         -30.7344   49.5724  -12.8644 C.ar    1  UNL1        0.0020
     11 C         -30.0378   48.9444  -11.8144 C.ar    1  UNL1        0.0241
     12 C         -29.3828   49.6763  -10.8033 C.ar    1  UNL1        0.1154
     13 BR        -29.3649   51.5922  -10.7517 Br      1  UNL1       -0.0280
     14 N         -28.7223   49.0177   -9.8165 N.ar    1  UNL1       -0.2341
     15 C         -29.6642   46.5018   -6.6394 C.3     1  UNL1        0.0265
     16 C         -28.6697   47.6415   -6.3682 C.3     1  UNL1        0.1007
     17 C         -29.3229   48.9923   -6.1129 C.ar    1  UNL1        0.0234
     18 C         -30.2817   49.5362   -6.9939 C.ar    1  UNL1        0.0019
     19 C         -30.8310   50.7991   -6.7554 C.ar    1  UNL1        0.0295
     20 C         -30.4250   51.5430   -5.6467 C.ar    1  UNL1        0.1424
     21 F         -30.9584   52.7687   -5.4200 F       1  UNL1       -0.2041
     22 C         -29.4634   51.0277   -4.7764 C.ar    1  UNL1        0.0590
     23 C         -28.9084   49.7650   -5.0074 C.ar    1  UNL1        0.1399
     24 F         -27.9629   49.3001   -4.1515 F       1  UNL1       -0.2044
     25 C         -26.3630   48.4055   -7.2386 C.3     1  UNL1        0.1207
     26 C         -26.3181   49.7128   -7.9880 C.ar    1  UNL1       -0.0021
     27 C         -26.9093   50.8607   -7.4388 C.ar    1  UNL1       -0.0026
     28 C         -26.7890   52.0920   -8.0850 C.ar    1  UNL1       -0.0001
     29 C         -26.0719   52.1916   -9.2793 C.ar    1  UNL1        0.0064
     30 C         -25.4667   51.0544   -9.8426 C.ar    1  UNL1        0.0752
     31 C         -25.5960   49.8167   -9.1881 C.ar    1  UNL1        0.0038
     32 C         -24.6915   51.1571  -11.0986 C.2     1  UNL1        0.3380
     33 O         -25.2536   50.9767  -12.2127 O.2     1  UNL1       -0.2451
     34 O         -23.3325   51.4588  -11.0621 O.3     1  UNL1       -0.4771
     35 H         -22.7934   51.5356  -11.9163 H       1  UNL1        0.2954
@<TRIPOS>BOND
     1    15    16    1
     2    16    17    1
     3    17    18   ar
     4    18    19   ar
     5    19    20   ar
     6    20    21    1
     7    20    22   ar
     8    22    23   ar
     9    23    24    1
    10    16     1    1
    11     1    25    1
    12    25    26    1
    13    26    27   ar
    14    27    28   ar
    15    28    29   ar
    16    29    30   ar
    17    30    32    1
    18    32    33    2
    19    32    34    1
    20    30    31   ar
    21     1     2   am
    22     2     3    2
    23     2     4    1
    24     4     5   ar
    25     5     6   ar
    26     6     7   ar
    27     7     8   ar
    28     8     9   ar
    29     9    10   ar
    30    10    11   ar
    31    11    12   ar
    32    12    13    1
    33    12    14   ar
    34    23    17   ar
    35    31    26   ar
    36    14     4   ar
    37    11     6   ar
    38    34    35    1
@<TRIPOS>MOLECULE
*****
 35 38 0 0 0
SMALL
GASTEIGER

@<TRIPOS>ATOM
      1 N         -29.8290   47.9256   -8.7342 N.am    1  UNL1       -0.2685
      2 C         -30.2164   46.9055   -7.8030 C.2     1  UNL1        0.2672
      3 O         -31.1029   46.0715   -8.1308 O.2     1  UNL1       -0.2682
      4 C         -29.6025   46.8646   -6.4626 C.ar    1  UNL1        0.1352
      5 C         -28.5693   45.9683   -6.1599 C.ar    1  UNL1        0.0238
      6 C         -28.0407   45.9359   -4.8631 C.ar    1  UNL1        0.0036
      7 C         -27.0078   45.0417   -4.5407 C.ar    1  UNL1        0.0001
      8 C         -26.4857   45.0093   -3.2459 C.ar    1  UNL1        0.0000
      9 C         -26.9886   45.8658   -2.2650 C.ar    1  UNL1        0.0001
     10 C         -28.0171   46.7613   -2.5709 C.ar    1  UNL1        0.0020
     11 C         -28.5549   46.8075   -3.8713 C.ar    1  UNL1        0.0241
     12 C         -29.5930   47.6935   -4.2242 C.ar    1  UNL1        0.1154
     13 BR        -30.3829   48.9187   -2.9799 Br      1  UNL1       -0.0280
     14 N         -30.0763   47.6920   -5.4932 N.ar    1  UNL1       -0.2341
     15 C         -28.4494   46.1765   -9.8452 C.3     1  UNL1        0.0265
     16 C         -28.6694   47.6789   -9.6088 C.3     1  UNL1        0.1007
     17 C         -27.4428   48.4152   -9.0895 C.ar    1  UNL1        0.0234
     18 C         -26.6741   47.9199   -8.0148 C.ar    1  UNL1        0.0019
     19 C         -25.5789   48.6415   -7.5318 C.ar    1  UNL1        0.0295
     20 C         -25.2416   49.8701   -8.1012 C.ar    1  UNL1        0.1424
     21 F         -24.1799   50.5683   -7.6284 F       1  UNL1       -0.2041
     22 C         -26.0033   50.3832   -9.1520 C.ar    1  UNL1        0.0590
     23 C         -27.1009   49.6680   -9.6415 C.ar    1  UNL1        0.1399
     24 F         -27.8313   50.2031  -10.6530 F       1  UNL1       -0.2044
     25 C         -30.7109   49.0904   -8.9000 C.3     1  UNL1        0.1207
     26 C         -30.5206   50.0563   -7.7585 C.ar    1  UNL1       -0.0021
     27 C         -31.5828   50.3317   -6.8838 C.ar    1  UNL1       -0.0026
     28 C         -31.3842   51.1523   -5.7723 C.ar    1  UNL1       -0.0001
     29 C         -30.1244   51.6988   -5.5184 C.ar    1  UNL1        0.0064
     30 C         -29.0456   51.4298   -6.3791 C.ar    1  UNL1        0.0752
     31 C         -29.2544   50.6057   -7.4991 C.ar    1  UNL1        0.0038
     32 C         -27.7047   51.9920   -6.1058 C.2     1  UNL1        0.3380
     33 O         -27.1351   52.7280   -6.9565 O.2     1  UNL1       -0.2451
     34 O         -27.0600   51.7168   -4.9026 O.3     1  UNL1       -0.4771
     35 H         -26.1437   52.1001   -4.7036 H       1  UNL1        0.2954
@<TRIPOS>BOND
     1    15    16    1
     2    16    17    1
     3    17    18   ar
     4    18    19   ar
     5    19    20   ar
     6    20    21    1
     7    20    22   ar
     8    22    23   ar
     9    23    24    1
    10    16     1    1
    11     1    25    1
    12    25    26    1
    13    26    27   ar
    14    27    28   ar
    15    28    29   ar
    16    29    30   ar
    17    30    32    1
    18    32    33    2
    19    32    34    1
    20    30    31   ar
    21     1     2   am
    22     2     3    2
    23     2     4    1
    24     4     5   ar
    25     5     6   ar
    26     6     7   ar
    27     7     8   ar
    28     8     9   ar
    29     9    10   ar
    30    10    11   ar
    31    11    12   ar
    32    12    13    1
    33    12    14   ar
    34    23    17   ar
    35    31    26   ar
    36    14     4   ar
    37    11     6   ar
    38    34    35    1
@<TRIPOS>MOLECULE
*****
 35 38 0 0 0
SMALL
GASTEIGER

@<TRIPOS>ATOM
      1 N         -29.8141   49.6198   -4.4590 N.am    1  UNL1       -0.2685
      2 C         -30.4206   48.5949   -5.2587 C.2     1  UNL1        0.2672
      3 O         -31.5840   48.1983   -4.9796 O.2     1  UNL1       -0.2682
      4 C         -29.6659   47.9913   -6.3729 C.ar    1  UNL1        0.1352
      5 C         -30.2729   47.1004   -7.2676 C.ar    1  UNL1        0.0238
      6 C         -29.5099   46.5199   -8.2888 C.ar    1  UNL1        0.0036
      7 C         -30.1003   45.6221   -9.1921 C.ar    1  UNL1        0.0001
      8 C         -29.3359   45.0422  -10.2067 C.ar    1  UNL1        0.0000
      9 C         -27.9801   45.3519  -10.3278 C.ar    1  UNL1        0.0001
     10 C         -27.3782   46.2437   -9.4358 C.ar    1  UNL1        0.0020
     11 C         -28.1341   46.8377   -8.4072 C.ar    1  UNL1        0.0241
     12 C         -27.5687   47.7415   -7.4849 C.ar    1  UNL1        0.1154
     13 BR        -25.7217   48.2517   -7.5273 Br      1  UNL1       -0.0280
     14 N         -28.3446   48.2813   -6.5100 N.ar    1  UNL1       -0.2341
     15 C         -31.4000   51.4024   -5.1690 C.3     1  UNL1        0.0265
     16 C         -29.9364   51.0211   -4.8968 C.3     1  UNL1        0.1007
     17 C         -28.9920   51.3025   -6.0568 C.ar    1  UNL1        0.0234
     18 C         -29.4214   51.2454   -7.3998 C.ar    1  UNL1        0.0019
     19 C         -28.5196   51.4655   -8.4446 C.ar    1  UNL1        0.0295
     20 C         -27.1777   51.7316   -8.1692 C.ar    1  UNL1        0.1424
     21 F         -26.3054   51.9423   -9.1856 F       1  UNL1       -0.2041
     22 C         -26.7329   51.7724   -6.8470 C.ar    1  UNL1        0.0590
     23 C         -27.6282   51.5534   -5.7953 C.ar    1  UNL1        0.1399
     24 F         -27.1601   51.5829   -4.5215 F       1  UNL1       -0.2044
     25 C         -29.2566   49.2459   -3.1508 C.3     1  UNL1        0.1207
     26 C         -28.7552   47.8246   -3.1837 C.ar    1  UNL1       -0.0021
     27 C         -29.6279   46.7627   -2.9014 C.ar    1  UNL1       -0.0026
     28 C         -29.1915   45.4424   -3.0219 C.ar    1  UNL1       -0.0001
     29 C         -27.8850   45.1688   -3.4322 C.ar    1  UNL1        0.0064
     30 C         -26.9970   46.2186   -3.7259 C.ar    1  UNL1        0.0752
     31 C         -27.4425   47.5461   -3.5980 C.ar    1  UNL1        0.0038
     32 C         -25.6170   45.9348   -4.1775 C.2     1  UNL1        0.3380
     33 O         -24.6576   45.9693   -3.3600 O.2     1  UNL1       -0.2451
     34 O         -25.3650   45.6218   -5.5107 O.3     1  UNL1       -0.4771
     35 H         -24.4246   45.4217   -5.8295 H       1  UNL1        0.2954
@<TRIPOS>BOND
     1    15    16    1
     2    16    17    1
     3    17    18   ar
     4    18    19   ar
     5    19    20   ar
     6    20    21    1
     7    20    22   ar
     8    22    23   ar
     9    23    24    1
    10    16     1    1
    11     1    25    1
    12    25    26    1
    13    26    27   ar
    14    27    28   ar
    15    28    29   ar
    16    29    30   ar
    17    30    32    1
    18    32    33    2
    19    32    34    1
    20    30    31   ar
    21     1     2   am
    22     2     3    2
    23     2     4    1
    24     4     5   ar
    25     5     6   ar
    26     6     7   ar
    27     7     8   ar
    28     8     9   ar
    29     9    10   ar
    30    10    11   ar
    31    11    12   ar
    32    12    13    1
    33    12    14   ar
    34    23    17   ar
    35    31    26   ar
    36    14     4   ar
    37    11     6   ar
    38    34    35    1
@<TRIPOS>MOLECULE
*****
 35 38 0 0 0
SMALL
GASTEIGER

@<TRIPOS>ATOM
      1 N         -28.9816   47.4597   -7.3025 N.am    1  UNL1       -0.2685
      2 C         -29.2117   47.5126   -8.7174 C.2     1  UNL1        0.2672
      3 O         -29.2801   46.4393   -9.3748 O.2     1  UNL1       -0.2682
      4 C         -29.3290   48.8185   -9.3930 C.ar    1  UNL1        0.1352
      5 C         -30.4093   49.1099  -10.2359 C.ar    1  UNL1        0.0238
      6 C         -30.4619   50.3482  -10.8884 C.ar    1  UNL1        0.0036
      7 C         -31.5349   50.6561  -11.7396 C.ar    1  UNL1        0.0001
      8 C         -31.5823   51.8901  -12.3916 C.ar    1  UNL1        0.0000
      9 C         -30.5626   52.8242  -12.2006 C.ar    1  UNL1        0.0001
     10 C         -29.4878   52.5319  -11.3564 C.ar    1  UNL1        0.0020
     11 C         -29.4242   51.2927  -10.6909 C.ar    1  UNL1        0.0241
     12 C         -28.3592   50.9550   -9.8314 C.ar    1  UNL1        0.1154
     13 BR        -26.8900   52.1353   -9.4822 Br      1  UNL1       -0.0280
     14 N         -28.3475   49.7432   -9.2188 N.ar    1  UNL1       -0.2341
     15 C         -31.3616   46.7840   -7.0272 C.3     1  UNL1        0.0265
     16 C         -30.1440   47.4786   -6.3976 C.3     1  UNL1        0.1007
     17 C         -30.4167   48.8937   -5.9081 C.ar    1  UNL1        0.0234
     18 C         -30.7473   49.9399   -6.7955 C.ar    1  UNL1        0.0019
     19 C         -30.9487   51.2386   -6.3201 C.ar    1  UNL1        0.0295
     20 C         -30.8110   51.5173   -4.9596 C.ar    1  UNL1        0.1424
     21 F         -31.0048   52.7789   -4.5025 F       1  UNL1       -0.2041
     22 C         -30.4654   50.4978   -4.0714 C.ar    1  UNL1        0.0590
     23 C         -30.2620   49.1953   -4.5383 C.ar    1  UNL1        0.1399
     24 F         -29.9099   48.2303   -3.6509 F       1  UNL1       -0.2044
     25 C         -27.6134   47.2073   -6.8270 C.3     1  UNL1        0.1207
     26 C         -27.1449   48.3450   -5.9561 C.ar    1  UNL1       -0.0021
     27 C         -27.0817   49.6482   -6.4726 C.ar    1  UNL1       -0.0026
     28 C         -26.7382   50.7175   -5.6440 C.ar    1  UNL1       -0.0001
     29 C         -26.4628   50.4990   -4.2924 C.ar    1  UNL1        0.0064
     30 C         -26.5267   49.2016   -3.7541 C.ar    1  UNL1        0.0752
     31 C         -26.8692   48.1288   -4.5961 C.ar    1  UNL1        0.0038
     32 C         -26.2526   48.9663   -2.3194 C.2     1  UNL1        0.3380
     33 O         -25.4380   49.6996   -1.6961 O.2     1  UNL1       -0.2451
     34 O         -26.8963   47.9340   -1.6419 O.3     1  UNL1       -0.4771
     35 H         -26.7190   47.7669   -0.6586 H       1  UNL1        0.2954
@<TRIPOS>BOND
     1    15    16    1
     2    16    17    1
     3    17    18   ar
     4    18    19   ar
     5    19    20   ar
     6    20    21    1
     7    20    22   ar
     8    22    23   ar
     9    23    24    1
    10    16     1    1
    11     1    25    1
    12    25    26    1
    13    26    27   ar
    14    27    28   ar
    15    28    29   ar
    16    29    30   ar
    17    30    32    1
    18    32    33    2
    19    32    34    1
    20    30    31   ar
    21     1     2   am
    22     2     3    2
    23     2     4    1
    24     4     5   ar
    25     5     6   ar
    26     6     7   ar
    27     7     8   ar
    28     8     9   ar
    29     9    10   ar
    30    10    11   ar
    31    11    12   ar
    32    12    13    1
    33    12    14   ar
    34    23    17   ar
    35    31    26   ar
    36    14     4   ar
    37    11     6   ar
    38    34    35    1
@<TRIPOS>MOLECULE
*****
 35 38 0 0 0
SMALL
GASTEIGER

@<TRIPOS>ATOM
      1 N         -28.5556   49.9751   -5.7068 N.am    1  UNL1       -0.2685
      2 C         -28.5019   51.1556   -6.5201 C.2     1  UNL1        0.2672
      3 O         -29.2035   52.1553   -6.2084 O.2     1  UNL1       -0.2682
      4 C         -27.6576   51.1754   -7.7293 C.ar    1  UNL1        0.1352
      5 C         -26.2623   51.2669   -7.6439 C.ar    1  UNL1        0.0238
      6 C         -25.5005   51.3217   -8.8180 C.ar    1  UNL1        0.0036
      7 C         -24.1015   51.4174   -8.7516 C.ar    1  UNL1        0.0001
      8 C         -23.3452   51.4757   -9.9241 C.ar    1  UNL1        0.0000
      9 C         -23.9765   51.4396  -11.1687 C.ar    1  UNL1        0.0001
     10 C         -25.3685   51.3448  -11.2507 C.ar    1  UNL1        0.0020
     11 C         -26.1463   51.2847  -10.0787 C.ar    1  UNL1        0.0241
     12 C         -27.5523   51.1897  -10.1138 C.ar    1  UNL1        0.1154
     13 BR        -28.5508   51.1378  -11.7490 Br      1  UNL1       -0.0280
     14 N         -28.2524   51.1390   -8.9514 N.ar    1  UNL1       -0.2341
     15 C         -26.4193   50.8360   -4.7627 C.3     1  UNL1        0.0265
     16 C         -27.5551   49.8085   -4.6384 C.3     1  UNL1        0.1007
     17 C         -27.0841   48.3629   -4.5687 C.ar    1  UNL1        0.0234
     18 C         -27.3075   47.5590   -3.4306 C.ar    1  UNL1        0.0019
     19 C         -26.8239   46.2487   -3.3794 C.ar    1  UNL1        0.0295
     20 C         -26.1010   45.7250   -4.4520 C.ar    1  UNL1        0.1424
     21 F         -25.6314   44.4543   -4.3977 F       1  UNL1       -0.2041
     22 C         -25.8546   46.5134   -5.5770 C.ar    1  UNL1        0.0590
     23 C         -26.3347   47.8255   -5.6367 C.ar    1  UNL1        0.1399
     24 F         -26.0630   48.5714   -6.7379 F       1  UNL1       -0.2044
     25 C         -29.7097   49.0765   -5.8566 C.3     1  UNL1        0.1207
     26 C         -29.7811   48.5485   -7.2667 C.ar    1  UNL1       -0.0021
     27 C         -30.7549   49.0340   -8.1527 C.ar    1  UNL1       -0.0026
     28 C         -30.7652   48.6166   -9.4845 C.ar    1  UNL1       -0.0001
     29 C         -29.8009   47.7185   -9.9469 C.ar    1  UNL1        0.0064
     30 C         -28.8128   47.2252   -9.0767 C.ar    1  UNL1        0.0752
     31 C         -28.8115   47.6469   -7.7354 C.ar    1  UNL1        0.0038
     32 C         -27.7784   46.2868   -9.5649 C.2     1  UNL1        0.3380
     33 O         -28.0416   45.4706  -10.4893 O.2     1  UNL1       -0.2451
     34 O         -26.5011   46.2994   -9.0104 O.3     1  UNL1       -0.4771
     35 H         -25.7844   45.6641   -9.3402 H       1  UNL1        0.2954
@<TRIPOS>BOND
     1    15    16    1
     2    16    17    1
     3    17    18   ar
     4    18    19   ar
     5    19    20   ar
     6    20    21    1
     7    20    22   ar
     8    22    23   ar
     9    23    24    1
    10    16     1    1
    11     1    25    1
    12    25    26    1
    13    26    27   ar
    14    27    28   ar
    15    28    29   ar
    16    29    30   ar
    17    30    32    1
    18    32    33    2
    19    32    34    1
    20    30    31   ar
    21     1     2   am
    22     2     3    2
    23     2     4    1
    24     4     5   ar
    25     5     6   ar
    26     6     7   ar
    27     7     8   ar
    28     8     9   ar
    29     9    10   ar
    30    10    11   ar
    31    11    12   ar
    32    12    13    1
    33    12    14   ar
    34    23    17   ar
    35    31    26   ar
    36    14     4   ar
    37    11     6   ar
    38    34    35    1
@<TRIPOS>MOLECULE
*****
 35 38 0 0 0
SMALL
GASTEIGER

@<TRIPOS>ATOM
      1 N         -29.2656   49.5392   -6.5563 N.am    1  UNL1       -0.2685
      2 C         -30.2741   50.1767   -7.3528 C.2     1  UNL1        0.2672
      3 O         -31.1547   50.8813   -6.7899 O.2     1  UNL1       -0.2682
      4 C         -30.2929   49.9725   -8.8134 C.ar    1  UNL1        0.1352
      5 C         -30.3809   48.6900   -9.3702 C.ar    1  UNL1        0.0238
      6 C         -30.3565   48.5382  -10.7624 C.ar    1  UNL1        0.0036
      7 C         -30.4398   47.2605  -11.3378 C.ar    1  UNL1        0.0001
      8 C         -30.4114   47.1124  -12.7261 C.ar    1  UNL1        0.0000
      9 C         -30.2996   48.2343  -13.5492 C.ar    1  UNL1        0.0001
     10 C         -30.2154   49.5128  -12.9909 C.ar    1  UNL1        0.0020
     11 C         -30.2429   49.6804  -11.5933 C.ar    1  UNL1        0.0241
     12 C         -30.1598   50.9502  -10.9868 C.ar    1  UNL1        0.1154
     13 BR        -29.9962   52.5741  -11.9916 Br      1  UNL1       -0.0280
     14 N         -30.1871   51.0522   -9.6330 N.ar    1  UNL1       -0.2341
     15 C         -28.1418   51.4941   -5.5018 C.3     1  UNL1        0.0265
     16 C         -27.9794   50.2306   -6.3611 C.3     1  UNL1        0.1007
     17 C         -27.2931   50.4692   -7.6985 C.ar    1  UNL1        0.0234
     18 C         -27.1350   51.7644   -8.2359 C.ar    1  UNL1        0.0019
     19 C         -26.5399   51.9473   -9.4871 C.ar    1  UNL1        0.0295
     20 C         -26.1066   50.8457  -10.2261 C.ar    1  UNL1        0.1424
     21 F         -25.5318   51.0270  -11.4406 F       1  UNL1       -0.2041
     22 C         -26.2732   49.5568   -9.7174 C.ar    1  UNL1        0.0590
     23 C         -26.8677   49.3644   -8.4664 C.ar    1  UNL1        0.1399
     24 F         -27.0306   48.0970   -8.0080 F       1  UNL1       -0.2044
     25 C         -29.6243   48.3150   -5.8252 C.3     1  UNL1        0.1207
     26 C         -28.6353   48.0600   -4.7164 C.ar    1  UNL1       -0.0021
     27 C         -28.8614   48.5865   -3.4355 C.ar    1  UNL1       -0.0026
     28 C         -27.9974   48.2754   -2.3844 C.ar    1  UNL1       -0.0001
     29 C         -26.9059   47.4309   -2.5984 C.ar    1  UNL1        0.0064
     30 C         -26.6657   46.8880   -3.8730 C.ar    1  UNL1        0.0752
     31 C         -27.5379   47.2095   -4.9279 C.ar    1  UNL1        0.0038
     32 C         -25.5208   45.9792   -4.1018 C.2     1  UNL1        0.3380
     33 O         -25.4679   45.2678   -5.1415 O.2     1  UNL1       -0.2451
     34 O         -24.4872   45.9044   -3.1717 O.3     1  UNL1       -0.4771
     35 H         -23.6967   45.2886   -3.3207 H       1  UNL1        0.2954
@<TRIPOS>BOND
     1    15    16    1
     2    16    17    1
     3    17    18   ar
     4    18    19   ar
     5    19    20   ar
     6    20    21    1
     7    20    22   ar
     8    22    23   ar
     9    23    24    1
    10    16     1    1
    11     1    25    1
    12    25    26    1
    13    26    27   ar
    14    27    28   ar
    15    28    29   ar
    16    29    30   ar
    17    30    32    1
    18    32    33    2
    19    32    34    1
    20    30    31   ar
    21     1     2   am
    22     2     3    2
    23     2     4    1
    24     4     5   ar
    25     5     6   ar
    26     6     7   ar
    27     7     8   ar
    28     8     9   ar
    29     9    10   ar
    30    10    11   ar
    31    11    12   ar
    32    12    13    1
    33    12    14   ar
    34    23    17   ar
    35    31    26   ar
    36    14     4   ar
    37    11     6   ar
    38    34    35    1
@<TRIPOS>MOLECULE
*****
 35 38 0 0 0
SMALL
GASTEIGER

@<TRIPOS>ATOM
      1 N         -29.3587   46.2636   -7.5449 N.am    1  UNL1       -0.2685
      2 C         -28.2507   46.4749   -8.4312 C.2     1  UNL1        0.2672
      3 O         -27.8922   45.5484   -9.2071 O.2     1  UNL1       -0.2682
      4 C         -27.5210   47.7564   -8.4006 C.ar    1  UNL1        0.1352
      5 C         -26.9257   48.2852   -9.5532 C.ar    1  UNL1        0.0238
      6 C         -26.2090   49.4859   -9.4716 C.ar    1  UNL1        0.0036
      7 C         -25.6026   50.0287  -10.6155 C.ar    1  UNL1        0.0001
      8 C         -24.8856   51.2239  -10.5300 C.ar    1  UNL1        0.0000
      9 C         -24.7676   51.8853   -9.3062 C.ar    1  UNL1        0.0001
     10 C         -25.3655   51.3570   -8.1588 C.ar    1  UNL1        0.0020
     11 C         -26.0923   50.1531   -8.2270 C.ar    1  UNL1        0.0241
     12 C         -26.7108   49.5834   -7.0956 C.ar    1  UNL1        0.1154
     13 BR        -26.6255   50.3772   -5.3532 Br      1  UNL1       -0.0280
     14 N         -27.3962   48.4176   -7.2191 N.ar    1  UNL1       -0.2341
     15 C         -31.4305   45.5642   -8.7345 C.3     1  UNL1        0.0265
     16 C         -30.7009   46.6868   -7.9803 C.3     1  UNL1        0.1007
     17 C         -30.6252   48.0030   -8.7409 C.ar    1  UNL1        0.0234
     18 C         -30.6011   48.0500  -10.1510 C.ar    1  UNL1        0.0019
     19 C         -30.4865   49.2718  -10.8199 C.ar    1  UNL1        0.0295
     20 C         -30.3810   50.4607  -10.0968 C.ar    1  UNL1        0.1424
     21 F         -30.2676   51.6438  -10.7492 F       1  UNL1       -0.2041
     22 C         -30.3838   50.4298   -8.7015 C.ar    1  UNL1        0.0590
     23 C         -30.4979   49.2117   -8.0240 C.ar    1  UNL1        0.1399
     24 F         -30.4800   49.2147   -6.6666 F       1  UNL1       -0.2044
     25 C         -29.1354   45.4742   -6.3247 C.3     1  UNL1        0.1207
     26 C         -28.5789   46.3495   -5.2309 C.ar    1  UNL1       -0.0021
     27 C         -29.3903   47.3196   -4.6230 C.ar    1  UNL1       -0.0026
     28 C         -28.9076   48.0673   -3.5478 C.ar    1  UNL1       -0.0001
     29 C         -27.6158   47.8492   -3.0639 C.ar    1  UNL1        0.0064
     30 C         -26.7893   46.8775   -3.6550 C.ar    1  UNL1        0.0752
     31 C         -27.2810   46.1313   -4.7406 C.ar    1  UNL1        0.0038
     32 C         -25.4262   46.6302   -3.1358 C.2     1  UNL1        0.3380
     33 O         -24.8000   45.5842   -3.4577 O.2     1  UNL1       -0.2451
     34 O         -24.8192   47.5541   -2.2890 O.3     1  UNL1       -0.4771
     35 H         -23.8846   47.3966   -1.9313 H       1  UNL1        0.2954
@<TRIPOS>BOND
     1    15    16    1
     2    16    17    1
     3    17    18   ar
     4    18    19   ar
     5    19    20   ar
     6    20    21    1
     7    20    22   ar
     8    22    23   ar
     9    23    24    1
    10    16     1    1
    11     1    25    1
    12    25    26    1
    13    26    27   ar
    14    27    28   ar
    15    28    29   ar
    16    29    30   ar
    17    30    32    1
    18    32    33    2
    19    32    34    1
    20    30    31   ar
    21     1     2   am
    22     2     3    2
    23     2     4    1
    24     4     5   ar
    25     5     6   ar
    26     6     7   ar
    27     7     8   ar
    28     8     9   ar
    29     9    10   ar
    30    10    11   ar
    31    11    12   ar
    32    12    13    1
    33    12    14   ar
    34    23    17   ar
    35    31    26   ar
    36    14     4   ar
    37    11     6   ar
    38    34    35    1
