@<TRIPOS>MOLECULE
*****
 61 65 0 0 0
SMALL
GASTEIGER

@<TRIPOS>ATOM
      1 C          49.8401   11.7345  -18.3902 C.ar    1  UNL1        0.0293
      2 C          50.7822   12.3840  -17.5497 C.ar    1  UNL1        0.0532
      3 C          51.9516   12.9204  -18.1070 C.ar    1  UNL1        0.0075
      4 C          52.1653   12.8837  -19.4825 C.ar    1  UNL1        0.0389
      5 C          51.1981   12.3342  -20.3346 C.ar    1  UNL1        0.1595
      6 C          50.0236   11.7919  -19.7923 C.ar    1  UNL1        0.0977
      7 C          50.5419   12.5899  -16.1057 C.2     1  UNL1        0.2456
      8 O          51.3280   12.0688  -15.2700 O.2     1  UNL1       -0.2702
      9 N          49.4563   13.4306  -15.6710 N.am    1  UNL1       -0.3040
     10 H          48.9629   13.9767  -16.4140 H       1  UNL1        0.1496
     11 C          48.9814   13.5531  -14.2800 C.3     1  UNL1        0.0572
     12 C          47.8374   14.5822  -14.1952 C.3     1  UNL1        0.0196
     13 C          48.5101   12.1829  -13.7573 C.3     1  UNL1        0.0196
     14 C          50.1455   14.0440  -13.3949 C.3     1  UNL1        0.0196
     15 N          48.9809   11.3739  -20.6786 N.pl3   1  UNL1       -0.2122
     16 H          48.0542   11.8515  -20.6224 H       1  UNL1        0.1738
     17 S          49.0396    9.7894  -21.3772 S.O2    1  UNL1        0.0745
     18 O          47.7096    9.1160  -21.1953 O.2     1  UNL1       -0.1499
     19 O          50.0822    8.9748  -20.6645 O.2     1  UNL1       -0.1499
     20 C          49.4780    9.9129  -23.0923 C.ar    1  UNL1        0.1356
     21 C          50.5670    9.1522  -23.5391 C.ar    1  UNL1        0.0207
     22 C          51.0409    9.2754  -24.8451 C.ar    1  UNL1       -0.0028
     23 C          50.4219   10.1598  -25.7495 C.ar    1  UNL1       -0.0216
     24 C          49.3221   10.9098  -25.3073 C.ar    1  UNL1        0.0085
     25 C          48.8470   10.7984  -23.9946 C.ar    1  UNL1        0.0762
     26 CL         47.4963   11.8297  -23.5369 Cl      1  UNL1       -0.0809
     27 C          50.8955   10.3752  -27.1769 C.3     1  UNL1        0.0224
     28 C          51.9874    9.4646  -27.7224 C.3     1  UNL1        0.0047
     29 C          52.3141   10.9032  -27.3408 C.3     1  UNL1        0.0047
     30 C          48.6470   10.9929  -17.8171 C.3     1  UNL1        0.1702
     31 C          46.8232   12.2480  -18.4602 C.3     1  UNL1        0.1746
     32 O          47.6700   11.9171  -17.3828 O.3     1  UNL1       -0.3463
     33 O          51.3443   12.3741  -21.7295 O.3     1  UNL1       -0.4513
     34 C          50.7995   13.3473  -22.5798 C.ar    1  UNL1        0.1580
     35 C          49.7532   14.1882  -22.1618 C.ar    1  UNL1        0.0677
     36 C          49.2587   15.1806  -23.0128 C.ar    1  UNL1        0.1398
     37 F          48.2748   16.0036  -22.5694 F       1  UNL1       -0.2044
     38 C          49.7999   15.3417  -24.2999 C.ar    1  UNL1        0.0175
     39 C          50.8510   14.5074  -24.7117 C.ar    1  UNL1        0.0130
     40 C          51.3532   13.5227  -23.8556 C.ar    1  UNL1        0.0919
     41 CL         52.6948   12.5221  -24.3892 Cl      1  UNL1       -0.0791
     42 C          49.3505   16.4715  -25.1870 C.3     1  UNL1        0.1382
     43 C          48.9105   15.9251  -26.5075 C.2     1  UNL1        0.3234
     44 O          49.0173   16.6291  -27.5484 O.2     1  UNL1       -0.2497
     45 O          48.3979   14.6244  -26.5694 O.3     1  UNL1       -0.4215
     46 C          47.1186   14.2447  -26.0590 C.3     1  UNL1        0.3207
     47 O          46.8260   12.9186  -26.4816 O.3     1  UNL1       -0.3070
     48 C          46.1679   12.8136  -27.7439 C.3     1  UNL1        0.2456
     49 C          46.3741   14.0265  -28.6829 C.3     1  UNL1        0.1781
     50 O          45.6834   13.8195  -29.8894 O.3     1  UNL1       -0.3790
     51 C          45.8681   15.3184  -28.0067 C.3     1  UNL1        0.1733
     52 O          46.5760   16.4117  -28.5318 O.3     1  UNL1       -0.3793
     53 C          46.0320   15.2649  -26.4657 C.3     1  UNL1        0.2106
     54 O          44.8187   14.8922  -25.8624 O.3     1  UNL1       -0.3766
     55 H          46.0498   14.4708  -30.5434 H       1  UNL1        0.2106
     56 H          46.0476   17.2259  -28.3228 H       1  UNL1        0.2105
     57 H          44.2292   15.6911  -25.8839 H       1  UNL1        0.2107
     58 C          46.6427   11.5584  -28.4220 C.2     1  UNL1        0.3439
     59 O          47.4710   10.8062  -27.8434 O.2     1  UNL1       -0.2475
     60 O          46.2125   11.2373  -29.7067 O.3     1  UNL1       -0.4785
     61 H          45.5672   11.8332  -30.2109 H       1  UNL1        0.2951
@<TRIPOS>BOND
     1    31    32    1
     2    32    30    1
     3    30     1    1
     4     1     2   ar
     5     2     7    1
     6     7     8    2
     7     7     9   am
     8     9    11    1
     9    11    12    1
    10    11    13    1
    11    11    14    1
    12     2     3   ar
    13     3     4   ar
    14     4     5   ar
    15     5    33    1
    16    33    34    1
    17    34    35   ar
    18    35    36   ar
    19    36    37    1
    20    36    38   ar
    21    38    42    1
    22    42    43    1
    23    43    44    2
    24    43    45    1
    25    45    46    1
    26    46    47    1
    27    47    48    1
    28    48    58    1
    29    58    59    2
    30    58    60    1
    31    48    49    1
    32    49    50    1
    33    49    51    1
    34    51    52    1
    35    51    53    1
    36    53    54    1
    37    38    39   ar
    38    39    40   ar
    39    40    41    1
    40     5     6   ar
    41     6    15    1
    42    15    17    1
    43    17    18    2
    44    17    19    2
    45    17    20    1
    46    20    21   ar
    47    21    22   ar
    48    22    23   ar
    49    23    27    1
    50    27    28    1
    51    28    29    1
    52    23    24   ar
    53    24    25   ar
    54    25    26    1
    55     6     1   ar
    56    25    20   ar
    57    40    34   ar
    58    29    27    1
    59    53    46    1
    60     9    10    1
    61    60    61    1
    62    50    55    1
    63    52    56    1
    64    54    57    1
    65    15    16    1
@<TRIPOS>MOLECULE
*****
 61 65 0 0 0
SMALL
GASTEIGER

@<TRIPOS>ATOM
      1 C          48.5183   12.9563  -20.2945 C.ar    1  UNL1        0.0293
      2 C          47.7190   12.5806  -19.1828 C.ar    1  UNL1        0.0532
      3 C          46.5639   11.8134  -19.3895 C.ar    1  UNL1        0.0075
      4 C          46.2307   11.3590  -20.6630 C.ar    1  UNL1        0.0389
      5 C          47.0635   11.6387  -21.7546 C.ar    1  UNL1        0.1595
      6 C          48.2219   12.4065  -21.5644 C.ar    1  UNL1        0.0977
      7 C          48.1008   12.9019  -17.7913 C.2     1  UNL1        0.2456
      8 O          47.5275   13.8556  -17.1998 O.2     1  UNL1       -0.2702
      9 N          49.0724   12.0882  -17.1070 N.am    1  UNL1       -0.3040
     10 H          49.3670   11.2086  -17.5897 H       1  UNL1        0.1496
     11 C          49.6910   12.4154  -15.8087 C.3     1  UNL1        0.0572
     12 C          51.1967   12.6903  -15.9890 C.3     1  UNL1        0.0196
     13 C          48.9940   13.6374  -15.1814 C.3     1  UNL1        0.0196
     14 C          49.5256   11.2121  -14.8578 C.3     1  UNL1        0.0196
     15 N          49.1395   12.5559  -22.6522 N.pl3   1  UNL1       -0.2122
     16 H          48.7970   12.9829  -23.5412 H       1  UNL1        0.1738
     17 S          50.5516   11.5543  -22.7206 S.O2    1  UNL1        0.0745
     18 O          50.5169   10.5678  -21.5887 O.2     1  UNL1       -0.1499
     19 O          51.7738   12.4138  -22.5600 O.2     1  UNL1       -0.1499
     20 C          50.6242   10.7376  -24.2944 C.ar    1  UNL1        0.1356
     21 C          50.9460   11.5165  -25.4143 C.ar    1  UNL1        0.0207
     22 C          50.9180   10.9731  -26.6985 C.ar    1  UNL1       -0.0028
     23 C          50.5789    9.6204  -26.8948 C.ar    1  UNL1       -0.0216
     24 C          50.2721    8.8364  -25.7727 C.ar    1  UNL1        0.0085
     25 C          50.2888    9.3779  -24.4813 C.ar    1  UNL1        0.0762
     26 CL         49.8322    8.3136  -23.1560 Cl      1  UNL1       -0.0809
     27 C          50.4949    8.9613  -28.2611 C.3     1  UNL1        0.0224
     28 C          49.1283    8.8355  -28.9212 C.3     1  UNL1        0.0047
     29 C          49.7970    7.6092  -28.3121 C.3     1  UNL1        0.0047
     30 C          49.6784   13.9225  -20.1449 C.3     1  UNL1        0.1702
     31 C          51.9479   13.9507  -19.7401 C.3     1  UNL1        0.1746
     32 O          50.7334   13.3012  -19.4392 O.3     1  UNL1       -0.3463
     33 O          46.8031   11.1100  -23.0279 O.3     1  UNL1       -0.4513
     34 C          46.6317   11.8569  -24.2025 C.ar    1  UNL1        0.1580
     35 C          47.4935   11.7066  -25.3031 C.ar    1  UNL1        0.0677
     36 C          47.2739   12.4297  -26.4789 C.ar    1  UNL1        0.1398
     37 F          48.0984   12.2363  -27.5395 F       1  UNL1       -0.2044
     38 C          46.1909   13.3212  -26.5682 C.ar    1  UNL1        0.0175
     39 C          45.3262   13.4626  -25.4716 C.ar    1  UNL1        0.0130
     40 C          45.5395   12.7301  -24.3000 C.ar    1  UNL1        0.0919
     41 CL         44.4154   12.9028  -22.9613 Cl      1  UNL1       -0.0791
     42 C          45.8807   14.0268  -27.8610 C.3     1  UNL1        0.1382
     43 C          46.0881   15.4977  -27.6896 C.2     1  UNL1        0.3234
     44 O          45.3887   16.3141  -28.3489 O.2     1  UNL1       -0.2497
     45 O          47.0523   15.9478  -26.7807 O.3     1  UNL1       -0.4215
     46 C          46.8771   17.0779  -25.9243 C.3     1  UNL1        0.3207
     47 O          47.7505   18.1184  -26.3455 O.3     1  UNL1       -0.3070
     48 C          49.0543   18.0906  -25.7649 C.3     1  UNL1        0.2456
     49 C          49.5014   16.7024  -25.2469 C.3     1  UNL1        0.1781
     50 O          50.7912   16.7910  -24.6955 O.3     1  UNL1       -0.3790
     51 C          48.5123   16.1854  -24.1809 C.3     1  UNL1        0.1733
     52 O          48.5437   14.7814  -24.1769 O.3     1  UNL1       -0.3793
     53 C          47.0687   16.6878  -24.4418 C.3     1  UNL1        0.2106
     54 O          46.7954   17.8115  -23.6435 O.3     1  UNL1       -0.3766
     55 H          51.1361   15.8624  -24.6254 H       1  UNL1        0.2106
     56 H          48.1518   14.4857  -23.3139 H       1  UNL1        0.2105
     57 H          46.6322   17.4776  -22.7225 H       1  UNL1        0.2107
     58 C          50.0373   18.5942  -26.7851 C.2     1  UNL1        0.3439
     59 O          51.2572   18.2971  -26.6827 O.2     1  UNL1       -0.2475
     60 O          49.6237   19.4268  -27.8216 O.3     1  UNL1       -0.4785
     61 H          48.6551   19.7065  -27.9185 H       1  UNL1        0.2951
@<TRIPOS>BOND
     1    31    32    1
     2    32    30    1
     3    30     1    1
     4     1     2   ar
     5     2     7    1
     6     7     8    2
     7     7     9   am
     8     9    11    1
     9    11    12    1
    10    11    13    1
    11    11    14    1
    12     2     3   ar
    13     3     4   ar
    14     4     5   ar
    15     5    33    1
    16    33    34    1
    17    34    35   ar
    18    35    36   ar
    19    36    37    1
    20    36    38   ar
    21    38    42    1
    22    42    43    1
    23    43    44    2
    24    43    45    1
    25    45    46    1
    26    46    47    1
    27    47    48    1
    28    48    58    1
    29    58    59    2
    30    58    60    1
    31    48    49    1
    32    49    50    1
    33    49    51    1
    34    51    52    1
    35    51    53    1
    36    53    54    1
    37    38    39   ar
    38    39    40   ar
    39    40    41    1
    40     5     6   ar
    41     6    15    1
    42    15    17    1
    43    17    18    2
    44    17    19    2
    45    17    20    1
    46    20    21   ar
    47    21    22   ar
    48    22    23   ar
    49    23    27    1
    50    27    28    1
    51    28    29    1
    52    23    24   ar
    53    24    25   ar
    54    25    26    1
    55     6     1   ar
    56    25    20   ar
    57    40    34   ar
    58    29    27    1
    59    53    46    1
    60     9    10    1
    61    60    61    1
    62    50    55    1
    63    52    56    1
    64    54    57    1
    65    15    16    1
@<TRIPOS>MOLECULE
*****
 61 65 0 0 0
SMALL
GASTEIGER

@<TRIPOS>ATOM
      1 C          50.9698   10.3846  -25.2552 C.ar    1  UNL1        0.0293
      2 C          50.6983   10.4942  -26.6445 C.ar    1  UNL1        0.0532
      3 C          49.4334   10.9238  -27.0700 C.ar    1  UNL1        0.0075
      4 C          48.4655   11.3092  -26.1460 C.ar    1  UNL1        0.0389
      5 C          48.7529   11.3005  -24.7746 C.ar    1  UNL1        0.1595
      6 C          50.0133   10.8717  -24.3328 C.ar    1  UNL1        0.0977
      7 C          51.7311   10.2465  -27.6728 C.2     1  UNL1        0.2456
      8 O          52.6028   11.1289  -27.8954 O.2     1  UNL1       -0.2702
      9 N          51.7700    8.9823  -28.3616 N.am    1  UNL1       -0.3040
     10 H          51.1376    8.2332  -27.9977 H       1  UNL1        0.1496
     11 C          52.6042    8.6828  -29.5405 C.3     1  UNL1        0.0572
     12 C          53.0671    9.9900  -30.2129 C.3     1  UNL1        0.0196
     13 C          53.8203    7.8319  -29.1281 C.3     1  UNL1        0.0196
     14 C          51.7649    7.8821  -30.5574 C.3     1  UNL1        0.0196
     15 N          50.3456   11.0112  -22.9480 N.pl3   1  UNL1       -0.2122
     16 H          51.2138   11.5309  -22.6912 H       1  UNL1        0.1738
     17 S          49.6980    9.8884  -21.7984 S.O2    1  UNL1        0.0745
     18 O          50.7636    9.5233  -20.8051 O.2     1  UNL1       -0.1499
     19 O          49.2735    8.6379  -22.5158 O.2     1  UNL1       -0.1499
     20 C          48.2829   10.6042  -21.0020 C.ar    1  UNL1        0.1356
     21 C          47.0251   10.0694  -21.3123 C.ar    1  UNL1        0.0207
     22 C          45.8573   10.6452  -20.8125 C.ar    1  UNL1       -0.0028
     23 C          45.9200   11.7717  -19.9696 C.ar    1  UNL1       -0.0216
     24 C          47.1794   12.2977  -19.6460 C.ar    1  UNL1        0.0085
     25 C          48.3557   11.7306  -20.1521 C.ar    1  UNL1        0.0762
     26 CL         49.8745   12.5095  -19.7229 Cl      1  UNL1       -0.0809
     27 C          44.6955   12.4758  -19.4097 C.3     1  UNL1        0.0224
     28 C          43.8692   11.7583  -18.3508 C.3     1  UNL1        0.0047
     29 C          43.3473   11.8719  -19.7779 C.3     1  UNL1        0.0047
     30 C          52.2588    9.7667  -24.7468 C.3     1  UNL1        0.1702
     31 C          53.4631   11.7318  -24.6894 C.3     1  UNL1        0.1746
     32 O          52.9337   10.6836  -23.9095 O.3     1  UNL1       -0.3463
     33 O          47.8306   11.7771  -23.8308 O.3     1  UNL1       -0.4513
     34 C          47.5062   13.1243  -23.6146 C.ar    1  UNL1        0.1580
     35 C          48.4003   14.0044  -22.9800 C.ar    1  UNL1        0.0677
     36 C          48.0714   15.3531  -22.8174 C.ar    1  UNL1        0.1398
     37 F          48.9693   16.1886  -22.2362 F       1  UNL1       -0.2044
     38 C          46.8375   15.8404  -23.2817 C.ar    1  UNL1        0.0175
     39 C          45.9503   14.9620  -23.9234 C.ar    1  UNL1        0.0130
     40 C          46.2850   13.6156  -24.0964 C.ar    1  UNL1        0.0919
     41 CL         45.1678   12.5532  -24.9383 Cl      1  UNL1       -0.0791
     42 C          46.5139   17.3085  -23.2081 C.3     1  UNL1        0.1382
     43 C          46.8686   17.9638  -24.5045 C.2     1  UNL1        0.3234
     44 O          45.9682   18.2157  -25.3508 O.2     1  UNL1       -0.2497
     45 O          48.2032   18.3040  -24.7526 O.3     1  UNL1       -0.4215
     46 C          48.7362   18.5498  -26.0551 C.3     1  UNL1        0.3207
     47 O          48.0859   17.6982  -26.9903 O.3     1  UNL1       -0.3070
     48 C          48.6889   16.4166  -27.1677 C.3     1  UNL1        0.2456
     49 C          49.5572   15.9408  -25.9782 C.3     1  UNL1        0.1781
     50 O          50.1019   14.6761  -26.2600 O.3     1  UNL1       -0.3790
     51 C          50.6933   16.9500  -25.7081 C.3     1  UNL1        0.1733
     52 O          51.0580   16.8700  -24.3543 O.3     1  UNL1       -0.3793
     53 C          50.2738   18.3996  -26.0646 C.3     1  UNL1        0.2106
     54 O          50.7498   18.7411  -27.3420 O.3     1  UNL1       -0.3766
     55 H          50.4169   14.3020  -25.3957 H       1  UNL1        0.2106
     56 H          51.9571   17.2829  -24.2719 H       1  UNL1        0.2105
     57 H          51.7208   18.9265  -27.2474 H       1  UNL1        0.2107
     58 C          47.6004   15.4146  -27.4363 C.2     1  UNL1        0.3439
     59 O          47.5956   14.3129  -26.8256 O.2     1  UNL1       -0.2475
     60 O          46.6178   15.6695  -28.3892 O.3     1  UNL1       -0.4785
     61 H          46.6070   16.5339  -28.9170 H       1  UNL1        0.2951
@<TRIPOS>BOND
     1    31    32    1
     2    32    30    1
     3    30     1    1
     4     1     2   ar
     5     2     7    1
     6     7     8    2
     7     7     9   am
     8     9    11    1
     9    11    12    1
    10    11    13    1
    11    11    14    1
    12     2     3   ar
    13     3     4   ar
    14     4     5   ar
    15     5    33    1
    16    33    34    1
    17    34    35   ar
    18    35    36   ar
    19    36    37    1
    20    36    38   ar
    21    38    42    1
    22    42    43    1
    23    43    44    2
    24    43    45    1
    25    45    46    1
    26    46    47    1
    27    47    48    1
    28    48    58    1
    29    58    59    2
    30    58    60    1
    31    48    49    1
    32    49    50    1
    33    49    51    1
    34    51    52    1
    35    51    53    1
    36    53    54    1
    37    38    39   ar
    38    39    40   ar
    39    40    41    1
    40     5     6   ar
    41     6    15    1
    42    15    17    1
    43    17    18    2
    44    17    19    2
    45    17    20    1
    46    20    21   ar
    47    21    22   ar
    48    22    23   ar
    49    23    27    1
    50    27    28    1
    51    28    29    1
    52    23    24   ar
    53    24    25   ar
    54    25    26    1
    55     6     1   ar
    56    25    20   ar
    57    40    34   ar
    58    29    27    1
    59    53    46    1
    60     9    10    1
    61    60    61    1
    62    50    55    1
    63    52    56    1
    64    54    57    1
    65    15    16    1
@<TRIPOS>MOLECULE
*****
 61 65 0 0 0
SMALL
GASTEIGER

@<TRIPOS>ATOM
      1 C          49.3531   11.5107  -20.3331 C.ar    1  UNL1        0.0293
      2 C          48.1735   11.6191  -19.5505 C.ar    1  UNL1        0.0532
      3 C          46.9242   11.6632  -20.1853 C.ar    1  UNL1        0.0075
      4 C          46.8245   11.5326  -21.5682 C.ar    1  UNL1        0.0389
      5 C          47.9727   11.3256  -22.3442 C.ar    1  UNL1        0.1595
      6 C          49.2301   11.2807  -21.7241 C.ar    1  UNL1        0.0977
      7 C          48.2026   11.6084  -18.0725 C.2     1  UNL1        0.2456
      8 O          47.2819   11.0225  -17.4425 O.2     1  UNL1       -0.2702
      9 N          49.3085   12.2085  -17.3717 N.am    1  UNL1       -0.3040
     10 H          50.1226   12.5091  -17.9551 H       1  UNL1        0.1496
     11 C          49.3620   12.4500  -15.9176 C.3     1  UNL1        0.0572
     12 C          48.7666   11.2504  -15.1550 C.3     1  UNL1        0.0196
     13 C          50.8158   12.6996  -15.4740 C.3     1  UNL1        0.0196
     14 C          48.5242   13.7024  -15.5869 C.3     1  UNL1        0.0196
     15 N          50.3738   10.9184  -22.5039 N.pl3   1  UNL1       -0.2122
     16 H          50.9005   10.0539  -22.2488 H       1  UNL1        0.1738
     17 S          51.1986   12.1333  -23.4235 S.O2    1  UNL1        0.0745
     18 O          52.3485   12.6700  -22.6203 O.2     1  UNL1       -0.1499
     19 O          50.2515   13.2654  -23.7061 O.2     1  UNL1       -0.1499
     20 C          51.7462   11.4422  -24.9636 C.ar    1  UNL1        0.1356
     21 C          52.2202   12.3292  -25.9397 C.ar    1  UNL1        0.0207
     22 C          52.5670   11.8769  -27.2127 C.ar    1  UNL1       -0.0028
     23 C          52.4616   10.5110  -27.5391 C.ar    1  UNL1       -0.0216
     24 C          52.0021    9.6206  -26.5574 C.ar    1  UNL1        0.0085
     25 C          51.6429   10.0691  -25.2802 C.ar    1  UNL1        0.0762
     26 CL         51.0275    8.8694  -24.1491 Cl      1  UNL1       -0.0809
     27 C          52.7888    9.9434  -28.9099 C.3     1  UNL1        0.0224
     28 C          52.0722    8.6769  -29.3587 C.3     1  UNL1        0.0047
     29 C          53.5319    8.6147  -28.9260 C.3     1  UNL1        0.0047
     30 C          50.7309   11.6287  -19.7088 C.3     1  UNL1        0.1702
     31 C          52.3737   13.2045  -19.3436 C.3     1  UNL1        0.1746
     32 O          50.9832   12.9726  -19.3516 O.3     1  UNL1       -0.3463
     33 O          47.8901   11.0924  -23.7252 O.3     1  UNL1       -0.4513
     34 C          47.2279   11.9097  -24.6529 C.ar    1  UNL1        0.1580
     35 C          46.2040   12.7896  -24.2603 C.ar    1  UNL1        0.0677
     36 C          45.5911   13.6264  -25.1971 C.ar    1  UNL1        0.1398
     37 F          44.6325   14.4938  -24.7836 F       1  UNL1       -0.2044
     38 C          45.9893   13.5898  -26.5445 C.ar    1  UNL1        0.0175
     39 C          47.0182   12.7174  -26.9326 C.ar    1  UNL1        0.0130
     40 C          47.6391   11.8891  -25.9928 C.ar    1  UNL1        0.0919
     41 CL         48.9495   10.8379  -26.5060 Cl      1  UNL1       -0.0791
     42 C          45.4128   14.5573  -27.5431 C.3     1  UNL1        0.1382
     43 C          46.2415   15.8018  -27.5686 C.2     1  UNL1        0.3234
     44 O          46.2073   16.5615  -28.5746 O.2     1  UNL1       -0.2497
     45 O          47.0359   16.1136  -26.4596 O.3     1  UNL1       -0.4215
     46 C          46.9215   17.3244  -25.7098 C.3     1  UNL1        0.3207
     47 O          47.8704   18.2640  -26.1994 O.3     1  UNL1       -0.3070
     48 C          49.1585   18.2028  -25.5875 C.3     1  UNL1        0.2456
     49 C          49.5020   16.8400  -24.9394 C.3     1  UNL1        0.1781
     50 O          50.7846   16.8928  -24.3671 O.3     1  UNL1       -0.3790
     51 C          48.4612   16.4855  -23.8562 C.3     1  UNL1        0.1733
     52 O          48.3981   15.0884  -23.7286 O.3     1  UNL1       -0.3793
     53 C          47.0596   17.0559  -24.1947 C.3     1  UNL1        0.2106
     54 O          46.8480   18.2617  -23.5046 O.3     1  UNL1       -0.3766
     55 H          51.0650   15.9536  -24.2077 H       1  UNL1        0.2106
     56 H          47.9717   14.8968  -22.8527 H       1  UNL1        0.2105
     57 H          46.6461   18.0224  -22.5621 H       1  UNL1        0.2107
     58 C          50.1916   18.5484  -26.6240 C.2     1  UNL1        0.3439
     59 O          49.8775   19.2682  -27.6089 O.2     1  UNL1       -0.2475
     60 O          51.4860   18.0433  -26.5346 O.3     1  UNL1       -0.4785
     61 H          51.7650   17.4405  -25.7701 H       1  UNL1        0.2951
@<TRIPOS>BOND
     1    31    32    1
     2    32    30    1
     3    30     1    1
     4     1     2   ar
     5     2     7    1
     6     7     8    2
     7     7     9   am
     8     9    11    1
     9    11    12    1
    10    11    13    1
    11    11    14    1
    12     2     3   ar
    13     3     4   ar
    14     4     5   ar
    15     5    33    1
    16    33    34    1
    17    34    35   ar
    18    35    36   ar
    19    36    37    1
    20    36    38   ar
    21    38    42    1
    22    42    43    1
    23    43    44    2
    24    43    45    1
    25    45    46    1
    26    46    47    1
    27    47    48    1
    28    48    58    1
    29    58    59    2
    30    58    60    1
    31    48    49    1
    32    49    50    1
    33    49    51    1
    34    51    52    1
    35    51    53    1
    36    53    54    1
    37    38    39   ar
    38    39    40   ar
    39    40    41    1
    40     5     6   ar
    41     6    15    1
    42    15    17    1
    43    17    18    2
    44    17    19    2
    45    17    20    1
    46    20    21   ar
    47    21    22   ar
    48    22    23   ar
    49    23    27    1
    50    27    28    1
    51    28    29    1
    52    23    24   ar
    53    24    25   ar
    54    25    26    1
    55     6     1   ar
    56    25    20   ar
    57    40    34   ar
    58    29    27    1
    59    53    46    1
    60     9    10    1
    61    60    61    1
    62    50    55    1
    63    52    56    1
    64    54    57    1
    65    15    16    1
@<TRIPOS>MOLECULE
*****
 61 65 0 0 0
SMALL
GASTEIGER

@<TRIPOS>ATOM
      1 C          49.5300   11.7613  -18.3645 C.ar    1  UNL1        0.0293
      2 C          50.6535   12.2344  -17.6366 C.ar    1  UNL1        0.0532
      3 C          51.8108   12.6223  -18.3264 C.ar    1  UNL1        0.0075
      4 C          51.8452   12.6137  -19.7185 C.ar    1  UNL1        0.0389
      5 C          50.7104   12.2435  -20.4523 C.ar    1  UNL1        0.1595
      6 C          49.5452   11.8512  -19.7768 C.ar    1  UNL1        0.0977
      7 C          50.6261   12.4112  -16.1692 C.2     1  UNL1        0.2456
      8 O          51.5326   11.8865  -15.4686 O.2     1  UNL1       -0.2702
      9 N          49.6069   13.2288  -15.5633 N.am    1  UNL1       -0.3040
     10 H          49.0034   13.7809  -16.2147 H       1  UNL1        0.1496
     11 C          49.3407   13.3199  -14.1154 C.3     1  UNL1        0.0572
     12 C          48.2504   14.3732  -13.8384 C.3     1  UNL1        0.0196
     13 C          48.9109   11.9460  -13.5671 C.3     1  UNL1        0.0196
     14 C          50.6334   13.7551  -13.3950 C.3     1  UNL1        0.0196
     15 N          48.3512   11.6232  -20.5317 N.pl3   1  UNL1       -0.2122
     16 H          47.5324   12.2518  -20.3757 H       1  UNL1        0.1738
     17 S          48.0578   10.0566  -21.2111 S.O2    1  UNL1        0.0745
     18 O          46.5842    9.8829  -21.4427 O.2     1  UNL1       -0.1499
     19 O          48.5096    9.0046  -20.2375 O.2     1  UNL1       -0.1499
     20 C          48.9792    9.8811  -22.7176 C.ar    1  UNL1        0.1356
     21 C          49.9929    8.9137  -22.7481 C.ar    1  UNL1        0.0207
     22 C          50.8316    8.7879  -23.8554 C.ar    1  UNL1       -0.0028
     23 C          50.6659    9.6243  -24.9762 C.ar    1  UNL1       -0.0216
     24 C          49.6413   10.5821  -24.9523 C.ar    1  UNL1        0.0085
     25 C          48.8017   10.7206  -23.8401 C.ar    1  UNL1        0.0762
     26 CL         47.5877   11.9934  -23.9012 Cl      1  UNL1       -0.0809
     27 C          51.5556    9.5724  -26.2067 C.3     1  UNL1        0.0224
     28 C          51.7137   10.8375  -27.0394 C.3     1  UNL1        0.0047
     29 C          50.8498    9.6910  -27.5505 C.3     1  UNL1        0.0047
     30 C          48.3213   11.1732  -17.6609 C.3     1  UNL1        0.1702
     31 C          47.2057   13.1818  -17.8508 C.3     1  UNL1        0.1746
     32 O          47.1429   11.8003  -18.1247 O.3     1  UNL1       -0.3463
     33 O          50.6874   12.3211  -21.8530 O.3     1  UNL1       -0.4513
     34 C          50.5724   13.5003  -22.6034 C.ar    1  UNL1        0.1580
     35 C          49.6337   14.4939  -22.2746 C.ar    1  UNL1        0.0677
     36 C          49.5702   15.6802  -23.0111 C.ar    1  UNL1        0.1398
     37 F          48.6809   16.6389  -22.6476 F       1  UNL1       -0.2044
     38 C          50.4418   15.8869  -24.0942 C.ar    1  UNL1        0.0175
     39 C          51.3846   14.8976  -24.4149 C.ar    1  UNL1        0.0130
     40 C          51.4555   13.7163  -23.6704 C.ar    1  UNL1        0.0919
     41 CL         52.6732   12.5167  -24.0752 Cl      1  UNL1       -0.0791
     42 C          50.4563   17.2001  -24.8295 C.3     1  UNL1        0.1382
     43 C          50.3515   16.9504  -26.3001 C.2     1  UNL1        0.3234
     44 O          51.1903   17.4656  -27.0884 O.2     1  UNL1       -0.2497
     45 O          49.3249   16.1292  -26.7797 O.3     1  UNL1       -0.4215
     46 C          48.1571   16.6153  -27.4437 C.3     1  UNL1        0.3207
     47 O          47.5560   17.6261  -26.6437 O.3     1  UNL1       -0.3070
     48 C          46.6110   17.1586  -25.6814 C.3     1  UNL1        0.2456
     49 C          46.7896   15.6781  -25.2668 C.3     1  UNL1        0.1781
     50 O          45.8095   15.3247  -24.3235 O.3     1  UNL1       -0.3790
     51 C          46.6801   14.7598  -26.5025 C.3     1  UNL1        0.1733
     52 O          47.4165   13.5883  -26.2630 O.3     1  UNL1       -0.3793
     53 C          47.1912   15.4599  -27.7883 C.3     1  UNL1        0.2106
     54 O          46.1095   15.9821  -28.5178 O.3     1  UNL1       -0.3766
     55 H          46.1148   14.4815  -23.8969 H       1  UNL1        0.2106
     56 H          47.0958   12.9074  -26.9105 H       1  UNL1        0.2105
     57 H          45.6733   15.2156  -28.9744 H       1  UNL1        0.2107
     58 C          46.6963   18.0411  -24.4670 C.2     1  UNL1        0.3439
     59 O          46.0305   17.7576  -23.4360 O.2     1  UNL1       -0.2475
     60 O          47.4693   19.1991  -24.4817 O.3     1  UNL1       -0.4785
     61 H          47.9965   19.4706  -25.3028 H       1  UNL1        0.2951
@<TRIPOS>BOND
     1    31    32    1
     2    32    30    1
     3    30     1    1
     4     1     2   ar
     5     2     7    1
     6     7     8    2
     7     7     9   am
     8     9    11    1
     9    11    12    1
    10    11    13    1
    11    11    14    1
    12     2     3   ar
    13     3     4   ar
    14     4     5   ar
    15     5    33    1
    16    33    34    1
    17    34    35   ar
    18    35    36   ar
    19    36    37    1
    20    36    38   ar
    21    38    42    1
    22    42    43    1
    23    43    44    2
    24    43    45    1
    25    45    46    1
    26    46    47    1
    27    47    48    1
    28    48    58    1
    29    58    59    2
    30    58    60    1
    31    48    49    1
    32    49    50    1
    33    49    51    1
    34    51    52    1
    35    51    53    1
    36    53    54    1
    37    38    39   ar
    38    39    40   ar
    39    40    41    1
    40     5     6   ar
    41     6    15    1
    42    15    17    1
    43    17    18    2
    44    17    19    2
    45    17    20    1
    46    20    21   ar
    47    21    22   ar
    48    22    23   ar
    49    23    27    1
    50    27    28    1
    51    28    29    1
    52    23    24   ar
    53    24    25   ar
    54    25    26    1
    55     6     1   ar
    56    25    20   ar
    57    40    34   ar
    58    29    27    1
    59    53    46    1
    60     9    10    1
    61    60    61    1
    62    50    55    1
    63    52    56    1
    64    54    57    1
    65    15    16    1
@<TRIPOS>MOLECULE
*****
 61 65 0 0 0
SMALL
GASTEIGER

@<TRIPOS>ATOM
      1 C          48.8443   12.0480  -19.1817 C.ar    1  UNL1        0.0293
      2 C          49.7111   12.4554  -18.1338 C.ar    1  UNL1        0.0532
      3 C          51.0571   12.7280  -18.4163 C.ar    1  UNL1        0.0075
      4 C          51.5350   12.6702  -19.7230 C.ar    1  UNL1        0.0389
      5 C          50.6680   12.3660  -20.7810 C.ar    1  UNL1        0.1595
      6 C          49.3189   12.0892  -20.5144 C.ar    1  UNL1        0.0977
      7 C          49.2301   12.6828  -16.7545 C.2     1  UNL1        0.2456
      8 O          48.2931   13.5018  -16.5562 O.2     1  UNL1       -0.2702
      9 N          49.7893   11.9251  -15.6648 N.am    1  UNL1       -0.3040
     10 H          50.4255   11.1365  -15.9233 H       1  UNL1        0.1496
     11 C          49.5539   12.1949  -14.2340 C.3     1  UNL1        0.0572
     12 C          50.7471   11.6991  -13.3940 C.3     1  UNL1        0.0196
     13 C          49.3280   13.7017  -14.0080 C.3     1  UNL1        0.0196
     14 C          48.2902   11.4343  -13.7823 C.3     1  UNL1        0.0196
     15 N          48.4149   11.9306  -21.6122 N.pl3   1  UNL1       -0.2122
     16 H          47.6479   12.6283  -21.7342 H       1  UNL1        0.1738
     17 S          48.2185   10.3689  -22.3365 S.O2    1  UNL1        0.0745
     18 O          46.7545   10.0790  -22.5042 O.2     1  UNL1       -0.1499
     19 O          48.8047    9.3263  -21.4266 O.2     1  UNL1       -0.1499
     20 C          49.0738   10.3238  -23.8907 C.ar    1  UNL1        0.1356
     21 C          48.7168   11.2766  -24.8546 C.ar    1  UNL1        0.0207
     22 C          49.2645   11.2404  -26.1367 C.ar    1  UNL1       -0.0028
     23 C          50.2031   10.2500  -26.4852 C.ar    1  UNL1       -0.0216
     24 C          50.5725    9.3057  -25.5159 C.ar    1  UNL1        0.0085
     25 C          50.0193    9.3301  -24.2295 C.ar    1  UNL1        0.0762
     26 CL         50.5163    8.0618  -23.1151 Cl      1  UNL1       -0.0809
     27 C          50.8219   10.1227  -27.8670 C.3     1  UNL1        0.0224
     28 C          51.5276    8.8222  -28.2270 C.3     1  UNL1        0.0047
     29 C          52.3426   10.0723  -27.9192 C.3     1  UNL1        0.0047
     30 C          47.4284   11.5805  -18.9013 C.3     1  UNL1        0.1702
     31 C          45.1969   11.9275  -19.3653 C.3     1  UNL1        0.1746
     32 O          46.5067   12.3937  -19.5988 O.3     1  UNL1       -0.3463
     33 O          51.1018   12.3983  -22.1148 O.3     1  UNL1       -0.4513
     34 C          50.8562   13.4338  -23.0283 C.ar    1  UNL1        0.1580
     35 C          50.0569   14.5399  -22.6902 C.ar    1  UNL1        0.0677
     36 C          49.8648   15.5808  -23.6031 C.ar    1  UNL1        0.1398
     37 F          49.1205   16.6548  -23.2363 F       1  UNL1       -0.2044
     38 C          50.4648   15.5264  -24.8730 C.ar    1  UNL1        0.0175
     39 C          51.2700   14.4257  -25.2051 C.ar    1  UNL1        0.0130
     40 C          51.4714   13.3905  -24.2870 C.ar    1  UNL1        0.0919
     41 CL         52.5165   12.0471  -24.7216 Cl      1  UNL1       -0.0791
     42 C          50.3533   16.6860  -25.8261 C.3     1  UNL1        0.1382
     43 C          48.9108   17.0007  -26.0633 C.2     1  UNL1        0.3234
     44 O          48.5625   18.1758  -26.3606 O.2     1  UNL1       -0.2497
     45 O          47.9651   15.9738  -25.9661 O.3     1  UNL1       -0.4215
     46 C          46.5545   16.1904  -25.9000 C.3     1  UNL1        0.3207
     47 O          46.0216   15.4448  -24.8122 O.3     1  UNL1       -0.3070
     48 C          45.6334   14.1071  -25.1239 C.3     1  UNL1        0.2456
     49 C          46.3356   13.5026  -26.3636 C.3     1  UNL1        0.1781
     50 O          45.8786   12.1911  -26.5794 O.3     1  UNL1       -0.3790
     51 C          46.0537   14.3657  -27.6117 C.3     1  UNL1        0.1733
     52 O          47.1132   14.2084  -28.5200 O.3     1  UNL1       -0.3793
     53 C          45.8773   15.8631  -27.2494 C.3     1  UNL1        0.2106
     54 O          44.5116   16.1806  -27.1544 O.3     1  UNL1       -0.3766
     55 H          46.5278   11.7603  -27.1952 H       1  UNL1        0.2106
     56 H          46.7826   14.5118  -29.4056 H       1  UNL1        0.2105
     57 H          44.1667   16.2494  -28.0832 H       1  UNL1        0.2107
     58 C          45.8956   13.2456  -23.9197 C.2     1  UNL1        0.3439
     59 O          46.7640   13.5926  -23.0757 O.2     1  UNL1       -0.2475
     60 O          45.2212   12.0398  -23.7469 O.3     1  UNL1       -0.4785
     61 H          44.5358   11.7180  -24.4195 H       1  UNL1        0.2951
@<TRIPOS>BOND
     1    31    32    1
     2    32    30    1
     3    30     1    1
     4     1     2   ar
     5     2     7    1
     6     7     8    2
     7     7     9   am
     8     9    11    1
     9    11    12    1
    10    11    13    1
    11    11    14    1
    12     2     3   ar
    13     3     4   ar
    14     4     5   ar
    15     5    33    1
    16    33    34    1
    17    34    35   ar
    18    35    36   ar
    19    36    37    1
    20    36    38   ar
    21    38    42    1
    22    42    43    1
    23    43    44    2
    24    43    45    1
    25    45    46    1
    26    46    47    1
    27    47    48    1
    28    48    58    1
    29    58    59    2
    30    58    60    1
    31    48    49    1
    32    49    50    1
    33    49    51    1
    34    51    52    1
    35    51    53    1
    36    53    54    1
    37    38    39   ar
    38    39    40   ar
    39    40    41    1
    40     5     6   ar
    41     6    15    1
    42    15    17    1
    43    17    18    2
    44    17    19    2
    45    17    20    1
    46    20    21   ar
    47    21    22   ar
    48    22    23   ar
    49    23    27    1
    50    27    28    1
    51    28    29    1
    52    23    24   ar
    53    24    25   ar
    54    25    26    1
    55     6     1   ar
    56    25    20   ar
    57    40    34   ar
    58    29    27    1
    59    53    46    1
    60     9    10    1
    61    60    61    1
    62    50    55    1
    63    52    56    1
    64    54    57    1
    65    15    16    1
@<TRIPOS>MOLECULE
*****
 61 65 0 0 0
SMALL
GASTEIGER

@<TRIPOS>ATOM
      1 C          48.5616   12.9955  -20.2447 C.ar    1  UNL1        0.0293
      2 C          47.7501   12.5960  -19.1504 C.ar    1  UNL1        0.0532
      3 C          46.5687   11.8802  -19.3907 C.ar    1  UNL1        0.0075
      4 C          46.2195   11.4982  -20.6835 C.ar    1  UNL1        0.0389
      5 C          47.0612   11.7996  -21.7624 C.ar    1  UNL1        0.1595
      6 C          48.2459   12.5167  -21.5385 C.ar    1  UNL1        0.0977
      7 C          48.1433   12.8379  -17.7460 C.2     1  UNL1        0.2456
      8 O          47.5157   13.6962  -17.0698 O.2     1  UNL1       -0.2702
      9 N          49.1911   12.0513  -17.1480 N.am    1  UNL1       -0.3040
     10 H          49.5383   11.2368  -17.7043 H       1  UNL1        0.1496
     11 C          49.8176   12.3245  -15.8409 C.3     1  UNL1        0.0572
     12 C          49.6310   11.1203  -14.8975 C.3     1  UNL1        0.0196
     13 C          51.3151   12.6353  -16.0245 C.3     1  UNL1        0.0196
     14 C          49.1341   13.5526  -15.2051 C.3     1  UNL1        0.0196
     15 N          49.1678   12.6850  -22.6199 N.pl3   1  UNL1       -0.2122
     16 H          48.8546   13.2065  -23.4684 H       1  UNL1        0.1738
     17 S          50.5009   11.5904  -22.7822 S.O2    1  UNL1        0.0745
     18 O          50.4464   10.5731  -21.6787 O.2     1  UNL1       -0.1499
     19 O          51.7869   12.3573  -22.6537 O.2     1  UNL1       -0.1499
     20 C          50.4461   10.8213  -24.3805 C.ar    1  UNL1        0.1356
     21 C          50.2049    9.4414  -24.4276 C.ar    1  UNL1        0.0207
     22 C          50.2534    8.7453  -25.6352 C.ar    1  UNL1       -0.0028
     23 C          50.5320    9.4210  -26.8390 C.ar    1  UNL1       -0.0216
     24 C          50.7579   10.8047  -26.7944 C.ar    1  UNL1        0.0085
     25 C          50.7204   11.5085  -25.5842 C.ar    1  UNL1        0.0762
     26 CL         51.0742   13.2315  -25.6435 Cl      1  UNL1       -0.0809
     27 C          50.6337    8.7320  -28.1893 C.3     1  UNL1        0.0224
     28 C          49.3980    8.6965  -29.0785 C.3     1  UNL1        0.0047
     29 C          49.8454    7.4388  -28.3439 C.3     1  UNL1        0.0047
     30 C          49.7549   13.9124  -20.0521 C.3     1  UNL1        0.1702
     31 C          52.0361   13.8688  -19.7210 C.3     1  UNL1        0.1746
     32 O          50.8238   13.1943  -19.4700 O.3     1  UNL1       -0.3463
     33 O          46.7820   11.3409  -23.0586 O.3     1  UNL1       -0.4513
     34 C          46.6405   12.1475  -24.1971 C.ar    1  UNL1        0.1580
     35 C          47.5753   12.1105  -25.2467 C.ar    1  UNL1        0.0677
     36 C          47.3871   12.8908  -26.3909 C.ar    1  UNL1        0.1398
     37 F          48.2847   12.8064  -27.4055 F       1  UNL1       -0.2044
     38 C          46.2625   13.7269  -26.4988 C.ar    1  UNL1        0.0175
     39 C          45.3256   13.7552  -25.4539 C.ar    1  UNL1        0.0130
     40 C          45.5083   12.9654  -24.3148 C.ar    1  UNL1        0.0919
     41 CL         44.2962   12.9963  -23.0437 Cl      1  UNL1       -0.0791
     42 C          45.9922   14.4921  -27.7665 C.3     1  UNL1        0.1382
     43 C          46.2171   15.9509  -27.5270 C.2     1  UNL1        0.3234
     44 O          45.2613   16.6829  -27.1516 O.2     1  UNL1       -0.2497
     45 O          47.4993   16.4810  -27.7098 O.3     1  UNL1       -0.4215
     46 C          48.6096   16.1991  -26.8560 C.3     1  UNL1        0.3207
     47 O          48.1555   16.1399  -25.5094 O.3     1  UNL1       -0.3070
     48 C          48.1508   17.3862  -24.8137 C.3     1  UNL1        0.2456
     49 C          48.0851   18.6350  -25.7255 C.3     1  UNL1        0.1781
     50 O          48.0893   19.8007  -24.9403 O.3     1  UNL1       -0.3790
     51 C          49.2867   18.6537  -26.6941 C.3     1  UNL1        0.1733
     52 O          48.9254   19.3639  -27.8505 O.3     1  UNL1       -0.3793
     53 C          49.7483   17.2214  -27.0680 C.3     1  UNL1        0.2106
     54 O          50.8441   16.8431  -26.2737 O.3     1  UNL1       -0.3766
     55 H          47.7828   20.5411  -25.5268 H       1  UNL1        0.2106
     56 H          49.7685   19.6209  -28.3075 H       1  UNL1        0.2105
     57 H          51.6393   17.3145  -26.6367 H       1  UNL1        0.2107
     58 C          46.9888   17.3910  -23.8594 C.2     1  UNL1        0.3439
     59 O          46.3669   16.3218  -23.6209 O.2     1  UNL1       -0.2475
     60 O          46.5588   18.5757  -23.2676 O.3     1  UNL1       -0.4785
     61 H          47.0196   19.4574  -23.4576 H       1  UNL1        0.2951
@<TRIPOS>BOND
     1    31    32    1
     2    32    30    1
     3    30     1    1
     4     1     2   ar
     5     2     7    1
     6     7     8    2
     7     7     9   am
     8     9    11    1
     9    11    12    1
    10    11    13    1
    11    11    14    1
    12     2     3   ar
    13     3     4   ar
    14     4     5   ar
    15     5    33    1
    16    33    34    1
    17    34    35   ar
    18    35    36   ar
    19    36    37    1
    20    36    38   ar
    21    38    42    1
    22    42    43    1
    23    43    44    2
    24    43    45    1
    25    45    46    1
    26    46    47    1
    27    47    48    1
    28    48    58    1
    29    58    59    2
    30    58    60    1
    31    48    49    1
    32    49    50    1
    33    49    51    1
    34    51    52    1
    35    51    53    1
    36    53    54    1
    37    38    39   ar
    38    39    40   ar
    39    40    41    1
    40     5     6   ar
    41     6    15    1
    42    15    17    1
    43    17    18    2
    44    17    19    2
    45    17    20    1
    46    20    21   ar
    47    21    22   ar
    48    22    23   ar
    49    23    27    1
    50    27    28    1
    51    28    29    1
    52    23    24   ar
    53    24    25   ar
    54    25    26    1
    55     6     1   ar
    56    25    20   ar
    57    40    34   ar
    58    29    27    1
    59    53    46    1
    60     9    10    1
    61    60    61    1
    62    50    55    1
    63    52    56    1
    64    54    57    1
    65    15    16    1
@<TRIPOS>MOLECULE
*****
 61 65 0 0 0
SMALL
GASTEIGER

@<TRIPOS>ATOM
      1 C          50.4884   10.0448  -26.2383 C.ar    1  UNL1        0.0293
      2 C          49.9918    9.6871  -27.5194 C.ar    1  UNL1        0.0532
      3 C          48.7561   10.1924  -27.9477 C.ar    1  UNL1        0.0075
      4 C          48.0451   11.0940  -27.1598 C.ar    1  UNL1        0.0389
      5 C          48.5701   11.5326  -25.9370 C.ar    1  UNL1        0.1595
      6 C          49.8045   11.0351  -25.4938 C.ar    1  UNL1        0.0977
      7 C          50.7689    8.8570  -28.4640 C.2     1  UNL1        0.2456
      8 O          50.3333    7.7194  -28.7865 O.2     1  UNL1       -0.2702
      9 N          51.9761    9.3775  -29.0522 N.am    1  UNL1       -0.3040
     10 H          52.1772   10.3901  -28.8855 H       1  UNL1        0.1496
     11 C          52.9463    8.5908  -29.8367 C.3     1  UNL1        0.0572
     12 C          53.4921    7.4221  -28.9932 C.3     1  UNL1        0.0196
     13 C          52.2842    8.0610  -31.1226 C.3     1  UNL1        0.0196
     14 C          54.1276    9.5014  -30.2303 C.3     1  UNL1        0.0196
     15 N          50.3992   11.6027  -24.3225 N.pl3   1  UNL1       -0.2122
     16 H          49.9503   11.4254  -23.3968 H       1  UNL1        0.1738
     17 S          51.4331   12.9846  -24.4753 S.O2    1  UNL1        0.0745
     18 O          52.5484   12.6682  -25.4300 O.2     1  UNL1       -0.1499
     19 O          52.0347   13.3007  -23.1349 O.2     1  UNL1       -0.1499
     20 C          50.4824   14.3793  -25.0234 C.ar    1  UNL1        0.1356
     21 C          50.4522   14.6422  -26.3997 C.ar    1  UNL1        0.0207
     22 C          49.8180   15.7795  -26.8993 C.ar    1  UNL1       -0.0028
     23 C          49.1791   16.6825  -26.0276 C.ar    1  UNL1       -0.0216
     24 C          49.1956   16.4114  -24.6515 C.ar    1  UNL1        0.0085
     25 C          49.8389   15.2766  -24.1419 C.ar    1  UNL1        0.0762
     26 CL         49.8421   15.0695  -22.3942 Cl      1  UNL1       -0.0809
     27 C          48.4941   17.9582  -26.4880 C.3     1  UNL1        0.0224
     28 C          49.3564   19.0800  -27.0510 C.3     1  UNL1        0.0047
     29 C          48.7624   19.2027  -25.6531 C.3     1  UNL1        0.0047
     30 C          51.7324    9.3951  -25.6618 C.3     1  UNL1        0.1702
     31 C          50.5207    8.2681  -24.0566 C.3     1  UNL1        0.1746
     32 O          51.5669    9.1877  -24.2737 O.3     1  UNL1       -0.3463
     33 O          47.9216   12.5140  -25.1722 O.3     1  UNL1       -0.4513
     34 C          47.3346   12.3129  -23.9144 C.ar    1  UNL1        0.1580
     35 C          47.4751   11.0975  -23.2219 C.ar    1  UNL1        0.0677
     36 C          46.9185   10.9384  -21.9497 C.ar    1  UNL1        0.1398
     37 F          47.1026    9.7681  -21.2875 F       1  UNL1       -0.2044
     38 C          46.2054   11.9928  -21.3536 C.ar    1  UNL1        0.0175
     39 C          46.0744   13.2087  -22.0428 C.ar    1  UNL1        0.0130
     40 C          46.6416   13.3711  -23.3104 C.ar    1  UNL1        0.0919
     41 CL         46.4915   14.9188  -24.1275 Cl      1  UNL1       -0.0791
     42 C          45.6913   11.8731  -19.9441 C.3     1  UNL1        0.1382
     43 C          46.6848   12.4676  -18.9978 C.2     1  UNL1        0.3234
     44 O          46.2961   13.2348  -18.0754 O.2     1  UNL1       -0.2497
     45 O          48.0393   12.1474  -19.1430 O.3     1  UNL1       -0.4215
     46 C          48.6353   10.9496  -18.6417 C.3     1  UNL1        0.3207
     47 O          48.9893   11.1437  -17.2779 O.3     1  UNL1       -0.3070
     48 C          50.2917   11.6853  -17.0586 C.3     1  UNL1        0.2456
     49 C          50.8716   12.4781  -18.2547 C.3     1  UNL1        0.1781
     50 O          52.1517   12.9607  -17.9324 O.3     1  UNL1       -0.3790
     51 C          50.9531   11.5765  -19.5048 C.3     1  UNL1        0.1733
     52 O          50.8737   12.3835  -20.6513 O.3     1  UNL1       -0.3793
     53 C          49.8270   10.5106  -19.5214 C.3     1  UNL1        0.2106
     54 O          50.3138    9.2843  -19.0375 O.3     1  UNL1       -0.3766
     55 H          52.3668   13.6657  -18.5978 H       1  UNL1        0.2106
     56 H          51.2237   11.8454  -21.4087 H       1  UNL1        0.2105
     57 H          50.8575    8.8830  -19.7652 H       1  UNL1        0.2107
     58 C          50.2388   12.5664  -15.8415 C.2     1  UNL1        0.3439
     59 O          51.3072   12.9847  -15.3215 O.2     1  UNL1       -0.2475
     60 O          49.0208   12.8910  -15.2502 O.3     1  UNL1       -0.4785
     61 H          48.1445   12.5503  -15.6269 H       1  UNL1        0.2951
@<TRIPOS>BOND
     1    31    32    1
     2    32    30    1
     3    30     1    1
     4     1     2   ar
     5     2     7    1
     6     7     8    2
     7     7     9   am
     8     9    11    1
     9    11    12    1
    10    11    13    1
    11    11    14    1
    12     2     3   ar
    13     3     4   ar
    14     4     5   ar
    15     5    33    1
    16    33    34    1
    17    34    35   ar
    18    35    36   ar
    19    36    37    1
    20    36    38   ar
    21    38    42    1
    22    42    43    1
    23    43    44    2
    24    43    45    1
    25    45    46    1
    26    46    47    1
    27    47    48    1
    28    48    58    1
    29    58    59    2
    30    58    60    1
    31    48    49    1
    32    49    50    1
    33    49    51    1
    34    51    52    1
    35    51    53    1
    36    53    54    1
    37    38    39   ar
    38    39    40   ar
    39    40    41    1
    40     5     6   ar
    41     6    15    1
    42    15    17    1
    43    17    18    2
    44    17    19    2
    45    17    20    1
    46    20    21   ar
    47    21    22   ar
    48    22    23   ar
    49    23    27    1
    50    27    28    1
    51    28    29    1
    52    23    24   ar
    53    24    25   ar
    54    25    26    1
    55     6     1   ar
    56    25    20   ar
    57    40    34   ar
    58    29    27    1
    59    53    46    1
    60     9    10    1
    61    60    61    1
    62    50    55    1
    63    52    56    1
    64    54    57    1
    65    15    16    1
@<TRIPOS>MOLECULE
*****
 61 65 0 0 0
SMALL
GASTEIGER

@<TRIPOS>ATOM
      1 C          51.2936   10.1129  -27.2487 C.ar    1  UNL1        0.0293
      2 C          52.4731   10.6279  -27.8483 C.ar    1  UNL1        0.0532
      3 C          53.1099   11.7393  -27.2782 C.ar    1  UNL1        0.0075
      4 C          52.6376   12.2993  -26.0939 C.ar    1  UNL1        0.0389
      5 C          51.5329   11.7402  -25.4378 C.ar    1  UNL1        0.1595
      6 C          50.8838   10.6291  -25.9963 C.ar    1  UNL1        0.0977
      7 C          53.1097    9.9854  -29.0176 C.2     1  UNL1        0.2456
      8 O          53.0467   10.5515  -30.1416 O.2     1  UNL1       -0.2702
      9 N          53.8454    8.7585  -28.8509 N.am    1  UNL1       -0.3040
     10 H          54.0137    8.4456  -27.8674 H       1  UNL1        0.1496
     11 C          54.3461    7.9124  -29.9503 C.3     1  UNL1        0.0572
     12 C          53.1927    7.5325  -30.8993 C.3     1  UNL1        0.0196
     13 C          55.4565    8.6486  -30.7235 C.3     1  UNL1        0.0196
     14 C          54.9357    6.6166  -29.3563 C.3     1  UNL1        0.0196
     15 N          49.8569    9.9767  -25.2431 N.pl3   1  UNL1       -0.2122
     16 H          48.8714   10.3037  -25.3520 H       1  UNL1        0.1738
     17 S          50.2748    9.1163  -23.7985 S.O2    1  UNL1        0.0745
     18 O          51.7652    9.1451  -23.6158 O.2     1  UNL1       -0.1499
     19 O          49.8440    7.6831  -23.9363 O.2     1  UNL1       -0.1499
     20 C          49.4345    9.8396  -22.4129 C.ar    1  UNL1        0.1356
     21 C          49.9792    9.6231  -21.1398 C.ar    1  UNL1        0.0207
     22 C          49.3208   10.0659  -19.9927 C.ar    1  UNL1       -0.0028
     23 C          48.0973   10.7561  -20.0925 C.ar    1  UNL1       -0.0216
     24 C          47.5597   10.9868  -21.3675 C.ar    1  UNL1        0.0085
     25 C          48.2104   10.5365  -22.5229 C.ar    1  UNL1        0.0762
     26 CL         47.4139   10.8349  -24.0637 Cl      1  UNL1       -0.0809
     27 C          47.3029   11.2430  -18.8924 C.3     1  UNL1        0.0224
     28 C          46.2249   12.2950  -19.1166 C.3     1  UNL1        0.0047
     29 C          47.5468   12.6841  -18.4661 C.3     1  UNL1        0.0047
     30 C          50.4761    9.0238  -27.9177 C.3     1  UNL1        0.1702
     31 C          48.6062    8.7536  -29.2389 C.3     1  UNL1        0.1746
     32 O          49.1708    9.4964  -28.1820 O.3     1  UNL1       -0.3463
     33 O          51.0987   12.2237  -24.1944 O.3     1  UNL1       -0.4513
     34 C          50.0455   13.1275  -23.9925 C.ar    1  UNL1        0.1580
     35 C          48.9746   13.2246  -24.8983 C.ar    1  UNL1        0.0677
     36 C          47.9144   14.1011  -24.6507 C.ar    1  UNL1        0.1398
     37 F          46.8748   14.1464  -25.5220 F       1  UNL1       -0.2044
     38 C          47.9137   14.9003  -23.4944 C.ar    1  UNL1        0.0175
     39 C          48.9792   14.7948  -22.5866 C.ar    1  UNL1        0.0130
     40 C          50.0336   13.9091  -22.8290 C.ar    1  UNL1        0.0919
     41 CL         51.3311   13.7745  -21.6526 Cl      1  UNL1       -0.0791
     42 C          46.7313   15.7701  -23.1618 C.3     1  UNL1        0.1382
     43 C          47.0759   17.2020  -23.4204 C.2     1  UNL1        0.3234
     44 O          46.4347   18.1196  -22.8398 O.2     1  UNL1       -0.2497
     45 O          48.1238   17.5021  -24.2980 O.3     1  UNL1       -0.4215
     46 C          48.0205   18.4326  -25.3772 C.3     1  UNL1        0.3207
     47 O          47.0314   17.9747  -26.2909 O.3     1  UNL1       -0.3070
     48 C          47.5062   17.0980  -27.3124 C.3     1  UNL1        0.2456
     49 C          48.8173   16.3521  -26.9658 C.3     1  UNL1        0.1781
     50 O          49.1932   15.5237  -28.0372 O.3     1  UNL1       -0.3790
     51 C          49.9446   17.3630  -26.6671 C.3     1  UNL1        0.1733
     52 O          50.8733   16.7632  -25.8011 O.3     1  UNL1       -0.3793
     53 C          49.3954   18.6707  -26.0403 C.3     1  UNL1        0.2106
     54 O          49.2512   19.6584  -27.0295 O.3     1  UNL1       -0.3766
     55 H          49.8630   14.8828  -27.6811 H       1  UNL1        0.2106
     56 H          51.7112   17.2920  -25.8640 H       1  UNL1        0.2105
     57 H          50.1613   20.0034  -27.2268 H       1  UNL1        0.2107
     58 C          46.4221   16.1038  -27.6241 C.2     1  UNL1        0.3439
     59 O          45.2781   16.2411  -27.1150 O.2     1  UNL1       -0.2475
     60 O          46.6789   15.0018  -28.4354 O.3     1  UNL1       -0.4785
     61 H          47.5945   14.8468  -28.8398 H       1  UNL1        0.2951
@<TRIPOS>BOND
     1    31    32    1
     2    32    30    1
     3    30     1    1
     4     1     2   ar
     5     2     7    1
     6     7     8    2
     7     7     9   am
     8     9    11    1
     9    11    12    1
    10    11    13    1
    11    11    14    1
    12     2     3   ar
    13     3     4   ar
    14     4     5   ar
    15     5    33    1
    16    33    34    1
    17    34    35   ar
    18    35    36   ar
    19    36    37    1
    20    36    38   ar
    21    38    42    1
    22    42    43    1
    23    43    44    2
    24    43    45    1
    25    45    46    1
    26    46    47    1
    27    47    48    1
    28    48    58    1
    29    58    59    2
    30    58    60    1
    31    48    49    1
    32    49    50    1
    33    49    51    1
    34    51    52    1
    35    51    53    1
    36    53    54    1
    37    38    39   ar
    38    39    40   ar
    39    40    41    1
    40     5     6   ar
    41     6    15    1
    42    15    17    1
    43    17    18    2
    44    17    19    2
    45    17    20    1
    46    20    21   ar
    47    21    22   ar
    48    22    23   ar
    49    23    27    1
    50    27    28    1
    51    28    29    1
    52    23    24   ar
    53    24    25   ar
    54    25    26    1
    55     6     1   ar
    56    25    20   ar
    57    40    34   ar
    58    29    27    1
    59    53    46    1
    60     9    10    1
    61    60    61    1
    62    50    55    1
    63    52    56    1
    64    54    57    1
    65    15    16    1
