@<TRIPOS>MOLECULE
*****
 40 44 0 0 0
SMALL
GASTEIGER

@<TRIPOS>ATOM
      1 C         -10.2765  -18.9576   25.0449 C.3     1  UNL1        0.0439
      2 C         -10.0295  -17.5224   24.5620 C.3     1  UNL1        0.1375
      3 C         -11.2798  -16.9693   23.8653 C.3     1  UNL1        0.0439
      4 C          -8.7763  -17.4442   23.6269 C.3     1  UNL1        0.0709
      5 C          -7.8801  -16.5305   24.3786 C.ar    1  UNL1        0.0325
      6 C          -8.4695  -16.1238   25.5499 C.ar    1  UNL1        0.1401
      7 C          -7.8129  -15.2599   26.4639 C.ar    1  UNL1        0.0888
      8 C          -6.4909  -14.8405   26.1520 C.ar    1  UNL1        0.0282
      9 C          -5.9207  -15.2808   24.9490 C.ar    1  UNL1        0.0997
     10 N          -4.6971  -15.0029   24.4648 N.ar    1  UNL1       -0.2137
     11 C          -4.6786  -15.6954   23.2920 C.ar    1  UNL1        0.1984
     12 N          -5.8237  -16.3722   23.0291 N.ar    1  UNL1       -0.3255
     13 C          -6.5939  -16.0988   24.0878 C.ar    1  UNL1        0.0755
     14 O          -9.7174  -16.6957   25.6879 O.3     1  UNL1       -0.4824
     15 H          -6.0495  -16.9659   22.2002 H       1  UNL1        0.1686
     16 C          -8.4515  -14.8237   27.7236 C.2     1  UNL1        0.2525
     17 O          -9.1377  -15.6550   28.3781 O.2     1  UNL1       -0.2697
     18 N          -8.2983  -13.4747   28.2016 N.am    1  UNL1       -0.2785
     19 H          -7.7414  -12.7983   27.6343 H       1  UNL1        0.1552
     20 C          -8.9285  -12.9711   29.3911 C.ar    1  UNL1        0.0783
     21 C         -10.0568  -13.6055   29.9418 C.ar    1  UNL1        0.0208
     22 C         -10.6583  -13.1109   31.1129 C.ar    1  UNL1        0.0728
     23 C         -10.0805  -12.0078   31.7637 C.ar    1  UNL1        0.0062
     24 C          -8.9457  -11.3899   31.2339 C.ar    1  UNL1        0.0309
     25 C          -8.3687  -11.8690   30.0557 C.ar    1  UNL1        0.1535
     26 F          -7.2671  -11.2545   29.5556 F       1  UNL1       -0.2029
     27 C         -11.8415  -13.8222   31.7199 C.3     1  UNL1        0.4186
     28 F         -11.8137  -13.6620   33.0926 F       1  UNL1       -0.1659
     29 F         -11.8027  -15.1735   31.4222 F       1  UNL1       -0.1659
     30 F         -13.0286  -13.3057   31.2296 F       1  UNL1       -0.1659
     31 N          -3.5625  -15.6902   22.3942 N.pl3   1  UNL1       -0.2816
     32 H          -2.8393  -14.9454   22.5127 H       1  UNL1        0.1551
     33 C          -3.2749  -16.7910   21.5214 C.ar    1  UNL1        0.0889
     34 C          -2.4402  -17.8259   21.9731 C.ar    1  UNL1        0.1543
     35 F          -1.9274  -17.7918   23.2289 F       1  UNL1       -0.2028
     36 C          -2.1477  -18.9101   21.1405 C.ar    1  UNL1        0.0310
     37 C          -2.6730  -18.9624   19.8478 C.ar    1  UNL1        0.0033
     38 C          -3.4833  -17.9255   19.3797 C.ar    1  UNL1        0.0128
     39 C          -3.7831  -16.8351   20.2055 C.ar    1  UNL1        0.0733
     40 CL         -4.7291  -15.5102   19.5376 Cl      1  UNL1       -0.0809
@<TRIPOS>BOND
     1     1     2    1
     2     2     3    1
     3     2     4    1
     4     4     5    1
     5     5     6   ar
     6     6     7   ar
     7     7    16    1
     8    16    17    2
     9    16    18   am
    10    18    20    1
    11    20    21   ar
    12    21    22   ar
    13    22    27    1
    14    27    28    1
    15    27    29    1
    16    27    30    1
    17    22    23   ar
    18    23    24   ar
    19    24    25   ar
    20    25    26    1
    21     7     8   ar
    22     8     9   ar
    23     9    10   ar
    24    10    11   ar
    25    11    31    1
    26    31    33    1
    27    33    34   ar
    28    34    35    1
    29    34    36   ar
    30    36    37   ar
    31    37    38   ar
    32    38    39   ar
    33    39    40    1
    34    11    12   ar
    35    12    13   ar
    36     6    14    1
    37    14     2    1
    38    13     5   ar
    39    25    20   ar
    40    13     9   ar
    41    39    33   ar
    42    18    19    1
    43    31    32    1
    44    12    15    1
@<TRIPOS>MOLECULE
*****
 40 44 0 0 0
SMALL
GASTEIGER

@<TRIPOS>ATOM
      1 C         -13.3125  -12.4524   31.8491 C.3     1  UNL1        0.0439
      2 C         -11.9220  -12.9782   32.2288 C.3     1  UNL1        0.1375
      3 C         -12.0439  -14.2611   33.0617 C.3     1  UNL1        0.0439
      4 C         -11.0875  -11.8886   32.9819 C.3     1  UNL1        0.0709
      5 C          -9.9274  -11.6995   32.0757 C.ar    1  UNL1        0.0325
      6 C         -10.0282  -12.5168   30.9772 C.ar    1  UNL1        0.1401
      7 C          -9.0550  -12.5156   29.9449 C.ar    1  UNL1        0.0888
      8 C          -7.9663  -11.6083   30.0565 C.ar    1  UNL1        0.0282
      9 C          -7.9004  -10.7861   31.1905 C.ar    1  UNL1        0.0997
     10 N          -6.9638   -9.8694   31.4924 N.ar    1  UNL1       -0.2137
     11 C          -7.4060   -9.3752   32.6822 C.ar    1  UNL1        0.1984
     12 N          -8.5534   -9.9441   33.1273 N.ar    1  UNL1       -0.3255
     13 C          -8.8496  -10.8306   32.1707 C.ar    1  UNL1        0.0755
     14 O         -11.1864  -13.2641   31.0347 O.3     1  UNL1       -0.4824
     15 H          -9.0802   -9.7384   34.0051 H       1  UNL1        0.1686
     16 C          -9.1670  -13.3979   28.7643 C.2     1  UNL1        0.2525
     17 O         -10.2709  -13.4675   28.1587 O.2     1  UNL1       -0.2697
     18 N          -8.0402  -14.1684   28.3076 N.am    1  UNL1       -0.2785
     19 H          -7.1415  -14.1097   28.8352 H       1  UNL1        0.1552
     20 C          -8.0915  -15.0800   27.1976 C.ar    1  UNL1        0.0783
     21 C          -7.4495  -14.7837   25.9817 C.ar    1  UNL1        0.0208
     22 C          -7.4963  -15.6886   24.9060 C.ar    1  UNL1        0.0728
     23 C          -8.1425  -16.9240   25.0808 C.ar    1  UNL1        0.0062
     24 C          -8.7602  -17.2326   26.2946 C.ar    1  UNL1        0.0309
     25 C          -8.7336  -16.3186   27.3503 C.ar    1  UNL1        0.1535
     26 F          -9.3408  -16.6359   28.5216 F       1  UNL1       -0.2029
     27 C          -6.7692  -15.3818   23.6208 C.3     1  UNL1        0.4186
     28 F          -7.5598  -14.5646   22.8347 F       1  UNL1       -0.1659
     29 F          -6.4942  -16.5473   22.9265 F       1  UNL1       -0.1659
     30 F          -5.5705  -14.7385   23.8771 F       1  UNL1       -0.1659
     31 N          -6.7096   -8.3641   33.4202 N.pl3   1  UNL1       -0.2816
     32 H          -6.8241   -8.3462   34.4586 H       1  UNL1        0.1551
     33 C          -5.6854   -7.5522   32.8303 C.ar    1  UNL1        0.0889
     34 C          -4.4509   -7.4196   33.4865 C.ar    1  UNL1        0.1543
     35 F          -4.2254   -8.0686   34.6565 F       1  UNL1       -0.2028
     36 C          -3.4369   -6.6350   32.9292 C.ar    1  UNL1        0.0310
     37 C          -3.6518   -5.9660   31.7226 C.ar    1  UNL1        0.0033
     38 C          -4.8850   -6.0704   31.0750 C.ar    1  UNL1        0.0128
     39 C          -5.9074   -6.8540   31.6241 C.ar    1  UNL1        0.0733
     40 CL         -7.4725   -6.8770   30.8202 Cl      1  UNL1       -0.0809
@<TRIPOS>BOND
     1     1     2    1
     2     2     3    1
     3     2     4    1
     4     4     5    1
     5     5     6   ar
     6     6     7   ar
     7     7    16    1
     8    16    17    2
     9    16    18   am
    10    18    20    1
    11    20    21   ar
    12    21    22   ar
    13    22    27    1
    14    27    28    1
    15    27    29    1
    16    27    30    1
    17    22    23   ar
    18    23    24   ar
    19    24    25   ar
    20    25    26    1
    21     7     8   ar
    22     8     9   ar
    23     9    10   ar
    24    10    11   ar
    25    11    31    1
    26    31    33    1
    27    33    34   ar
    28    34    35    1
    29    34    36   ar
    30    36    37   ar
    31    37    38   ar
    32    38    39   ar
    33    39    40    1
    34    11    12   ar
    35    12    13   ar
    36     6    14    1
    37    14     2    1
    38    13     5   ar
    39    25    20   ar
    40    13     9   ar
    41    39    33   ar
    42    18    19    1
    43    31    32    1
    44    12    15    1
@<TRIPOS>MOLECULE
*****
 40 44 0 0 0
SMALL
GASTEIGER

@<TRIPOS>ATOM
      1 C         -10.0819  -18.5771   24.9102 C.3     1  UNL1        0.0439
      2 C          -9.6600  -17.2139   24.3466 C.3     1  UNL1        0.1375
      3 C         -10.8863  -16.4381   23.8477 C.3     1  UNL1        0.0439
      4 C          -8.5888  -17.3723   23.2159 C.3     1  UNL1        0.0709
      5 C          -7.4268  -16.6409   23.7796 C.ar    1  UNL1        0.0325
      6 C          -7.7262  -16.1298   25.0181 C.ar    1  UNL1        0.1401
      7 C          -6.7780  -15.4024   25.7828 C.ar    1  UNL1        0.0888
      8 C          -5.4730  -15.2376   25.2440 C.ar    1  UNL1        0.0282
      9 C          -5.2035  -15.7783   23.9784 C.ar    1  UNL1        0.0997
     10 N          -4.0487  -15.7343   23.2906 N.ar    1  UNL1       -0.2137
     11 C          -4.3550  -16.4196   22.1540 C.ar    1  UNL1        0.1984
     12 N          -5.6325  -16.8711   22.1055 N.ar    1  UNL1       -0.3255
     13 C          -6.1505  -16.4573   23.2670 C.ar    1  UNL1        0.0755
     14 O          -9.0168  -16.4585   25.3782 O.3     1  UNL1       -0.4824
     15 H          -6.0995  -17.4133   21.3449 H       1  UNL1        0.1686
     16 C          -7.1050  -14.8530   27.1155 C.2     1  UNL1        0.2525
     17 O          -7.5844  -15.6237   27.9910 O.2     1  UNL1       -0.2697
     18 N          -6.8835  -13.4631   27.4167 N.am    1  UNL1       -0.2785
     19 H          -6.5033  -12.8394   26.6711 H       1  UNL1        0.1552
     20 C          -7.2215  -12.8532   28.6736 C.ar    1  UNL1        0.0783
     21 C          -6.2723  -12.1149   29.4032 C.ar    1  UNL1        0.0208
     22 C          -6.6174  -11.5124   30.6264 C.ar    1  UNL1        0.0728
     23 C          -7.9430  -11.6051   31.0830 C.ar    1  UNL1        0.0062
     24 C          -8.8947  -12.3164   30.3494 C.ar    1  UNL1        0.0309
     25 C          -8.5394  -12.9355   29.1489 C.ar    1  UNL1        0.1535
     26 F          -9.4779  -13.6235   28.4509 F       1  UNL1       -0.2029
     27 C          -5.6054  -10.6870   31.3808 C.3     1  UNL1        0.4186
     28 F          -4.9342   -9.8671   30.4931 F       1  UNL1       -0.1659
     29 F          -4.6899  -11.5045   32.0209 F       1  UNL1       -0.1659
     30 F          -6.2272   -9.9029   32.3373 F       1  UNL1       -0.1659
     31 N          -3.4236  -16.6240   21.0850 N.pl3   1  UNL1       -0.2816
     32 H          -3.3574  -15.8910   20.3433 H       1  UNL1        0.1551
     33 C          -2.4215  -17.6488   21.1261 C.ar    1  UNL1        0.0889
     34 C          -1.0904  -17.3207   20.8216 C.ar    1  UNL1        0.1543
     35 F          -0.7554  -16.0432   20.5103 F       1  UNL1       -0.2028
     36 C          -0.0963  -18.3028   20.8574 C.ar    1  UNL1        0.0310
     37 C          -0.4246  -19.6205   21.1821 C.ar    1  UNL1        0.0033
     38 C          -1.7497  -19.9627   21.4613 C.ar    1  UNL1        0.0128
     39 C          -2.7533  -18.9867   21.4289 C.ar    1  UNL1        0.0733
     40 CL         -4.4197  -19.4858   21.6945 Cl      1  UNL1       -0.0809
@<TRIPOS>BOND
     1     1     2    1
     2     2     3    1
     3     2     4    1
     4     4     5    1
     5     5     6   ar
     6     6     7   ar
     7     7    16    1
     8    16    17    2
     9    16    18   am
    10    18    20    1
    11    20    21   ar
    12    21    22   ar
    13    22    27    1
    14    27    28    1
    15    27    29    1
    16    27    30    1
    17    22    23   ar
    18    23    24   ar
    19    24    25   ar
    20    25    26    1
    21     7     8   ar
    22     8     9   ar
    23     9    10   ar
    24    10    11   ar
    25    11    31    1
    26    31    33    1
    27    33    34   ar
    28    34    35    1
    29    34    36   ar
    30    36    37   ar
    31    37    38   ar
    32    38    39   ar
    33    39    40    1
    34    11    12   ar
    35    12    13   ar
    36     6    14    1
    37    14     2    1
    38    13     5   ar
    39    25    20   ar
    40    13     9   ar
    41    39    33   ar
    42    18    19    1
    43    31    32    1
    44    12    15    1
@<TRIPOS>MOLECULE
*****
 40 44 0 0 0
SMALL
GASTEIGER

@<TRIPOS>ATOM
      1 C          -4.0671  -10.8457   31.2579 C.3     1  UNL1        0.0439
      2 C          -5.2843  -10.4141   30.4296 C.3     1  UNL1        0.1375
      3 C          -5.0282   -9.0519   29.7714 C.3     1  UNL1        0.0439
      4 C          -6.5854  -10.3893   31.3000 C.3     1  UNL1        0.0709
      5 C          -7.4386  -11.3943   30.6182 C.ar    1  UNL1        0.0325
      6 C          -6.7880  -11.9325   29.5357 C.ar    1  UNL1        0.1401
      7 C          -7.3788  -12.9337   28.7224 C.ar    1  UNL1        0.0888
      8 C          -8.6730  -13.4025   29.0773 C.ar    1  UNL1        0.0282
      9 C          -9.3035  -12.8321   30.1925 C.ar    1  UNL1        0.0997
     10 N         -10.5166  -13.1242   30.6943 N.ar    1  UNL1       -0.2137
     11 C         -10.6024  -12.2884   31.7664 C.ar    1  UNL1        0.1984
     12 N          -9.5152  -11.4975   31.9418 N.ar    1  UNL1       -0.3255
     13 C          -8.7066  -11.8574   30.9391 C.ar    1  UNL1        0.0755
     14 O          -5.5266  -11.3881   29.4093 O.3     1  UNL1       -0.4824
     15 H          -9.3484  -10.7807   32.6827 H       1  UNL1        0.1686
     16 C          -6.6751  -13.5099   27.5572 C.2     1  UNL1        0.2525
     17 O          -5.5868  -12.9920   27.1859 O.2     1  UNL1       -0.2697
     18 N          -7.2163  -14.6422   26.8524 N.am    1  UNL1       -0.2785
     19 H          -8.1277  -15.0431   27.1656 H       1  UNL1        0.1552
     20 C          -6.6101  -15.2226   25.6856 C.ar    1  UNL1        0.0783
     21 C          -7.1620  -15.0301   24.4062 C.ar    1  UNL1        0.0208
     22 C          -6.5537  -15.5929   23.2698 C.ar    1  UNL1        0.0728
     23 C          -5.3496  -16.3012   23.4203 C.ar    1  UNL1        0.0062
     24 C          -4.7849  -16.4738   24.6858 C.ar    1  UNL1        0.0309
     25 C          -5.4081  -15.9355   25.8139 C.ar    1  UNL1        0.1535
     26 F          -4.8449  -16.1150   27.0354 F       1  UNL1       -0.2029
     27 C          -7.1284  -15.3459   21.8975 C.3     1  UNL1        0.4186
     28 F          -8.2167  -14.5005   22.0054 F       1  UNL1       -0.1659
     29 F          -7.5363  -16.5353   21.3189 F       1  UNL1       -0.1659
     30 F          -6.1852  -14.7632   21.0685 F       1  UNL1       -0.1659
     31 N         -11.7498  -12.2229   32.6214 N.pl3   1  UNL1       -0.2816
     32 H         -12.1884  -11.2888   32.7855 H       1  UNL1        0.1551
     33 C         -12.4565  -13.3954   33.0481 C.ar    1  UNL1        0.0889
     34 C         -13.6495  -13.7527   32.3991 C.ar    1  UNL1        0.1543
     35 F         -14.1167  -13.0055   31.3675 F       1  UNL1       -0.2028
     36 C         -14.3541  -14.8928   32.7966 C.ar    1  UNL1        0.0310
     37 C         -13.8826  -15.6752   33.8525 C.ar    1  UNL1        0.0033
     38 C         -12.7108  -15.3141   34.5216 C.ar    1  UNL1        0.0128
     39 C         -11.9969  -14.1745   34.1314 C.ar    1  UNL1        0.0733
     40 CL        -10.5803  -13.7094   35.0660 Cl      1  UNL1       -0.0809
@<TRIPOS>BOND
     1     1     2    1
     2     2     3    1
     3     2     4    1
     4     4     5    1
     5     5     6   ar
     6     6     7   ar
     7     7    16    1
     8    16    17    2
     9    16    18   am
    10    18    20    1
    11    20    21   ar
    12    21    22   ar
    13    22    27    1
    14    27    28    1
    15    27    29    1
    16    27    30    1
    17    22    23   ar
    18    23    24   ar
    19    24    25   ar
    20    25    26    1
    21     7     8   ar
    22     8     9   ar
    23     9    10   ar
    24    10    11   ar
    25    11    31    1
    26    31    33    1
    27    33    34   ar
    28    34    35    1
    29    34    36   ar
    30    36    37   ar
    31    37    38   ar
    32    38    39   ar
    33    39    40    1
    34    11    12   ar
    35    12    13   ar
    36     6    14    1
    37    14     2    1
    38    13     5   ar
    39    25    20   ar
    40    13     9   ar
    41    39    33   ar
    42    18    19    1
    43    31    32    1
    44    12    15    1
@<TRIPOS>MOLECULE
*****
 40 44 0 0 0
SMALL
GASTEIGER

@<TRIPOS>ATOM
      1 C          -4.7573   -9.8201   28.8460 C.3     1  UNL1        0.0439
      2 C          -5.2896  -10.9574   29.7276 C.3     1  UNL1        0.1375
      3 C          -4.4586  -11.0727   31.0124 C.3     1  UNL1        0.0439
      4 C          -5.3221  -12.3146   28.9478 C.3     1  UNL1        0.0709
      5 C          -6.7671  -12.6526   28.9658 C.ar    1  UNL1        0.0325
      6 C          -7.4852  -11.6894   29.6303 C.ar    1  UNL1        0.1401
      7 C          -8.8948  -11.7639   29.7726 C.ar    1  UNL1        0.0888
      8 C          -9.5679  -12.8628   29.1725 C.ar    1  UNL1        0.0282
      9 C          -8.8009  -13.8237   28.4980 C.ar    1  UNL1        0.0997
     10 N          -9.2322  -14.9314   27.8690 N.ar    1  UNL1       -0.2137
     11 C          -8.0757  -15.4704   27.3924 C.ar    1  UNL1        0.1984
     12 N          -6.9633  -14.7597   27.7022 N.ar    1  UNL1       -0.3255
     13 C          -7.4430  -13.7236   28.3987 C.ar    1  UNL1        0.0755
     14 O          -6.6511  -10.6842   30.0743 O.3     1  UNL1       -0.4824
     15 H          -5.9707  -14.9697   27.4550 H       1  UNL1        0.1686
     16 C          -9.6639  -10.7250   30.4895 C.2     1  UNL1        0.2525
     17 O          -9.7558  -10.7934   31.7454 O.2     1  UNL1       -0.2697
     18 N         -10.3006   -9.6507   29.7739 N.am    1  UNL1       -0.2785
     19 H         -10.2271   -9.6242   28.7330 H       1  UNL1        0.1552
     20 C         -11.1012   -8.6353   30.4015 C.ar    1  UNL1        0.0783
     21 C         -10.7511   -7.2757   30.3160 C.ar    1  UNL1        0.0208
     22 C         -11.5484   -6.2894   30.9241 C.ar    1  UNL1        0.0728
     23 C         -12.7365   -6.6736   31.5684 C.ar    1  UNL1        0.0062
     24 C         -13.1007   -8.0201   31.6344 C.ar    1  UNL1        0.0309
     25 C         -12.2908   -8.9977   31.0520 C.ar    1  UNL1        0.1535
     26 F         -12.6607  -10.3010   31.1278 F       1  UNL1       -0.2029
     27 C         -11.1886   -4.8309   30.7911 C.3     1  UNL1        0.4186
     28 F         -11.7969   -4.1177   31.8070 F       1  UNL1       -0.1659
     29 F         -11.6152   -4.3331   29.5720 F       1  UNL1       -0.1659
     30 F          -9.8181   -4.6543   30.8742 F       1  UNL1       -0.1659
     31 N          -8.0265  -16.6965   26.6534 N.pl3   1  UNL1       -0.2816
     32 H          -7.6245  -17.5385   27.1235 H       1  UNL1        0.1551
     33 C          -8.7229  -16.8725   25.4122 C.ar    1  UNL1        0.0889
     34 C          -9.6227  -17.9418   25.2751 C.ar    1  UNL1        0.1543
     35 F          -9.8433  -18.7871   26.3133 F       1  UNL1       -0.2028
     36 C         -10.3144  -18.1317   24.0752 C.ar    1  UNL1        0.0310
     37 C         -10.1026  -17.2665   22.9999 C.ar    1  UNL1        0.0033
     38 C          -9.1904  -16.2152   23.1173 C.ar    1  UNL1        0.0128
     39 C          -8.4927  -16.0156   24.3148 C.ar    1  UNL1        0.0733
     40 CL         -7.2859  -14.7366   24.3809 Cl      1  UNL1       -0.0809
@<TRIPOS>BOND
     1     1     2    1
     2     2     3    1
     3     2     4    1
     4     4     5    1
     5     5     6   ar
     6     6     7   ar
     7     7    16    1
     8    16    17    2
     9    16    18   am
    10    18    20    1
    11    20    21   ar
    12    21    22   ar
    13    22    27    1
    14    27    28    1
    15    27    29    1
    16    27    30    1
    17    22    23   ar
    18    23    24   ar
    19    24    25   ar
    20    25    26    1
    21     7     8   ar
    22     8     9   ar
    23     9    10   ar
    24    10    11   ar
    25    11    31    1
    26    31    33    1
    27    33    34   ar
    28    34    35    1
    29    34    36   ar
    30    36    37   ar
    31    37    38   ar
    32    38    39   ar
    33    39    40    1
    34    11    12   ar
    35    12    13   ar
    36     6    14    1
    37    14     2    1
    38    13     5   ar
    39    25    20   ar
    40    13     9   ar
    41    39    33   ar
    42    18    19    1
    43    31    32    1
    44    12    15    1
@<TRIPOS>MOLECULE
*****
 40 44 0 0 0
SMALL
GASTEIGER

@<TRIPOS>ATOM
      1 C          -4.1196  -10.9449   29.6980 C.3     1  UNL1        0.0439
      2 C          -5.4781  -10.7093   29.0249 C.3     1  UNL1        0.1375
      3 C          -5.4059   -9.5012   28.0816 C.3     1  UNL1        0.0439
      4 C          -6.6163  -10.5351   30.0856 C.3     1  UNL1        0.0709
      5 C          -7.5174  -11.6712   29.7689 C.ar    1  UNL1        0.0325
      6 C          -7.0282  -12.4025   28.7150 C.ar    1  UNL1        0.1401
      7 C          -7.6927  -13.5564   28.2252 C.ar    1  UNL1        0.0888
      8 C          -8.8840  -13.9684   28.8823 C.ar    1  UNL1        0.0282
      9 C          -9.3497  -13.1987   29.9580 C.ar    1  UNL1        0.0997
     10 N         -10.4459  -13.4069   30.7088 N.ar    1  UNL1       -0.2137
     11 C         -10.3961  -12.3759   31.5975 C.ar    1  UNL1        0.1984
     12 N          -9.3375  -11.5462   31.4261 N.ar    1  UNL1       -0.3255
     13 C          -8.6888  -12.0840   30.3875 C.ar    1  UNL1        0.0755
     14 O          -5.8353  -11.8714   28.2697 O.3     1  UNL1       -0.4824
     15 H          -9.0876  -10.6932   31.9743 H       1  UNL1        0.1686
     16 C          -7.1630  -14.3404   27.0896 C.2     1  UNL1        0.2525
     17 O          -5.9382  -14.6407   27.0757 O.2     1  UNL1       -0.2697
     18 N          -8.0235  -14.7572   26.0137 N.am    1  UNL1       -0.2785
     19 H          -9.0299  -14.4815   26.0366 H       1  UNL1        0.1552
     20 C          -7.5668  -15.4796   24.8582 C.ar    1  UNL1        0.0783
     21 C          -6.2070  -15.7964   24.6879 C.ar    1  UNL1        0.0208
     22 C          -5.7729  -16.5141   23.5590 C.ar    1  UNL1        0.0728
     23 C          -6.7250  -16.9663   22.6299 C.ar    1  UNL1        0.0062
     24 C          -8.0792  -16.6752   22.8077 C.ar    1  UNL1        0.0309
     25 C          -8.5011  -15.9388   23.9169 C.ar    1  UNL1        0.1535
     26 F          -9.8210  -15.6647   24.0716 F       1  UNL1       -0.2029
     27 C          -4.3194  -16.8863   23.4059 C.3     1  UNL1        0.4186
     28 F          -3.6150  -15.7897   22.9455 F       1  UNL1       -0.1659
     29 F          -4.1753  -17.9266   22.5042 F       1  UNL1       -0.1659
     30 F          -3.7859  -17.2885   24.6184 F       1  UNL1       -0.1659
     31 N         -11.3877  -12.1620   32.6089 N.pl3   1  UNL1       -0.2816
     32 H         -11.7021  -11.1823   32.7903 H       1  UNL1        0.1551
     33 C         -12.1330  -13.2393   33.1923 C.ar    1  UNL1        0.0889
     34 C         -13.3903  -13.5710   32.6621 C.ar    1  UNL1        0.1543
     35 F         -13.8844  -12.8903   31.5974 F       1  UNL1       -0.2028
     36 C         -14.1338  -14.6187   33.2133 C.ar    1  UNL1        0.0310
     37 C         -13.6358  -15.3325   34.3051 C.ar    1  UNL1        0.0033
     38 C         -12.3979  -14.9937   34.8564 C.ar    1  UNL1        0.0128
     39 C         -11.6447  -13.9464   34.3118 C.ar    1  UNL1        0.0733
     40 CL        -10.1372  -13.4970   35.1004 Cl      1  UNL1       -0.0809
@<TRIPOS>BOND
     1     1     2    1
     2     2     3    1
     3     2     4    1
     4     4     5    1
     5     5     6   ar
     6     6     7   ar
     7     7    16    1
     8    16    17    2
     9    16    18   am
    10    18    20    1
    11    20    21   ar
    12    21    22   ar
    13    22    27    1
    14    27    28    1
    15    27    29    1
    16    27    30    1
    17    22    23   ar
    18    23    24   ar
    19    24    25   ar
    20    25    26    1
    21     7     8   ar
    22     8     9   ar
    23     9    10   ar
    24    10    11   ar
    25    11    31    1
    26    31    33    1
    27    33    34   ar
    28    34    35    1
    29    34    36   ar
    30    36    37   ar
    31    37    38   ar
    32    38    39   ar
    33    39    40    1
    34    11    12   ar
    35    12    13   ar
    36     6    14    1
    37    14     2    1
    38    13     5   ar
    39    25    20   ar
    40    13     9   ar
    41    39    33   ar
    42    18    19    1
    43    31    32    1
    44    12    15    1
@<TRIPOS>MOLECULE
*****
 40 44 0 0 0
SMALL
GASTEIGER

@<TRIPOS>ATOM
      1 C         -10.8900  -12.4603   32.5183 C.3     1  UNL1        0.0439
      2 C         -10.7118  -12.0489   31.0509 C.3     1  UNL1        0.1375
      3 C         -11.8189  -11.0733   30.6302 C.3     1  UNL1        0.0439
      4 C         -10.6685  -13.2997   30.1103 C.3     1  UNL1        0.0709
      5 C          -9.3165  -13.1927   29.5075 C.ar    1  UNL1        0.0325
      6 C          -8.6559  -12.0877   29.9844 C.ar    1  UNL1        0.1401
      7 C          -7.3343  -11.7668   29.5802 C.ar    1  UNL1        0.0888
      8 C          -6.6811  -12.6489   28.6769 C.ar    1  UNL1        0.0282
      9 C          -7.3865  -13.7697   28.2157 C.ar    1  UNL1        0.0997
     10 N          -6.9616  -14.7198   27.3639 N.ar    1  UNL1       -0.2137
     11 C          -8.0372  -15.5519   27.2882 C.ar    1  UNL1        0.1984
     12 N          -9.0965  -15.1591   28.0379 N.ar    1  UNL1       -0.3255
     13 C          -8.6647  -14.0334   28.6165 C.ar    1  UNL1        0.0755
     14 O          -9.4408  -11.4097   30.8940 O.3     1  UNL1       -0.4824
     15 H         -10.0257  -15.6246   28.1404 H       1  UNL1        0.1686
     16 C          -6.6270  -10.5756   30.0955 C.2     1  UNL1        0.2525
     17 O          -5.3948  -10.6617   30.3497 O.2     1  UNL1       -0.2697
     18 N          -7.3255   -9.3350   30.3068 N.am    1  UNL1       -0.2785
     19 H          -8.3491   -9.2917   30.1073 H       1  UNL1        0.1552
     20 C          -6.7117   -8.1536   30.8483 C.ar    1  UNL1        0.0783
     21 C          -5.7228   -8.2383   31.8450 C.ar    1  UNL1        0.0208
     22 C          -5.1204   -7.0761   32.3593 C.ar    1  UNL1        0.0728
     23 C          -5.4750   -5.8278   31.8206 C.ar    1  UNL1        0.0062
     24 C          -6.4386   -5.7410   30.8136 C.ar    1  UNL1        0.0309
     25 C          -7.0530   -6.8965   30.3258 C.ar    1  UNL1        0.1535
     26 F          -7.9881   -6.7917   29.3482 F       1  UNL1       -0.2029
     27 C          -4.0308   -7.1788   33.3970 C.3     1  UNL1        0.4186
     28 F          -3.5031   -8.4562   33.3779 F       1  UNL1       -0.1659
     29 F          -4.5344   -6.9172   34.6596 F       1  UNL1       -0.1659
     30 F          -3.0198   -6.2692   33.1382 F       1  UNL1       -0.1659
     31 N          -8.0663  -16.7254   26.4672 N.pl3   1  UNL1       -0.2816
     32 H          -7.5806  -17.5822   26.8162 H       1  UNL1        0.1551
     33 C          -8.9302  -16.8440   25.3288 C.ar    1  UNL1        0.0889
     34 C          -9.8209  -17.9269   25.2524 C.ar    1  UNL1        0.1543
     35 F          -9.8749  -18.8398   26.2547 F       1  UNL1       -0.2028
     36 C         -10.6741  -18.0618   24.1532 C.ar    1  UNL1        0.0310
     37 C         -10.6346  -17.1270   23.1168 C.ar    1  UNL1        0.0033
     38 C          -9.7342  -16.0605   23.1708 C.ar    1  UNL1        0.0128
     39 C          -8.8755  -15.9156   24.2674 C.ar    1  UNL1        0.0733
     40 CL         -7.6950  -14.6108   24.2436 Cl      1  UNL1       -0.0809
@<TRIPOS>BOND
     1     1     2    1
     2     2     3    1
     3     2     4    1
     4     4     5    1
     5     5     6   ar
     6     6     7   ar
     7     7    16    1
     8    16    17    2
     9    16    18   am
    10    18    20    1
    11    20    21   ar
    12    21    22   ar
    13    22    27    1
    14    27    28    1
    15    27    29    1
    16    27    30    1
    17    22    23   ar
    18    23    24   ar
    19    24    25   ar
    20    25    26    1
    21     7     8   ar
    22     8     9   ar
    23     9    10   ar
    24    10    11   ar
    25    11    31    1
    26    31    33    1
    27    33    34   ar
    28    34    35    1
    29    34    36   ar
    30    36    37   ar
    31    37    38   ar
    32    38    39   ar
    33    39    40    1
    34    11    12   ar
    35    12    13   ar
    36     6    14    1
    37    14     2    1
    38    13     5   ar
    39    25    20   ar
    40    13     9   ar
    41    39    33   ar
    42    18    19    1
    43    31    32    1
    44    12    15    1
@<TRIPOS>MOLECULE
*****
 40 44 0 0 0
SMALL
GASTEIGER

@<TRIPOS>ATOM
      1 C         -13.6121  -13.9657   32.3541 C.3     1  UNL1        0.0439
      2 C         -12.1307  -13.7515   32.6909 C.3     1  UNL1        0.1375
      3 C         -11.6982  -14.6903   33.8250 C.3     1  UNL1        0.0439
      4 C         -11.8389  -12.2555   33.0488 C.3     1  UNL1        0.0709
      5 C         -10.8668  -11.8649   31.9974 C.ar    1  UNL1        0.0325
      6 C         -10.6091  -12.9184   31.1557 C.ar    1  UNL1        0.1401
      7 C          -9.7264  -12.8023   30.0510 C.ar    1  UNL1        0.0888
      8 C          -9.1259  -11.5370   29.8082 C.ar    1  UNL1        0.0282
      9 C          -9.4173  -10.4837   30.6868 C.ar    1  UNL1        0.0997
     10 N          -8.9588   -9.2202   30.6420 N.ar    1  UNL1       -0.2137
     11 C          -9.5712   -8.6449   31.7140 C.ar    1  UNL1        0.1984
     12 N         -10.3696   -9.4872   32.4150 N.ar    1  UNL1       -0.3255
     13 C         -10.2598  -10.6420   31.7493 C.ar    1  UNL1        0.0755
     14 O         -11.3409  -14.0267   31.5294 O.3     1  UNL1       -0.4824
     15 H         -10.9357   -9.2831   33.2684 H       1  UNL1        0.1686
     16 C          -9.4511  -13.9395   29.1478 C.2     1  UNL1        0.2525
     17 O          -9.8962  -15.0798   29.4512 O.2     1  UNL1       -0.2697
     18 N          -8.6882  -13.7571   27.9409 N.am    1  UNL1       -0.2785
     19 H          -8.3137  -12.8085   27.7190 H       1  UNL1        0.1552
     20 C          -8.3441  -14.8253   27.0430 C.ar    1  UNL1        0.0783
     21 C          -9.1903  -15.1822   25.9776 C.ar    1  UNL1        0.0208
     22 C          -8.8379  -16.2214   25.0979 C.ar    1  UNL1        0.0728
     23 C          -7.5972  -16.8609   25.2590 C.ar    1  UNL1        0.0062
     24 C          -6.7428  -16.4930   26.3006 C.ar    1  UNL1        0.0309
     25 C          -7.1104  -15.4786   27.1874 C.ar    1  UNL1        0.1535
     26 F          -6.2675  -15.1362   28.1942 F       1  UNL1       -0.2029
     27 C          -9.7309  -16.5687   23.9332 C.3     1  UNL1        0.4186
     28 F          -8.9599  -16.7087   22.7945 F       1  UNL1       -0.1659
     29 F         -10.6684  -15.5720   23.7240 F       1  UNL1       -0.1659
     30 F         -10.4059  -17.7541   24.1693 F       1  UNL1       -0.1659
     31 N          -9.3712   -7.2780   32.0927 N.pl3   1  UNL1       -0.2816
     32 H          -8.8587   -7.0838   32.9824 H       1  UNL1        0.1551
     33 C          -9.6182   -6.1888   31.1933 C.ar    1  UNL1        0.0889
     34 C         -10.9343   -5.7353   31.0087 C.ar    1  UNL1        0.1543
     35 F         -11.9575   -6.3107   31.6892 F       1  UNL1       -0.2028
     36 C         -11.1987   -4.6736   30.1385 C.ar    1  UNL1        0.0310
     37 C         -10.1556   -4.0672   29.4359 C.ar    1  UNL1        0.0033
     38 C          -8.8462   -4.5276   29.5927 C.ar    1  UNL1        0.0128
     39 C          -8.5701   -5.5900   30.4621 C.ar    1  UNL1        0.0733
     40 CL         -6.9200   -6.1947   30.5525 Cl      1  UNL1       -0.0809
@<TRIPOS>BOND
     1     1     2    1
     2     2     3    1
     3     2     4    1
     4     4     5    1
     5     5     6   ar
     6     6     7   ar
     7     7    16    1
     8    16    17    2
     9    16    18   am
    10    18    20    1
    11    20    21   ar
    12    21    22   ar
    13    22    27    1
    14    27    28    1
    15    27    29    1
    16    27    30    1
    17    22    23   ar
    18    23    24   ar
    19    24    25   ar
    20    25    26    1
    21     7     8   ar
    22     8     9   ar
    23     9    10   ar
    24    10    11   ar
    25    11    31    1
    26    31    33    1
    27    33    34   ar
    28    34    35    1
    29    34    36   ar
    30    36    37   ar
    31    37    38   ar
    32    38    39   ar
    33    39    40    1
    34    11    12   ar
    35    12    13   ar
    36     6    14    1
    37    14     2    1
    38    13     5   ar
    39    25    20   ar
    40    13     9   ar
    41    39    33   ar
    42    18    19    1
    43    31    32    1
    44    12    15    1
@<TRIPOS>MOLECULE
*****
 40 44 0 0 0
SMALL
GASTEIGER

@<TRIPOS>ATOM
      1 C          -5.8369   -9.0202   28.7359 C.3     1  UNL1        0.0439
      2 C          -5.6207  -10.3967   29.3780 C.3     1  UNL1        0.1375
      3 C          -4.6753  -10.2837   30.5814 C.3     1  UNL1        0.0439
      4 C          -5.0897  -11.4350   28.3335 C.3     1  UNL1        0.0709
      5 C          -6.1672  -12.4557   28.3296 C.ar    1  UNL1        0.0325
      6 C          -7.1677  -12.1121   29.2046 C.ar    1  UNL1        0.1401
      7 C          -8.3269  -12.9120   29.3761 C.ar    1  UNL1        0.0888
      8 C          -8.4502  -14.0852   28.5829 C.ar    1  UNL1        0.0282
      9 C          -7.4099  -14.4004   27.6968 C.ar    1  UNL1        0.0997
     10 N          -7.3244  -15.4539   26.8653 N.ar    1  UNL1       -0.2137
     11 C          -6.1282  -15.2470   26.2475 C.ar    1  UNL1        0.1984
     12 N          -5.4756  -14.1327   26.6610 N.ar    1  UNL1       -0.3255
     13 C          -6.3021  -13.6120   27.5745 C.ar    1  UNL1        0.0755
     14 O          -6.8809  -10.9113   29.8203 O.3     1  UNL1       -0.4824
     15 H          -4.5507  -13.7677   26.3417 H       1  UNL1        0.1686
     16 C          -9.4014  -12.5388   30.3200 C.2     1  UNL1        0.2525
     17 O          -9.3608  -11.4054   30.8716 O.2     1  UNL1       -0.2697
     18 N         -10.4788  -13.4478   30.6107 N.am    1  UNL1       -0.2785
     19 H         -10.4823  -14.3879   30.1571 H       1  UNL1        0.1552
     20 C         -11.5289  -13.1690   31.5517 C.ar    1  UNL1        0.0783
     21 C         -11.6581  -13.9111   32.7396 C.ar    1  UNL1        0.0208
     22 C         -12.6823  -13.6218   33.6589 C.ar    1  UNL1        0.0728
     23 C         -13.5412  -12.5390   33.4057 C.ar    1  UNL1        0.0062
     24 C         -13.4010  -11.7839   32.2394 C.ar    1  UNL1        0.0309
     25 C         -12.3989  -12.0931   31.3170 C.ar    1  UNL1        0.1535
     26 F         -12.2794  -11.3488   30.1887 F       1  UNL1       -0.2029
     27 C         -12.7873  -14.3946   34.9498 C.3     1  UNL1        0.4186
     28 F         -11.5173  -14.7019   35.4008 F       1  UNL1       -0.1659
     29 F         -13.4949  -15.5688   34.7585 F       1  UNL1       -0.1659
     30 F         -13.4408  -13.6489   35.9160 F       1  UNL1       -0.1659
     31 N          -5.5855  -16.1396   25.2674 N.pl3   1  UNL1       -0.2816
     32 H          -5.2938  -17.0934   25.5786 H       1  UNL1        0.1551
     33 C          -5.6602  -15.8714   23.8607 C.ar    1  UNL1        0.0889
     34 C          -6.7605  -15.1608   23.3544 C.ar    1  UNL1        0.1543
     35 F          -7.7320  -14.7176   24.1915 F       1  UNL1       -0.2028
     36 C          -6.8535  -14.8859   21.9869 C.ar    1  UNL1        0.0310
     37 C          -5.8585  -15.3300   21.1138 C.ar    1  UNL1        0.0033
     38 C          -4.7730  -16.0600   21.6036 C.ar    1  UNL1        0.0128
     39 C          -4.6697  -16.3405   22.9716 C.ar    1  UNL1        0.0733
     40 CL         -3.3343  -17.3438   23.5251 Cl      1  UNL1       -0.0809
@<TRIPOS>BOND
     1     1     2    1
     2     2     3    1
     3     2     4    1
     4     4     5    1
     5     5     6   ar
     6     6     7   ar
     7     7    16    1
     8    16    17    2
     9    16    18   am
    10    18    20    1
    11    20    21   ar
    12    21    22   ar
    13    22    27    1
    14    27    28    1
    15    27    29    1
    16    27    30    1
    17    22    23   ar
    18    23    24   ar
    19    24    25   ar
    20    25    26    1
    21     7     8   ar
    22     8     9   ar
    23     9    10   ar
    24    10    11   ar
    25    11    31    1
    26    31    33    1
    27    33    34   ar
    28    34    35    1
    29    34    36   ar
    30    36    37   ar
    31    37    38   ar
    32    38    39   ar
    33    39    40    1
    34    11    12   ar
    35    12    13   ar
    36     6    14    1
    37    14     2    1
    38    13     5   ar
    39    25    20   ar
    40    13     9   ar
    41    39    33   ar
    42    18    19    1
    43    31    32    1
    44    12    15    1
