@<TRIPOS>MOLECULE
*****
 51 56 0 0 0
SMALL
GASTEIGER

@<TRIPOS>ATOM
      1 C         -62.6941  -44.2432  -28.0732 C.2     1  UNL1        0.2484
      2 O         -61.9157  -45.2293  -28.1904 O.2     1  UNL1       -0.2701
      3 N         -63.4903  -43.8267  -29.1940 N.am    1  UNL1       -0.2945
      4 H         -64.2912  -43.1757  -29.0278 H       1  UNL1        0.1501
      5 C         -62.4525  -43.5761  -24.3451 C.ar    1  UNL1        0.1522
      6 C         -62.3594  -44.2047  -25.6020 C.ar    1  UNL1        0.0449
      7 C         -62.7987  -43.5533  -26.7673 C.ar    1  UNL1        0.0839
      8 C         -63.3124  -42.2470  -26.6695 C.ar    1  UNL1        0.1459
      9 F         -63.6793  -41.5542  -27.7772 F       1  UNL1       -0.2040
     10 C         -63.4018  -41.6190  -25.4256 C.ar    1  UNL1        0.0474
     11 C         -62.9743  -42.2735  -24.2634 C.ar    1  UNL1        0.0846
     12 N         -63.0703  -41.6082  -22.9941 N.pl3   1  UNL1       -0.3017
     13 C         -64.2760  -41.7544  -22.1744 C.3     1  UNL1        0.1124
     14 C         -64.6979  -40.3872  -21.6313 C.3     1  UNL1        0.1136
     15 N         -63.5626  -39.6631  -21.0298 N.pl3   1  UNL1       -0.2897
     16 C         -62.2058  -40.2298  -21.1166 C.3     1  UNL1        0.1136
     17 C         -61.9410  -40.8018  -22.5153 C.3     1  UNL1        0.1124
     18 C         -63.7987  -38.4972  -20.2064 C.ar    1  UNL1        0.1318
     19 C         -64.7952  -38.4887  -19.2141 C.ar    1  UNL1        0.0343
     20 C         -64.9902  -37.3442  -18.4394 C.ar    1  UNL1        0.0083
     21 C         -64.2120  -36.1989  -18.6603 C.ar    1  UNL1        0.0906
     22 C         -63.2123  -36.2531  -19.6428 C.ar    1  UNL1        0.1041
     23 N         -63.0390  -37.3793  -20.3832 N.ar    1  UNL1       -0.2292
     24 C         -64.3793  -34.9746  -17.7969 C.3     1  UNL1        0.4200
     25 F         -64.7592  -35.3303  -16.5143 F       1  UNL1       -0.1658
     26 F         -63.1791  -34.2915  -17.7382 F       1  UNL1       -0.1658
     27 F         -65.3499  -34.1374  -18.3194 F       1  UNL1       -0.1658
     28 C         -60.6982  -44.4486  -22.7851 C.3     1  UNL1        0.2525
     29 O         -62.0512  -44.2160  -23.1612 O.3     1  UNL1       -0.4702
     30 C         -63.3333  -44.4262  -30.5223 C.3     1  UNL1        0.1535
     31 C         -64.5251  -45.2940  -30.8373 C.2     1  UNL1        0.2443
     32 O         -65.6166  -44.7528  -31.1643 O.2     1  UNL1       -0.2730
     33 N         -64.3766  -46.7233  -30.8735 N.am    1  UNL1       -0.2825
     34 H         -63.4180  -47.1143  -30.7292 H       1  UNL1        0.1549
     35 C         -65.3916  -47.6183  -31.3548 C.ar    1  UNL1        0.0535
     36 C         -65.8988  -47.4503  -32.6503 C.ar    1  UNL1        0.0353
     37 C         -66.8865  -48.3168  -33.1230 C.ar    1  UNL1        0.1002
     38 N         -67.3374  -49.3300  -32.3370 N.ar    1  UNL1       -0.2422
     39 C         -66.8480  -49.5316  -31.0848 C.ar    1  UNL1        0.1002
     40 C         -65.8622  -48.6846  -30.5717 C.ar    1  UNL1        0.0353
     41 C         -63.1669  -43.3235  -31.5855 C.3     1  UNL1        0.0569
     42 C         -61.9629  -43.5666  -32.4527 C.ar    1  UNL1       -0.0017
     43 C         -61.8428  -43.2479  -33.8021 C.ar    1  UNL1        0.0681
     44 N         -60.5809  -43.4764  -34.2315 N.ar    1  UNL1       -0.3523
     45 C         -59.8991  -43.9226  -33.1624 C.ar    1  UNL1        0.0563
     46 C         -58.5443  -44.2459  -33.1002 C.ar    1  UNL1        0.0170
     47 C         -58.0205  -44.6490  -31.8583 C.ar    1  UNL1        0.0015
     48 C         -58.8524  -44.7167  -30.7190 C.ar    1  UNL1        0.0001
     49 C         -60.2156  -44.3834  -30.8111 C.ar    1  UNL1        0.0012
     50 C         -60.7077  -43.9904  -32.0566 C.ar    1  UNL1        0.0131
     51 H         -60.2082  -43.3090  -35.1925 H       1  UNL1        0.1660
@<TRIPOS>BOND
     1    28    29    1
     2    29     5    1
     3     5     6   ar
     4     6     7   ar
     5     7     1    1
     6     1     2    2
     7     1     3   am
     8     3    30    1
     9    30    41    1
    10    41    42    1
    11    42    43   ar
    12    43    44   ar
    13    44    45   ar
    14    45    46   ar
    15    46    47   ar
    16    47    48   ar
    17    48    49   ar
    18    49    50   ar
    19    30    31    1
    20    31    32    2
    21    31    33   am
    22    33    35    1
    23    35    36   ar
    24    36    37   ar
    25    37    38   ar
    26    38    39   ar
    27    39    40   ar
    28     7     8   ar
    29     8     9    1
    30     8    10   ar
    31    10    11   ar
    32    11    12    1
    33    12    13    1
    34    13    14    1
    35    14    15    1
    36    15    18    1
    37    18    19   ar
    38    19    20   ar
    39    20    21   ar
    40    21    24    1
    41    24    25    1
    42    24    26    1
    43    24    27    1
    44    21    22   ar
    45    22    23   ar
    46    15    16    1
    47    16    17    1
    48    11     5   ar
    49    17    12    1
    50    50    42   ar
    51    40    35   ar
    52    23    18   ar
    53    50    45   ar
    54     3     4    1
    55    44    51    1
    56    33    34    1
@<TRIPOS>MOLECULE
*****
 51 56 0 0 0
SMALL
GASTEIGER

@<TRIPOS>ATOM
      1 C         -61.8389  -41.7509  -20.3513 C.2     1  UNL1        0.2484
      2 O         -61.0480  -42.1606  -19.4577 O.2     1  UNL1       -0.2701
      3 N         -62.9986  -40.9881  -19.9812 N.am    1  UNL1       -0.2945
      4 H         -63.5104  -40.4588  -20.7234 H       1  UNL1        0.1501
      5 C         -62.2734  -42.0986  -24.1053 C.ar    1  UNL1        0.1522
      6 C         -62.5295  -41.8309  -22.7465 C.ar    1  UNL1        0.0449
      7 C         -61.5368  -42.0349  -21.7727 C.ar    1  UNL1        0.0839
      8 C         -60.2666  -42.4877  -22.1740 C.ar    1  UNL1        0.1459
      9 F         -59.2577  -42.6278  -21.2772 F       1  UNL1       -0.2040
     10 C         -60.0077  -42.7496  -23.5208 C.ar    1  UNL1        0.0474
     11 C         -61.0012  -42.5569  -24.4891 C.ar    1  UNL1        0.0846
     12 N         -60.7132  -42.8275  -25.8699 N.pl3   1  UNL1       -0.3017
     13 C         -60.0183  -41.8296  -26.6874 C.3     1  UNL1        0.1124
     14 C         -60.7135  -41.7017  -28.0447 C.3     1  UNL1        0.1136
     15 N         -60.9584  -43.0193  -28.6605 N.pl3   1  UNL1       -0.2897
     16 C         -60.6477  -44.2468  -27.9081 C.3     1  UNL1        0.1136
     17 C         -61.0987  -44.1210  -26.4471 C.3     1  UNL1        0.1124
     18 C         -61.3314  -43.1114  -30.0553 C.ar    1  UNL1        0.1318
     19 C         -60.5789  -43.8722  -30.9678 C.ar    1  UNL1        0.0343
     20 C         -60.9734  -43.9369  -32.3052 C.ar    1  UNL1        0.0083
     21 C         -62.1025  -43.2313  -32.7450 C.ar    1  UNL1        0.0906
     22 C         -62.8410  -42.5025  -31.8011 C.ar    1  UNL1        0.1041
     23 N         -62.4393  -42.4559  -30.5037 N.ar    1  UNL1       -0.2292
     24 C         -62.5669  -43.3338  -34.1755 C.3     1  UNL1        0.4200
     25 F         -61.5021  -43.6112  -35.0154 F       1  UNL1       -0.1658
     26 F         -63.4993  -44.3489  -34.2797 F       1  UNL1       -0.1658
     27 F         -63.1453  -42.1457  -34.5875 F       1  UNL1       -0.1658
     28 C         -64.2684  -40.9336  -25.0723 C.3     1  UNL1        0.2525
     29 O         -63.2565  -41.9345  -25.0945 O.3     1  UNL1       -0.4702
     30 C         -63.3744  -40.7788  -18.5801 C.3     1  UNL1        0.1535
     31 C         -63.9666  -39.4031  -18.4080 C.2     1  UNL1        0.2443
     32 O         -64.8029  -39.1993  -17.4860 O.2     1  UNL1       -0.2730
     33 N         -63.4901  -38.3154  -19.2182 N.am    1  UNL1       -0.2825
     34 H         -62.6988  -38.5098  -19.8729 H       1  UNL1        0.1549
     35 C         -63.8435  -36.9413  -18.9954 C.ar    1  UNL1        0.0535
     36 C         -62.8586  -36.0371  -18.5757 C.ar    1  UNL1        0.0353
     37 C         -63.1967  -34.7002  -18.3565 C.ar    1  UNL1        0.1002
     38 N         -64.4702  -34.2754  -18.5698 N.ar    1  UNL1       -0.2422
     39 C         -65.4414  -35.1244  -18.9989 C.ar    1  UNL1        0.1002
     40 C         -65.1464  -36.4711  -19.2259 C.ar    1  UNL1        0.0353
     41 C         -64.3746  -41.8616  -18.1317 C.3     1  UNL1        0.0569
     42 C         -65.0992  -42.4662  -19.3023 C.ar    1  UNL1       -0.0017
     43 C         -65.3492  -43.8201  -19.5053 C.ar    1  UNL1        0.0681
     44 N         -66.1429  -43.9975  -20.5859 N.ar    1  UNL1       -0.3523
     45 C         -66.4084  -42.7675  -21.0586 C.ar    1  UNL1        0.0563
     46 C         -67.2286  -42.4364  -22.1364 C.ar    1  UNL1        0.0170
     47 C         -67.4084  -41.0727  -22.4316 C.ar    1  UNL1        0.0015
     48 C         -66.7739  -40.0818  -21.6505 C.ar    1  UNL1        0.0001
     49 C         -65.9528  -40.4452  -20.5681 C.ar    1  UNL1        0.0012
     50 C         -65.7903  -41.8055  -20.3011 C.ar    1  UNL1        0.0131
     51 H         -66.5002  -44.9062  -20.9560 H       1  UNL1        0.1660
@<TRIPOS>BOND
     1    28    29    1
     2    29     5    1
     3     5     6   ar
     4     6     7   ar
     5     7     1    1
     6     1     2    2
     7     1     3   am
     8     3    30    1
     9    30    41    1
    10    41    42    1
    11    42    43   ar
    12    43    44   ar
    13    44    45   ar
    14    45    46   ar
    15    46    47   ar
    16    47    48   ar
    17    48    49   ar
    18    49    50   ar
    19    30    31    1
    20    31    32    2
    21    31    33   am
    22    33    35    1
    23    35    36   ar
    24    36    37   ar
    25    37    38   ar
    26    38    39   ar
    27    39    40   ar
    28     7     8   ar
    29     8     9    1
    30     8    10   ar
    31    10    11   ar
    32    11    12    1
    33    12    13    1
    34    13    14    1
    35    14    15    1
    36    15    18    1
    37    18    19   ar
    38    19    20   ar
    39    20    21   ar
    40    21    24    1
    41    24    25    1
    42    24    26    1
    43    24    27    1
    44    21    22   ar
    45    22    23   ar
    46    15    16    1
    47    16    17    1
    48    11     5   ar
    49    17    12    1
    50    50    42   ar
    51    40    35   ar
    52    23    18   ar
    53    50    45   ar
    54     3     4    1
    55    44    51    1
    56    33    34    1
@<TRIPOS>MOLECULE
*****
 51 56 0 0 0
SMALL
GASTEIGER

@<TRIPOS>ATOM
      1 C         -62.3999  -46.0265  -26.0309 C.2     1  UNL1        0.2484
      2 O         -61.2973  -46.4725  -26.4519 O.2     1  UNL1       -0.2701
      3 N         -63.6287  -46.5401  -26.5693 N.am    1  UNL1       -0.2945
      4 H         -64.5210  -46.3456  -26.0605 H       1  UNL1        0.1501
      5 C         -62.8055  -42.6913  -24.2661 C.ar    1  UNL1        0.1522
      6 C         -62.7951  -43.6870  -25.2622 C.ar    1  UNL1        0.0449
      7 C         -62.4071  -45.0037  -24.9603 C.ar    1  UNL1        0.0839
      8 C         -62.0514  -45.3267  -23.6379 C.ar    1  UNL1        0.1459
      9 F         -61.7414  -46.6006  -23.2875 F       1  UNL1       -0.2040
     10 C         -62.0651  -44.3432  -22.6469 C.ar    1  UNL1        0.0474
     11 C         -62.4408  -43.0287  -22.9512 C.ar    1  UNL1        0.0846
     12 N         -62.4530  -42.0328  -21.9163 N.pl3   1  UNL1       -0.3017
     13 C         -63.2363  -42.2465  -20.6966 C.3     1  UNL1        0.1124
     14 C         -64.0065  -40.9705  -20.3494 C.3     1  UNL1        0.1136
     15 N         -63.1377  -39.7793  -20.3875 N.pl3   1  UNL1       -0.2897
     16 C         -61.7437  -39.9059  -20.8460 C.3     1  UNL1        0.1136
     17 C         -61.6547  -40.8119  -22.0808 C.3     1  UNL1        0.1124
     18 C         -63.5902  -38.5313  -19.8125 C.ar    1  UNL1        0.1318
     19 C         -64.6517  -38.4897  -18.8909 C.ar    1  UNL1        0.0343
     20 C         -65.0571  -37.2652  -18.3575 C.ar    1  UNL1        0.0083
     21 C         -64.4250  -36.0773  -18.7520 C.ar    1  UNL1        0.0906
     22 C         -63.3551  -36.1611  -19.6551 C.ar    1  UNL1        0.1041
     23 N         -62.9762  -37.3648  -20.1595 N.ar    1  UNL1       -0.2292
     24 C         -64.8206  -34.7552  -18.1454 C.3     1  UNL1        0.4200
     25 F         -65.2720  -34.9291  -16.8484 F       1  UNL1       -0.1658
     26 F         -63.7235  -33.9144  -18.1316 F       1  UNL1       -0.1658
     27 F         -65.8332  -34.1639  -18.8807 F       1  UNL1       -0.1658
     28 C         -64.4938  -40.8783  -24.6336 C.3     1  UNL1        0.2525
     29 O         -63.1575  -41.3612  -24.5469 O.3     1  UNL1       -0.4702
     30 C         -63.6499  -47.4768  -27.6964 C.3     1  UNL1        0.1535
     31 C         -63.1812  -46.7821  -28.9496 C.2     1  UNL1        0.2443
     32 O         -63.6809  -47.1060  -30.0615 O.2     1  UNL1       -0.2730
     33 N         -62.2582  -45.6842  -28.8533 N.am    1  UNL1       -0.2825
     34 H         -61.9808  -45.3673  -27.8967 H       1  UNL1        0.1549
     35 C         -61.9099  -44.8365  -29.9592 C.ar    1  UNL1        0.0535
     36 C         -60.6002  -44.8584  -30.4569 C.ar    1  UNL1        0.0353
     37 C         -60.2557  -44.0355  -31.5311 C.ar    1  UNL1        0.1002
     38 N         -61.1923  -43.2336  -32.1032 N.ar    1  UNL1       -0.2422
     39 C         -62.4762  -43.2079  -31.6568 C.ar    1  UNL1        0.1002
     40 C         -62.8616  -44.0124  -30.5813 C.ar    1  UNL1        0.0353
     41 C         -62.7631  -48.6984  -27.3875 C.3     1  UNL1        0.0569
     42 C         -63.0893  -49.2956  -26.0467 C.ar    1  UNL1       -0.0017
     43 C         -64.2973  -49.8800  -25.6781 C.ar    1  UNL1        0.0681
     44 N         -64.1981  -50.4363  -24.4494 N.ar    1  UNL1       -0.3523
     45 C         -62.9344  -50.2216  -24.0447 C.ar    1  UNL1        0.0563
     46 C         -62.3428  -50.6547  -22.8587 C.ar    1  UNL1        0.0170
     47 C         -60.9823  -50.3595  -22.6562 C.ar    1  UNL1        0.0015
     48 C         -60.2512  -49.6487  -23.6333 C.ar    1  UNL1        0.0001
     49 C         -60.8738  -49.2252  -24.8211 C.ar    1  UNL1        0.0012
     50 C         -62.2252  -49.5293  -24.9929 C.ar    1  UNL1        0.0131
     51 H         -64.9455  -50.9543  -23.9360 H       1  UNL1        0.1660
@<TRIPOS>BOND
     1    28    29    1
     2    29     5    1
     3     5     6   ar
     4     6     7   ar
     5     7     1    1
     6     1     2    2
     7     1     3   am
     8     3    30    1
     9    30    41    1
    10    41    42    1
    11    42    43   ar
    12    43    44   ar
    13    44    45   ar
    14    45    46   ar
    15    46    47   ar
    16    47    48   ar
    17    48    49   ar
    18    49    50   ar
    19    30    31    1
    20    31    32    2
    21    31    33   am
    22    33    35    1
    23    35    36   ar
    24    36    37   ar
    25    37    38   ar
    26    38    39   ar
    27    39    40   ar
    28     7     8   ar
    29     8     9    1
    30     8    10   ar
    31    10    11   ar
    32    11    12    1
    33    12    13    1
    34    13    14    1
    35    14    15    1
    36    15    18    1
    37    18    19   ar
    38    19    20   ar
    39    20    21   ar
    40    21    24    1
    41    24    25    1
    42    24    26    1
    43    24    27    1
    44    21    22   ar
    45    22    23   ar
    46    15    16    1
    47    16    17    1
    48    11     5   ar
    49    17    12    1
    50    50    42   ar
    51    40    35   ar
    52    23    18   ar
    53    50    45   ar
    54     3     4    1
    55    44    51    1
    56    33    34    1
@<TRIPOS>MOLECULE
*****
 51 56 0 0 0
SMALL
GASTEIGER

@<TRIPOS>ATOM
      1 C         -61.4952  -41.9664  -21.7897 C.2     1  UNL1        0.2484
      2 O         -60.4922  -42.2717  -21.0877 O.2     1  UNL1       -0.2701
      3 N         -62.4031  -40.9516  -21.3319 N.am    1  UNL1       -0.2945
      4 H         -63.0838  -40.5421  -22.0114 H       1  UNL1        0.1501
      5 C         -61.0732  -44.4018  -24.6694 C.ar    1  UNL1        0.1522
      6 C         -60.9068  -43.7475  -23.4334 C.ar    1  UNL1        0.0449
      7 C         -61.6988  -42.6372  -23.0939 C.ar    1  UNL1        0.0839
      8 C         -62.6850  -42.1978  -23.9961 C.ar    1  UNL1        0.1459
      9 F         -63.5202  -41.1767  -23.6778 F       1  UNL1       -0.2040
     10 C         -62.8559  -42.8470  -25.2204 C.ar    1  UNL1        0.0474
     11 C         -62.0583  -43.9464  -25.5627 C.ar    1  UNL1        0.0846
     12 N         -62.2533  -44.6033  -26.8250 N.pl3   1  UNL1       -0.3017
     13 C         -62.3149  -43.8202  -28.0619 C.3     1  UNL1        0.1124
     14 C         -63.4792  -44.3120  -28.9249 C.3     1  UNL1        0.1136
     15 N         -63.4773  -45.7805  -29.0611 N.pl3   1  UNL1       -0.2897
     16 C         -62.5011  -46.5834  -28.3049 C.3     1  UNL1        0.1136
     17 C         -62.3652  -46.0664  -26.8669 C.3     1  UNL1        0.1124
     18 C         -64.3050  -46.4184  -30.0616 C.ar    1  UNL1        0.1318
     19 C         -64.8612  -45.6894  -31.1279 C.ar    1  UNL1        0.0343
     20 C         -65.6529  -46.3426  -32.0739 C.ar    1  UNL1        0.0083
     21 C         -65.9118  -47.7154  -31.9536 C.ar    1  UNL1        0.0906
     22 C         -65.3206  -48.4133  -30.8902 C.ar    1  UNL1        0.1041
     23 N         -64.5513  -47.7568  -29.9825 N.ar    1  UNL1       -0.2292
     24 C         -66.7235  -48.4412  -32.9961 C.3     1  UNL1        0.4200
     25 F         -67.9061  -47.7679  -33.2495 F       1  UNL1       -0.1658
     26 F         -65.9923  -48.5236  -34.1662 F       1  UNL1       -0.1658
     27 F         -67.0364  -49.7199  -32.5684 F       1  UNL1       -0.1658
     28 C         -59.6392  -46.3853  -24.1384 C.3     1  UNL1        0.2525
     29 O         -60.2741  -45.4929  -25.0477 O.3     1  UNL1       -0.4702
     30 C         -62.2817  -40.3446  -20.0034 C.3     1  UNL1        0.1535
     31 C         -62.7215  -38.9035  -20.0559 C.2     1  UNL1        0.2443
     32 O         -62.5280  -38.2345  -21.1076 O.2     1  UNL1       -0.2730
     33 N         -63.4556  -38.3417  -18.9551 N.am    1  UNL1       -0.2825
     34 H         -63.7085  -38.9790  -18.1661 H       1  UNL1        0.1549
     35 C         -64.0865  -37.0519  -18.9933 C.ar    1  UNL1        0.0535
     36 C         -65.3806  -36.9345  -19.5178 C.ar    1  UNL1        0.0353
     37 C         -65.9984  -35.6828  -19.5584 C.ar    1  UNL1        0.1002
     38 N         -65.3546  -34.5889  -19.0721 N.ar    1  UNL1       -0.2422
     39 C         -64.1081  -34.6759  -18.5365 C.ar    1  UNL1        0.1002
     40 C         -63.4525  -35.9086  -18.4808 C.ar    1  UNL1        0.0353
     41 C         -63.1225  -41.1331  -18.9811 C.3     1  UNL1        0.0569
     42 C         -64.2438  -41.8827  -19.6456 C.ar    1  UNL1       -0.0017
     43 C         -64.5594  -43.2254  -19.4605 C.ar    1  UNL1        0.0681
     44 N         -65.7078  -43.5344  -20.1045 N.ar    1  UNL1       -0.3523
     45 C         -66.1282  -42.3960  -20.6825 C.ar    1  UNL1        0.0563
     46 C         -67.2975  -42.2043  -21.4173 C.ar    1  UNL1        0.0170
     47 C         -67.5699  -40.9091  -21.8941 C.ar    1  UNL1        0.0015
     48 C         -66.6793  -39.8461  -21.6266 C.ar    1  UNL1        0.0001
     49 C         -65.5076  -40.0686  -20.8813 C.ar    1  UNL1        0.0012
     50 C         -65.2619  -41.3643  -20.4244 C.ar    1  UNL1        0.0131
     51 H         -66.1843  -44.4634  -20.1207 H       1  UNL1        0.1660
@<TRIPOS>BOND
     1    28    29    1
     2    29     5    1
     3     5     6   ar
     4     6     7   ar
     5     7     1    1
     6     1     2    2
     7     1     3   am
     8     3    30    1
     9    30    41    1
    10    41    42    1
    11    42    43   ar
    12    43    44   ar
    13    44    45   ar
    14    45    46   ar
    15    46    47   ar
    16    47    48   ar
    17    48    49   ar
    18    49    50   ar
    19    30    31    1
    20    31    32    2
    21    31    33   am
    22    33    35    1
    23    35    36   ar
    24    36    37   ar
    25    37    38   ar
    26    38    39   ar
    27    39    40   ar
    28     7     8   ar
    29     8     9    1
    30     8    10   ar
    31    10    11   ar
    32    11    12    1
    33    12    13    1
    34    13    14    1
    35    14    15    1
    36    15    18    1
    37    18    19   ar
    38    19    20   ar
    39    20    21   ar
    40    21    24    1
    41    24    25    1
    42    24    26    1
    43    24    27    1
    44    21    22   ar
    45    22    23   ar
    46    15    16    1
    47    16    17    1
    48    11     5   ar
    49    17    12    1
    50    50    42   ar
    51    40    35   ar
    52    23    18   ar
    53    50    45   ar
    54     3     4    1
    55    44    51    1
    56    33    34    1
@<TRIPOS>MOLECULE
*****
 51 56 0 0 0
SMALL
GASTEIGER

@<TRIPOS>ATOM
      1 C         -61.9143  -45.2368  -26.8147 C.2     1  UNL1        0.2484
      2 O         -60.9305  -46.0250  -26.8672 O.2     1  UNL1       -0.2701
      3 N         -62.8653  -45.2114  -27.8911 N.am    1  UNL1       -0.2945
      4 H         -63.7862  -44.7411  -27.7376 H       1  UNL1        0.1501
      5 C         -61.7403  -44.0002  -23.2310 C.ar    1  UNL1        0.1522
      6 C         -61.5825  -44.7957  -24.3825 C.ar    1  UNL1        0.0449
      7 C         -62.0901  -44.3749  -25.6237 C.ar    1  UNL1        0.0839
      8 C         -62.7395  -43.1298  -25.7115 C.ar    1  UNL1        0.1459
      9 F         -63.1794  -42.6521  -26.9031 F       1  UNL1       -0.2040
     10 C         -62.8936  -42.3364  -24.5730 C.ar    1  UNL1        0.0474
     11 C         -62.3975  -42.7619  -23.3341 C.ar    1  UNL1        0.0846
     12 N         -62.5621  -41.9287  -22.1758 N.pl3   1  UNL1       -0.3017
     13 C         -63.7065  -42.1260  -21.2823 C.3     1  UNL1        0.1124
     14 C         -64.3236  -40.7707  -20.9295 C.3     1  UNL1        0.1136
     15 N         -63.3004  -39.7979  -20.5029 N.pl3   1  UNL1       -0.2897
     16 C         -61.8742  -40.1589  -20.5736 C.3     1  UNL1        0.1136
     17 C         -61.5613  -40.8957  -21.8824 C.3     1  UNL1        0.1124
     18 C         -63.6945  -38.5670  -19.8528 C.ar    1  UNL1        0.1318
     19 C         -64.7537  -38.5315  -18.9283 C.ar    1  UNL1        0.0343
     20 C         -65.1017  -37.3238  -18.3212 C.ar    1  UNL1        0.0083
     21 C         -64.4143  -36.1452  -18.6445 C.ar    1  UNL1        0.0906
     22 C         -63.3487  -36.2243  -19.5531 C.ar    1  UNL1        0.1041
     23 N         -63.0261  -37.4118  -20.1299 N.ar    1  UNL1       -0.2292
     24 C         -64.7480  -34.8450  -17.9584 C.3     1  UNL1        0.4200
     25 F         -65.0197  -35.0565  -16.6177 F       1  UNL1       -0.1658
     26 F         -63.6734  -33.9827  -18.0697 F       1  UNL1       -0.1658
     27 F         -65.8595  -34.2581  -18.5381 F       1  UNL1       -0.1658
     28 C         -60.7530  -45.7048  -21.6845 C.3     1  UNL1        0.2525
     29 O         -61.2718  -44.4109  -21.9725 O.3     1  UNL1       -0.4702
     30 C         -62.6624  -45.9786  -29.1234 C.3     1  UNL1        0.1535
     31 C         -63.9820  -46.5156  -29.6162 C.2     1  UNL1        0.2443
     32 O         -65.0529  -45.9558  -29.2545 O.2     1  UNL1       -0.2730
     33 N         -64.0026  -47.5829  -30.5789 N.am    1  UNL1       -0.2825
     34 H         -63.0845  -47.9189  -30.9490 H       1  UNL1        0.1549
     35 C         -65.1908  -48.0246  -31.2541 C.ar    1  UNL1        0.0535
     36 C         -65.9994  -49.0003  -30.6559 C.ar    1  UNL1        0.0353
     37 C         -67.1552  -49.4343  -31.3083 C.ar    1  UNL1        0.1002
     38 N         -67.5037  -48.8970  -32.5073 N.ar    1  UNL1       -0.2422
     39 C         -66.7513  -47.9327  -33.1010 C.ar    1  UNL1        0.1002
     40 C         -65.5847  -47.4735  -32.4841 C.ar    1  UNL1        0.0353
     41 C         -62.0004  -45.0931  -30.1965 C.3     1  UNL1        0.0569
     42 C         -62.1136  -43.6326  -29.8574 C.ar    1  UNL1       -0.0017
     43 C         -61.0666  -42.7860  -29.5054 C.ar    1  UNL1        0.0681
     44 N         -61.5040  -41.5104  -29.4029 N.ar    1  UNL1       -0.3523
     45 C         -62.8143  -41.5412  -29.7013 C.ar    1  UNL1        0.0563
     46 C         -63.6882  -40.4575  -29.7775 C.ar    1  UNL1        0.0170
     47 C         -65.0186  -40.7108  -30.1582 C.ar    1  UNL1        0.0015
     48 C         -65.4403  -42.0260  -30.4534 C.ar    1  UNL1        0.0001
     49 C         -64.5362  -43.1000  -30.3694 C.ar    1  UNL1        0.0012
     50 C         -63.2240  -42.8188  -29.9859 C.ar    1  UNL1        0.0131
     51 H         -60.9297  -40.6700  -29.1696 H       1  UNL1        0.1660
@<TRIPOS>BOND
     1    28    29    1
     2    29     5    1
     3     5     6   ar
     4     6     7   ar
     5     7     1    1
     6     1     2    2
     7     1     3   am
     8     3    30    1
     9    30    41    1
    10    41    42    1
    11    42    43   ar
    12    43    44   ar
    13    44    45   ar
    14    45    46   ar
    15    46    47   ar
    16    47    48   ar
    17    48    49   ar
    18    49    50   ar
    19    30    31    1
    20    31    32    2
    21    31    33   am
    22    33    35    1
    23    35    36   ar
    24    36    37   ar
    25    37    38   ar
    26    38    39   ar
    27    39    40   ar
    28     7     8   ar
    29     8     9    1
    30     8    10   ar
    31    10    11   ar
    32    11    12    1
    33    12    13    1
    34    13    14    1
    35    14    15    1
    36    15    18    1
    37    18    19   ar
    38    19    20   ar
    39    20    21   ar
    40    21    24    1
    41    24    25    1
    42    24    26    1
    43    24    27    1
    44    21    22   ar
    45    22    23   ar
    46    15    16    1
    47    16    17    1
    48    11     5   ar
    49    17    12    1
    50    50    42   ar
    51    40    35   ar
    52    23    18   ar
    53    50    45   ar
    54     3     4    1
    55    44    51    1
    56    33    34    1
@<TRIPOS>MOLECULE
*****
 51 56 0 0 0
SMALL
GASTEIGER

@<TRIPOS>ATOM
      1 C         -62.1393  -41.6425  -20.7276 C.2     1  UNL1        0.2484
      2 O         -61.5736  -42.2395  -19.7708 O.2     1  UNL1       -0.2701
      3 N         -62.8459  -40.4156  -20.4840 N.am    1  UNL1       -0.2945
      4 H         -63.1034  -39.8132  -21.2986 H       1  UNL1        0.1501
      5 C         -61.0314  -43.8200  -23.6317 C.ar    1  UNL1        0.1522
      6 C         -61.1577  -43.2722  -22.3403 C.ar    1  UNL1        0.0449
      7 C         -62.0339  -42.2011  -22.0948 C.ar    1  UNL1        0.0839
      8 C         -62.8092  -41.6940  -23.1537 C.ar    1  UNL1        0.1459
      9 F         -63.7205  -40.7102  -22.9457 F       1  UNL1       -0.2040
     10 C         -62.6899  -42.2376  -24.4343 C.ar    1  UNL1        0.0474
     11 C         -61.8080  -43.2975  -24.6803 C.ar    1  UNL1        0.0846
     12 N         -61.7037  -43.8458  -26.0037 N.pl3   1  UNL1       -0.3017
     13 C         -60.5577  -44.6839  -26.3664 C.3     1  UNL1        0.1124
     14 C         -60.0254  -44.2623  -27.7379 C.3     1  UNL1        0.1136
     15 N         -61.1083  -44.1416  -28.7318 N.pl3   1  UNL1       -0.2897
     16 C         -62.5099  -44.3032  -28.3088 C.3     1  UNL1        0.1136
     17 C         -62.7667  -43.5797  -26.9805 C.3     1  UNL1        0.1124
     18 C         -60.7939  -44.0437  -30.1405 C.ar    1  UNL1        0.1318
     19 C         -59.6381  -44.6381  -30.6779 C.ar    1  UNL1        0.0343
     20 C         -59.3715  -44.5222  -32.0431 C.ar    1  UNL1        0.0083
     21 C         -60.2390  -43.7997  -32.8748 C.ar    1  UNL1        0.0906
     22 C         -61.3935  -43.2411  -32.3071 C.ar    1  UNL1        0.1041
     23 N         -61.6337  -43.3689  -30.9756 N.ar    1  UNL1       -0.2292
     24 C         -59.9881  -43.7101  -34.3585 C.3     1  UNL1        0.4200
     25 F         -59.3669  -44.8584  -34.8185 F       1  UNL1       -0.1658
     26 F         -61.1945  -43.5563  -35.0156 F       1  UNL1       -0.1658
     27 F         -59.1737  -42.6300  -34.6518 F       1  UNL1       -0.1658
     28 C         -59.1685  -45.3703  -23.0005 C.3     1  UNL1        0.2525
     29 O         -60.1402  -44.8685  -23.9116 O.3     1  UNL1       -0.4702
     30 C         -63.0505  -39.8945  -19.1295 C.3     1  UNL1        0.1535
     31 C         -63.4193  -38.4341  -19.1922 C.2     1  UNL1        0.2443
     32 O         -62.7726  -37.6637  -19.9534 O.2     1  UNL1       -0.2730
     33 N         -64.5708  -37.9581  -18.4752 N.am    1  UNL1       -0.2825
     34 H         -65.1521  -38.6643  -17.9693 H       1  UNL1        0.1549
     35 C         -65.1166  -36.6386  -18.6296 C.ar    1  UNL1        0.0535
     36 C         -64.5837  -35.5817  -17.8795 C.ar    1  UNL1        0.0353
     37 C         -65.1112  -34.2970  -18.0247 C.ar    1  UNL1        0.1002
     38 N         -66.1221  -34.0707  -18.9048 N.ar    1  UNL1       -0.2422
     39 C         -66.6437  -35.0717  -19.6626 C.ar    1  UNL1        0.1002
     40 C         -66.1478  -36.3727  -19.5447 C.ar    1  UNL1        0.0353
     41 C         -64.1480  -40.7024  -18.4106 C.3     1  UNL1        0.0569
     42 C         -64.9584  -41.5199  -19.3778 C.ar    1  UNL1       -0.0017
     43 C         -65.1861  -42.8910  -19.3074 C.ar    1  UNL1        0.0681
     44 N         -66.0696  -43.2731  -20.2574 N.ar    1  UNL1       -0.3523
     45 C         -66.4132  -42.1538  -20.9178 C.ar    1  UNL1        0.0563
     46 C         -67.3378  -42.0358  -21.9546 C.ar    1  UNL1        0.0170
     47 C         -67.5838  -40.7516  -22.4737 C.ar    1  UNL1        0.0015
     48 C         -66.9099  -39.6267  -21.9491 C.ar    1  UNL1        0.0001
     49 C         -65.9830  -39.7756  -20.9018 C.ar    1  UNL1        0.0012
     50 C         -65.7570  -41.0619  -20.4095 C.ar    1  UNL1        0.0131
     51 H         -66.4324  -44.2385  -20.4210 H       1  UNL1        0.1660
@<TRIPOS>BOND
     1    28    29    1
     2    29     5    1
     3     5     6   ar
     4     6     7   ar
     5     7     1    1
     6     1     2    2
     7     1     3   am
     8     3    30    1
     9    30    41    1
    10    41    42    1
    11    42    43   ar
    12    43    44   ar
    13    44    45   ar
    14    45    46   ar
    15    46    47   ar
    16    47    48   ar
    17    48    49   ar
    18    49    50   ar
    19    30    31    1
    20    31    32    2
    21    31    33   am
    22    33    35    1
    23    35    36   ar
    24    36    37   ar
    25    37    38   ar
    26    38    39   ar
    27    39    40   ar
    28     7     8   ar
    29     8     9    1
    30     8    10   ar
    31    10    11   ar
    32    11    12    1
    33    12    13    1
    34    13    14    1
    35    14    15    1
    36    15    18    1
    37    18    19   ar
    38    19    20   ar
    39    20    21   ar
    40    21    24    1
    41    24    25    1
    42    24    26    1
    43    24    27    1
    44    21    22   ar
    45    22    23   ar
    46    15    16    1
    47    16    17    1
    48    11     5   ar
    49    17    12    1
    50    50    42   ar
    51    40    35   ar
    52    23    18   ar
    53    50    45   ar
    54     3     4    1
    55    44    51    1
    56    33    34    1
@<TRIPOS>MOLECULE
*****
 51 56 0 0 0
SMALL
GASTEIGER

@<TRIPOS>ATOM
      1 C         -61.4232  -41.6310  -21.9905 C.2     1  UNL1        0.2484
      2 O         -60.3667  -41.9059  -21.3578 O.2     1  UNL1       -0.2701
      3 N         -62.3700  -40.7078  -21.4295 N.am    1  UNL1       -0.2945
      4 H         -63.1110  -40.3083  -22.0494 H       1  UNL1        0.1501
      5 C         -63.0091  -42.4105  -25.3491 C.ar    1  UNL1        0.1522
      6 C         -62.7629  -41.8438  -24.0834 C.ar    1  UNL1        0.0449
      7 C         -61.6511  -42.2403  -23.3206 C.ar    1  UNL1        0.0839
      8 C         -60.7647  -43.1972  -23.8482 C.ar    1  UNL1        0.1459
      9 F         -59.6401  -43.5545  -23.1780 F       1  UNL1       -0.2040
     10 C         -61.0030  -43.7577  -25.1046 C.ar    1  UNL1        0.0474
     11 C         -62.1177  -43.3703  -25.8591 C.ar    1  UNL1        0.0846
     12 N         -62.3423  -43.9553  -27.1514 N.pl3   1  UNL1       -0.3017
     13 C         -62.8032  -43.1244  -28.2668 C.3     1  UNL1        0.1124
     14 C         -63.9284  -43.8441  -29.0140 C.3     1  UNL1        0.1136
     15 N         -63.5741  -45.2422  -29.3219 N.pl3   1  UNL1       -0.2897
     16 C         -62.3152  -45.8075  -28.8071 C.3     1  UNL1        0.1136
     17 C         -62.0824  -45.3863  -27.3503 C.3     1  UNL1        0.1124
     18 C         -64.3636  -46.0004  -30.2678 C.ar    1  UNL1        0.1318
     19 C         -64.9263  -45.3954  -31.4059 C.ar    1  UNL1        0.0343
     20 C         -65.6804  -46.1623  -32.2956 C.ar    1  UNL1        0.0083
     21 C         -65.8955  -47.5257  -32.0484 C.ar    1  UNL1        0.0906
     22 C         -65.2989  -48.0988  -30.9157 C.ar    1  UNL1        0.1041
     23 N         -64.5667  -47.3329  -30.0647 N.ar    1  UNL1       -0.2292
     24 C         -66.6655  -48.3747  -33.0275 C.3     1  UNL1        0.4200
     25 F         -67.8786  -47.7840  -33.3368 F       1  UNL1       -0.1658
     26 F         -65.9256  -48.5178  -34.1862 F       1  UNL1       -0.1658
     27 F         -66.9172  -49.6274  -32.4952 F       1  UNL1       -0.1658
     28 C         -64.8660  -40.8478  -25.9671 C.3     1  UNL1        0.2525
     29 O         -64.1295  -42.0565  -26.1181 O.3     1  UNL1       -0.4702
     30 C         -62.2185  -40.1689  -20.0749 C.3     1  UNL1        0.1535
     31 C         -62.6873  -38.7366  -20.0373 C.2     1  UNL1        0.2443
     32 O         -62.4714  -37.9877  -21.0290 O.2     1  UNL1       -0.2730
     33 N         -63.4719  -38.2722  -18.9260 N.am    1  UNL1       -0.2825
     34 H         -63.7386  -38.9711  -18.1959 H       1  UNL1        0.1549
     35 C         -64.1288  -36.9954  -18.8923 C.ar    1  UNL1        0.0535
     36 C         -63.5197  -35.9260  -18.2222 C.ar    1  UNL1        0.0353
     37 C         -64.1544  -34.6827  -18.1853 C.ar    1  UNL1        0.1002
     38 N         -65.3465  -34.5070  -18.8144 N.ar    1  UNL1       -0.2422
     39 C         -65.9502  -35.5196  -19.4915 C.ar    1  UNL1        0.1002
     40 C         -65.3512  -36.7806  -19.5491 C.ar    1  UNL1        0.0353
     41 C         -63.0114  -41.0275  -19.0709 C.3     1  UNL1        0.0569
     42 C         -64.1184  -41.7893  -19.7454 C.ar    1  UNL1       -0.0017
     43 C         -64.3599  -43.1558  -19.6400 C.ar    1  UNL1        0.0681
     44 N         -65.5150  -43.4814  -20.2637 N.ar    1  UNL1       -0.3523
     45 C         -66.0126  -42.3310  -20.7494 C.ar    1  UNL1        0.0563
     46 C         -67.2167  -42.1529  -21.4294 C.ar    1  UNL1        0.0170
     47 C         -67.5707  -40.8452  -21.8088 C.ar    1  UNL1        0.0015
     48 C         -66.7244  -39.7572  -21.5013 C.ar    1  UNL1        0.0001
     49 C         -65.5159  -39.9666  -20.8130 C.ar    1  UNL1        0.0012
     50 C         -65.1895  -41.2749  -20.4525 C.ar    1  UNL1        0.0131
     51 H         -65.9452  -44.4308  -20.3258 H       1  UNL1        0.1660
@<TRIPOS>BOND
     1    28    29    1
     2    29     5    1
     3     5     6   ar
     4     6     7   ar
     5     7     1    1
     6     1     2    2
     7     1     3   am
     8     3    30    1
     9    30    41    1
    10    41    42    1
    11    42    43   ar
    12    43    44   ar
    13    44    45   ar
    14    45    46   ar
    15    46    47   ar
    16    47    48   ar
    17    48    49   ar
    18    49    50   ar
    19    30    31    1
    20    31    32    2
    21    31    33   am
    22    33    35    1
    23    35    36   ar
    24    36    37   ar
    25    37    38   ar
    26    38    39   ar
    27    39    40   ar
    28     7     8   ar
    29     8     9    1
    30     8    10   ar
    31    10    11   ar
    32    11    12    1
    33    12    13    1
    34    13    14    1
    35    14    15    1
    36    15    18    1
    37    18    19   ar
    38    19    20   ar
    39    20    21   ar
    40    21    24    1
    41    24    25    1
    42    24    26    1
    43    24    27    1
    44    21    22   ar
    45    22    23   ar
    46    15    16    1
    47    16    17    1
    48    11     5   ar
    49    17    12    1
    50    50    42   ar
    51    40    35   ar
    52    23    18   ar
    53    50    45   ar
    54     3     4    1
    55    44    51    1
    56    33    34    1
@<TRIPOS>MOLECULE
*****
 51 56 0 0 0
SMALL
GASTEIGER

@<TRIPOS>ATOM
      1 C         -61.5926  -46.5158  -24.6243 C.2     1  UNL1        0.2484
      2 O         -60.6274  -47.3116  -24.4598 O.2     1  UNL1       -0.2701
      3 N         -62.6339  -46.8421  -25.5586 N.am    1  UNL1       -0.2945
      4 H         -63.5317  -46.3082  -25.5179 H       1  UNL1        0.1501
      5 C         -62.3459  -44.1234  -21.7763 C.ar    1  UNL1        0.1522
      6 C         -62.2682  -45.2917  -22.5590 C.ar    1  UNL1        0.0449
      7 C         -61.6523  -45.2727  -23.8221 C.ar    1  UNL1        0.0839
      8 C         -61.0864  -44.0726  -24.2902 C.ar    1  UNL1        0.1459
      9 F         -60.4183  -44.0271  -25.4706 F       1  UNL1       -0.2040
     10 C         -61.1574  -42.9136  -23.5149 C.ar    1  UNL1        0.0474
     11 C         -61.7816  -42.9308  -22.2611 C.ar    1  UNL1        0.0846
     12 N         -61.8397  -41.7289  -21.4769 N.pl3   1  UNL1       -0.3017
     13 C         -62.0736  -41.8017  -20.0323 C.3     1  UNL1        0.1124
     14 C         -63.1116  -40.7534  -19.6255 C.3     1  UNL1        0.1136
     15 N         -62.7984  -39.4262  -20.1873 N.pl3   1  UNL1       -0.2897
     16 C         -61.6694  -39.2759  -21.1212 C.3     1  UNL1        0.1136
     17 C         -61.6382  -40.4304  -22.1312 C.3     1  UNL1        0.1124
     18 C         -63.4772  -38.2487  -19.6916 C.ar    1  UNL1        0.1318
     19 C         -64.6508  -38.3469  -18.9228 C.ar    1  UNL1        0.0343
     20 C         -65.2747  -37.1866  -18.4617 C.ar    1  UNL1        0.0083
     21 C         -64.7484  -35.9262  -18.7788 C.ar    1  UNL1        0.0906
     22 C         -63.5638  -35.8690  -19.5278 C.ar    1  UNL1        0.1041
     23 N         -62.9725  -37.0122  -19.9639 N.ar    1  UNL1       -0.2292
     24 C         -65.3848  -34.6683  -18.2448 C.3     1  UNL1        0.4200
     25 F         -66.5729  -34.4047  -18.9045 F       1  UNL1       -0.1658
     26 F         -65.6437  -34.8263  -16.8962 F       1  UNL1       -0.1658
     27 F         -64.5431  -33.5833  -18.4187 F       1  UNL1       -0.1658
     28 C         -64.2783  -44.6403  -20.2694 C.3     1  UNL1        0.2525
     29 O         -62.9838  -44.1065  -20.5254 O.3     1  UNL1       -0.4702
     30 C         -62.5496  -48.0133  -26.4358 C.3     1  UNL1        0.1535
     31 C         -62.8621  -49.2635  -25.6535 C.2     1  UNL1        0.2443
     32 O         -63.8150  -50.0032  -26.0220 O.2     1  UNL1       -0.2730
     33 N         -62.0050  -49.6591  -24.5694 N.am    1  UNL1       -0.2825
     34 H         -61.1504  -49.0835  -24.3930 H       1  UNL1        0.1549
     35 C         -62.1010  -50.9254  -23.8986 C.ar    1  UNL1        0.0535
     36 C         -60.9564  -51.4813  -23.3115 C.ar    1  UNL1        0.0353
     37 C         -61.0437  -52.7128  -22.6590 C.ar    1  UNL1        0.1002
     38 N         -62.2376  -53.3574  -22.5766 N.ar    1  UNL1       -0.2422
     39 C         -63.3692  -52.8319  -23.1165 C.ar    1  UNL1        0.1002
     40 C         -63.3247  -51.6041  -23.7820 C.ar    1  UNL1        0.0353
     41 C         -63.5193  -47.8577  -27.6230 C.3     1  UNL1        0.0569
     42 C         -63.3113  -46.5535  -28.3418 C.ar    1  UNL1       -0.0017
     43 C         -64.3033  -45.6501  -28.7112 C.ar    1  UNL1        0.0681
     44 N         -63.7522  -44.5222  -29.2143 N.ar    1  UNL1       -0.3523
     45 C         -62.4211  -44.6989  -29.1525 C.ar    1  UNL1        0.0563
     46 C         -61.4309  -43.7859  -29.5130 C.ar    1  UNL1        0.0170
     47 C         -60.0888  -44.1603  -29.3191 C.ar    1  UNL1        0.0015
     48 C         -59.7700  -45.4232  -28.7731 C.ar    1  UNL1        0.0001
     49 C         -60.7900  -46.3238  -28.4174 C.ar    1  UNL1        0.0012
     50 C         -62.1119  -45.9263  -28.6243 C.ar    1  UNL1        0.0131
     51 H         -64.2611  -43.6753  -29.5522 H       1  UNL1        0.1660
@<TRIPOS>BOND
     1    28    29    1
     2    29     5    1
     3     5     6   ar
     4     6     7   ar
     5     7     1    1
     6     1     2    2
     7     1     3   am
     8     3    30    1
     9    30    41    1
    10    41    42    1
    11    42    43   ar
    12    43    44   ar
    13    44    45   ar
    14    45    46   ar
    15    46    47   ar
    16    47    48   ar
    17    48    49   ar
    18    49    50   ar
    19    30    31    1
    20    31    32    2
    21    31    33   am
    22    33    35    1
    23    35    36   ar
    24    36    37   ar
    25    37    38   ar
    26    38    39   ar
    27    39    40   ar
    28     7     8   ar
    29     8     9    1
    30     8    10   ar
    31    10    11   ar
    32    11    12    1
    33    12    13    1
    34    13    14    1
    35    14    15    1
    36    15    18    1
    37    18    19   ar
    38    19    20   ar
    39    20    21   ar
    40    21    24    1
    41    24    25    1
    42    24    26    1
    43    24    27    1
    44    21    22   ar
    45    22    23   ar
    46    15    16    1
    47    16    17    1
    48    11     5   ar
    49    17    12    1
    50    50    42   ar
    51    40    35   ar
    52    23    18   ar
    53    50    45   ar
    54     3     4    1
    55    44    51    1
    56    33    34    1
@<TRIPOS>MOLECULE
*****
 51 56 0 0 0
SMALL
GASTEIGER

@<TRIPOS>ATOM
      1 C         -61.5413  -41.3878  -21.5596 C.2     1  UNL1        0.2484
      2 O         -60.3960  -41.2834  -21.0406 O.2     1  UNL1       -0.2701
      3 N         -62.6575  -40.7052  -20.9665 N.am    1  UNL1       -0.2945
      4 H         -63.5369  -40.6018  -21.5221 H       1  UNL1        0.1501
      5 C         -60.9456  -44.0123  -24.2354 C.ar    1  UNL1        0.1522
      6 C         -60.8166  -43.2396  -23.0650 C.ar    1  UNL1        0.0449
      7 C         -61.7073  -42.1865  -22.7954 C.ar    1  UNL1        0.0839
      8 C         -62.7532  -41.9256  -23.6996 C.ar    1  UNL1        0.1459
      9 F         -63.6786  -40.9669  -23.4423 F       1  UNL1       -0.2040
     10 C         -62.8869  -42.6926  -24.8587 C.ar    1  UNL1        0.0474
     11 C         -61.9918  -43.7346  -25.1322 C.ar    1  UNL1        0.0846
     12 N         -62.1496  -44.5149  -26.3276 N.pl3   1  UNL1       -0.3017
     13 C         -61.8640  -43.9232  -27.6373 C.3     1  UNL1        0.1124
     14 C         -62.9765  -44.2910  -28.6218 C.3     1  UNL1        0.1136
     15 N         -63.2802  -45.7339  -28.5904 N.pl3   1  UNL1       -0.2897
     16 C         -62.6204  -46.5982  -27.5969 C.3     1  UNL1        0.1136
     17 C         -62.5750  -45.9160  -26.2234 C.3     1  UNL1        0.1124
     18 C         -64.0809  -46.3307  -29.6371 C.ar    1  UNL1        0.1318
     19 C         -64.6387  -45.5538  -30.6682 C.ar    1  UNL1        0.0343
     20 C         -65.4038  -46.1683  -31.6608 C.ar    1  UNL1        0.0083
     21 C         -65.6348  -47.5508  -31.6221 C.ar    1  UNL1        0.0906
     22 C         -65.0428  -48.2958  -30.5916 C.ar    1  UNL1        0.1041
     23 N         -64.2996  -47.6762  -29.6374 N.ar    1  UNL1       -0.2292
     24 C         -66.4172  -48.2327  -32.7154 C.3     1  UNL1        0.4200
     25 F         -67.5273  -47.4819  -33.0620 F       1  UNL1       -0.1658
     26 F         -65.6097  -48.3827  -33.8273 F       1  UNL1       -0.1658
     27 F         -66.8505  -49.4802  -32.3007 F       1  UNL1       -0.1658
     28 C         -59.5472  -45.9922  -23.6056 C.3     1  UNL1        0.2525
     29 O         -60.0505  -45.0490  -24.5454 O.3     1  UNL1       -0.4702
     30 C         -62.5417  -39.9922  -19.6912 C.3     1  UNL1        0.1535
     31 C         -63.0760  -38.5900  -19.8372 C.2     1  UNL1        0.2443
     32 O         -62.8658  -37.9550  -20.9065 O.2     1  UNL1       -0.2730
     33 N         -63.9126  -38.0352  -18.8083 N.am    1  UNL1       -0.2825
     34 H         -64.1682  -38.6543  -18.0058 H       1  UNL1        0.1549
     35 C         -64.6276  -36.7969  -18.9438 C.ar    1  UNL1        0.0535
     36 C         -64.0964  -35.6304  -18.3774 C.ar    1  UNL1        0.0353
     37 C         -64.7878  -34.4240  -18.5051 C.ar    1  UNL1        0.1002
     38 N         -65.9591  -34.3791  -19.1934 N.ar    1  UNL1       -0.2422
     39 C         -66.4872  -35.4897  -19.7730 C.ar    1  UNL1        0.1002
     40 C         -65.8297  -36.7179  -19.6652 C.ar    1  UNL1        0.0353
     41 C         -63.3024  -40.7522  -18.5877 C.3     1  UNL1        0.0569
     42 C         -64.4984  -41.4785  -19.1380 C.ar    1  UNL1       -0.0017
     43 C         -65.7613  -40.9364  -19.3571 C.ar    1  UNL1        0.0681
     44 N         -66.5564  -41.8299  -19.9884 N.ar    1  UNL1       -0.3523
     45 C         -65.8029  -42.9259  -20.1832 C.ar    1  UNL1        0.0563
     46 C         -66.1728  -44.0983  -20.8410 C.ar    1  UNL1        0.0170
     47 C         -65.2047  -45.1101  -20.9762 C.ar    1  UNL1        0.0015
     48 C         -63.9030  -44.9286  -20.4593 C.ar    1  UNL1        0.0001
     49 C         -63.5576  -43.7346  -19.8013 C.ar    1  UNL1        0.0012
     50 C         -64.5395  -42.7502  -19.6792 C.ar    1  UNL1        0.0131
     51 H         -67.5453  -41.6825  -20.2896 H       1  UNL1        0.1660
@<TRIPOS>BOND
     1    28    29    1
     2    29     5    1
     3     5     6   ar
     4     6     7   ar
     5     7     1    1
     6     1     2    2
     7     1     3   am
     8     3    30    1
     9    30    41    1
    10    41    42    1
    11    42    43   ar
    12    43    44   ar
    13    44    45   ar
    14    45    46   ar
    15    46    47   ar
    16    47    48   ar
    17    48    49   ar
    18    49    50   ar
    19    30    31    1
    20    31    32    2
    21    31    33   am
    22    33    35    1
    23    35    36   ar
    24    36    37   ar
    25    37    38   ar
    26    38    39   ar
    27    39    40   ar
    28     7     8   ar
    29     8     9    1
    30     8    10   ar
    31    10    11   ar
    32    11    12    1
    33    12    13    1
    34    13    14    1
    35    14    15    1
    36    15    18    1
    37    18    19   ar
    38    19    20   ar
    39    20    21   ar
    40    21    24    1
    41    24    25    1
    42    24    26    1
    43    24    27    1
    44    21    22   ar
    45    22    23   ar
    46    15    16    1
    47    16    17    1
    48    11     5   ar
    49    17    12    1
    50    50    42   ar
    51    40    35   ar
    52    23    18   ar
    53    50    45   ar
    54     3     4    1
    55    44    51    1
    56    33    34    1
