@<TRIPOS>MOLECULE
*****
 40 44 0 0 0
SMALL
GASTEIGER

@<TRIPOS>ATOM
      1 C         -28.1973   -2.7480  -18.9139 C.3     1  UNL1        0.0328
      2 C         -28.1029   -3.4904  -17.6034 C.ar    1  UNL1       -0.0029
      3 C         -29.1849   -3.4750  -16.6931 C.ar    1  UNL1        0.0285
      4 I         -31.0216   -2.4841  -17.0929 I       1  UNL1       -0.0428
      5 C         -29.0808   -4.1370  -15.4658 C.ar    1  UNL1        0.0202
      6 C         -27.9321   -4.8625  -15.1365 C.ar    1  UNL1        0.0522
      7 C         -26.8748   -4.9176  -16.0554 C.ar    1  UNL1        0.0291
      8 C         -26.9410   -4.2332  -17.2803 C.ar    1  UNL1        0.0481
      9 N         -27.8345   -5.4893  -13.8447 N.am    1  UNL1       -0.2803
     10 C         -27.9601   -6.9048  -13.6417 C.2     1  UNL1        0.2495
     11 O         -28.8476   -7.5421  -14.2724 O.2     1  UNL1       -0.2698
     12 H         -27.6697   -4.8852  -13.0080 H       1  UNL1        0.1552
     13 C         -27.0689   -7.6224  -12.6973 C.ar    1  UNL1        0.0537
     14 C         -27.3449   -7.6451  -11.3178 C.ar    1  UNL1        0.0042
     15 C         -26.4766   -8.2873  -10.4303 C.ar    1  UNL1       -0.0028
     16 C         -25.3137   -8.9120  -10.9032 C.ar    1  UNL1       -0.0061
     17 C         -25.0313   -8.8880  -12.2759 C.ar    1  UNL1       -0.0028
     18 C         -25.9009   -8.2516  -13.1654 C.ar    1  UNL1        0.0042
     19 C         -24.3408   -9.5511   -9.9480 C.3     1  UNL1        0.0992
     20 N         -22.9773   -9.0439  -10.1990 N.3     1  UNL1       -0.2665
     21 C         -22.0151  -10.1593  -10.3166 C.3     1  UNL1        0.0899
     22 C         -20.5484   -9.6826  -10.1982 C.3     1  UNL1        0.0897
     23 N         -20.3960   -8.2381  -10.4637 N.3     1  UNL1       -0.2691
     24 C         -20.6006   -7.9144  -11.8868 C.3     1  UNL1        0.0897
     25 C         -21.2412   -7.4082   -9.5717 C.3     1  UNL1        0.0897
     26 C         -22.5476   -8.1063   -9.1485 C.3     1  UNL1        0.0899
     27 N         -25.8417   -4.3274  -18.2065 N.pl3   1  UNL1       -0.2827
     28 H         -25.3866   -3.4482  -18.5404 H       1  UNL1        0.1551
     29 C         -25.3288   -5.5766  -18.6925 C.ar    1  UNL1        0.2207
     30 N         -25.7014   -6.0293  -19.9179 N.ar    1  UNL1       -0.2120
     31 C         -25.2379   -7.2133  -20.3942 C.ar    1  UNL1        0.1034
     32 C         -24.3661   -7.9847  -19.6252 C.ar    1  UNL1        0.0400
     33 C         -23.9687   -7.5025  -18.3672 C.ar    1  UNL1        0.0872
     34 N         -24.4627   -6.3087  -17.9414 N.ar    1  UNL1       -0.2135
     35 C         -23.0519   -8.2631  -17.4763 C.ar    1  UNL1        0.0370
     36 C         -22.0460   -7.5875  -16.7607 C.ar    1  UNL1        0.0046
     37 C         -21.1676   -8.2956  -15.9405 C.ar    1  UNL1        0.0207
     38 C         -21.2969   -9.6792  -15.8334 C.ar    1  UNL1        0.0989
     39 N         -22.2652  -10.3270  -16.5314 N.ar    1  UNL1       -0.2423
     40 C         -23.1326   -9.6631  -17.3414 C.ar    1  UNL1        0.1003
@<TRIPOS>BOND
     1     1     2    1
     2     2     3   ar
     3     3     4    1
     4     3     5   ar
     5     5     6   ar
     6     6     9    1
     7     9    10   am
     8    10    11    2
     9    10    13    1
    10    13    14   ar
    11    14    15   ar
    12    15    16   ar
    13    16    19    1
    14    19    20    1
    15    20    21    1
    16    21    22    1
    17    22    23    1
    18    23    24    1
    19    23    25    1
    20    25    26    1
    21    16    17   ar
    22    17    18   ar
    23     6     7   ar
    24     7     8   ar
    25     8    27    1
    26    27    29    1
    27    29    30   ar
    28    30    31   ar
    29    31    32   ar
    30    32    33   ar
    31    33    35    1
    32    35    36   ar
    33    36    37   ar
    34    37    38   ar
    35    38    39   ar
    36    39    40   ar
    37    33    34   ar
    38     8     2   ar
    39    34    29   ar
    40    18    13   ar
    41    40    35   ar
    42    26    20    1
    43     9    12    1
    44    27    28    1
@<TRIPOS>MOLECULE
*****
 40 44 0 0 0
SMALL
GASTEIGER

@<TRIPOS>ATOM
      1 C         -18.7928  -13.3996  -10.9594 C.3     1  UNL1        0.0328
      2 C         -19.6605  -12.1678  -11.0436 C.ar    1  UNL1       -0.0029
      3 C         -19.4269  -11.0683  -10.1856 C.ar    1  UNL1        0.0285
      4 I         -17.8397  -11.0168   -8.7740 I       1  UNL1       -0.0428
      5 C         -20.2539   -9.9422  -10.2447 C.ar    1  UNL1        0.0202
      6 C         -21.2905   -9.8608  -11.1790 C.ar    1  UNL1        0.0522
      7 C         -21.4971  -10.9300  -12.0617 C.ar    1  UNL1        0.0291
      8 C         -20.7021  -12.0865  -12.0000 C.ar    1  UNL1        0.0481
      9 N         -22.1566   -8.7114  -11.1800 N.am    1  UNL1       -0.2803
     10 C         -22.2153   -7.7672  -12.2597 C.2     1  UNL1        0.2495
     11 O         -21.1445   -7.3975  -12.8149 O.2     1  UNL1       -0.2698
     12 H         -22.7715   -8.5490  -10.3507 H       1  UNL1        0.1552
     13 C         -23.5130   -7.2169  -12.7225 C.ar    1  UNL1        0.0537
     14 C         -24.1576   -6.1884  -12.0109 C.ar    1  UNL1        0.0042
     15 C         -25.4006   -5.7057  -12.4303 C.ar    1  UNL1       -0.0028
     16 C         -26.0257   -6.2462  -13.5632 C.ar    1  UNL1       -0.0061
     17 C         -25.3903   -7.2745  -14.2728 C.ar    1  UNL1       -0.0028
     18 C         -24.1451   -7.7544  -13.8586 C.ar    1  UNL1        0.0042
     19 C         -27.3927   -5.7766  -13.9854 C.3     1  UNL1        0.0992
     20 N         -27.2955   -4.9896  -15.2306 N.3     1  UNL1       -0.2665
     21 C         -26.1959   -4.0060  -15.1462 C.3     1  UNL1        0.0899
     22 C         -26.2942   -2.9217  -16.2449 C.3     1  UNL1        0.0897
     23 N         -27.1366   -3.3395  -17.3834 N.3     1  UNL1       -0.2691
     24 C         -26.4907   -4.3893  -18.1913 C.3     1  UNL1        0.0897
     25 C         -28.5071   -3.7180  -16.9623 C.3     1  UNL1        0.0897
     26 C         -28.5650   -4.3122  -15.5422 C.3     1  UNL1        0.0899
     27 N         -20.9333  -13.1576  -12.9352 N.pl3   1  UNL1       -0.2827
     28 H         -20.8182  -14.1441  -12.6109 H       1  UNL1        0.1551
     29 C         -21.3247  -12.9394  -14.2986 C.ar    1  UNL1        0.2207
     30 N         -21.4467  -13.9956  -15.1441 N.ar    1  UNL1       -0.2120
     31 C         -21.8048  -13.8128  -16.4409 C.ar    1  UNL1        0.1034
     32 C         -22.0545  -12.5280  -16.9242 C.ar    1  UNL1        0.0400
     33 C         -21.9460  -11.4414  -16.0407 C.ar    1  UNL1        0.0872
     34 N         -21.5858  -11.6836  -14.7514 N.ar    1  UNL1       -0.2135
     35 C         -22.1832  -10.0377  -16.4722 C.ar    1  UNL1        0.0370
     36 C         -21.3119   -9.0160  -16.0511 C.ar    1  UNL1        0.0046
     37 C         -21.5395   -7.6937  -16.4326 C.ar    1  UNL1        0.0207
     38 C         -22.6368   -7.3933  -17.2376 C.ar    1  UNL1        0.0989
     39 N         -23.4783   -8.3823  -17.6356 N.ar    1  UNL1       -0.2423
     40 C         -23.2833   -9.6791  -17.2758 C.ar    1  UNL1        0.1003
@<TRIPOS>BOND
     1     1     2    1
     2     2     3   ar
     3     3     4    1
     4     3     5   ar
     5     5     6   ar
     6     6     9    1
     7     9    10   am
     8    10    11    2
     9    10    13    1
    10    13    14   ar
    11    14    15   ar
    12    15    16   ar
    13    16    19    1
    14    19    20    1
    15    20    21    1
    16    21    22    1
    17    22    23    1
    18    23    24    1
    19    23    25    1
    20    25    26    1
    21    16    17   ar
    22    17    18   ar
    23     6     7   ar
    24     7     8   ar
    25     8    27    1
    26    27    29    1
    27    29    30   ar
    28    30    31   ar
    29    31    32   ar
    30    32    33   ar
    31    33    35    1
    32    35    36   ar
    33    36    37   ar
    34    37    38   ar
    35    38    39   ar
    36    39    40   ar
    37    33    34   ar
    38     8     2   ar
    39    34    29   ar
    40    18    13   ar
    41    40    35   ar
    42    26    20    1
    43     9    12    1
    44    27    28    1
@<TRIPOS>MOLECULE
*****
 40 44 0 0 0
SMALL
GASTEIGER

@<TRIPOS>ATOM
      1 C         -24.7624  -12.1522  -14.1064 C.3     1  UNL1        0.0328
      2 C         -23.5316  -11.7635  -13.3244 C.ar    1  UNL1       -0.0029
      3 C         -22.3081  -12.4413  -13.5328 C.ar    1  UNL1        0.0285
      4 I         -22.0711  -13.9895  -14.9688 I       1  UNL1       -0.0428
      5 C         -21.1785  -12.0999  -12.7827 C.ar    1  UNL1        0.0202
      6 C         -21.2223  -11.0570  -11.8528 C.ar    1  UNL1        0.0522
      7 C         -22.4214  -10.3528  -11.6755 C.ar    1  UNL1        0.0291
      8 C         -23.5793  -10.6985  -12.3918 C.ar    1  UNL1        0.0481
      9 N         -20.0579  -10.7641  -11.0593 N.am    1  UNL1       -0.2803
     10 C         -19.8969   -9.5500  -10.3105 C.2     1  UNL1        0.2495
     11 O         -20.2514   -8.4550  -10.8272 O.2     1  UNL1       -0.2698
     12 H         -19.2848  -11.4667  -11.0292 H       1  UNL1        0.1552
     13 C         -19.3136   -9.5663   -8.9466 C.ar    1  UNL1        0.0537
     14 C         -19.6184   -8.5545   -8.0175 C.ar    1  UNL1        0.0042
     15 C         -19.0307   -8.5545   -6.7491 C.ar    1  UNL1       -0.0028
     16 C         -18.1226   -9.5603   -6.3884 C.ar    1  UNL1       -0.0061
     17 C         -17.8114  -10.5676   -7.3120 C.ar    1  UNL1       -0.0028
     18 C         -18.4023  -10.5727   -8.5782 C.ar    1  UNL1        0.0042
     19 C         -17.4367   -9.5330   -5.0482 C.3     1  UNL1        0.0992
     20 N         -18.2379   -8.7522   -4.0851 N.3     1  UNL1       -0.2665
     21 C         -17.5015   -8.5665   -2.8174 C.3     1  UNL1        0.0899
     22 C         -18.4239   -8.0991   -1.6671 C.3     1  UNL1        0.0897
     23 N         -19.6826   -7.5003   -2.1541 N.3     1  UNL1       -0.2691
     24 C         -19.4609   -6.1863   -2.7834 C.3     1  UNL1        0.0897
     25 C         -20.4435   -8.4222   -3.0316 C.3     1  UNL1        0.0897
     26 C         -19.5432   -9.3836   -3.8306 C.3     1  UNL1        0.0899
     27 N         -24.7884   -9.9406  -12.1953 N.pl3   1  UNL1       -0.2827
     28 H         -25.6920  -10.4527  -12.0823 H       1  UNL1        0.1551
     29 C         -24.8164   -8.5068  -12.1379 C.ar    1  UNL1        0.2207
     30 N         -25.8734   -7.8301  -12.6575 N.ar    1  UNL1       -0.2120
     31 C         -25.9169   -6.4734  -12.6247 C.ar    1  UNL1        0.1034
     32 C         -24.8686   -5.7526  -12.0519 C.ar    1  UNL1        0.0400
     33 C         -23.7873   -6.4582  -11.4987 C.ar    1  UNL1        0.0872
     34 N         -23.7976   -7.8172  -11.5576 N.ar    1  UNL1       -0.2135
     35 C         -22.6227   -5.7716  -10.8782 C.ar    1  UNL1        0.0370
     36 C         -21.8261   -4.9038  -11.6480 C.ar    1  UNL1        0.0046
     37 C         -20.7189   -4.2732  -11.0803 C.ar    1  UNL1        0.0207
     38 C         -20.4099   -4.5080   -9.7416 C.ar    1  UNL1        0.0989
     39 N         -21.1781   -5.3517   -9.0051 N.ar    1  UNL1       -0.2423
     40 C         -22.2607   -5.9830   -9.5332 C.ar    1  UNL1        0.1003
@<TRIPOS>BOND
     1     1     2    1
     2     2     3   ar
     3     3     4    1
     4     3     5   ar
     5     5     6   ar
     6     6     9    1
     7     9    10   am
     8    10    11    2
     9    10    13    1
    10    13    14   ar
    11    14    15   ar
    12    15    16   ar
    13    16    19    1
    14    19    20    1
    15    20    21    1
    16    21    22    1
    17    22    23    1
    18    23    24    1
    19    23    25    1
    20    25    26    1
    21    16    17   ar
    22    17    18   ar
    23     6     7   ar
    24     7     8   ar
    25     8    27    1
    26    27    29    1
    27    29    30   ar
    28    30    31   ar
    29    31    32   ar
    30    32    33   ar
    31    33    35    1
    32    35    36   ar
    33    36    37   ar
    34    37    38   ar
    35    38    39   ar
    36    39    40   ar
    37    33    34   ar
    38     8     2   ar
    39    34    29   ar
    40    18    13   ar
    41    40    35   ar
    42    26    20    1
    43     9    12    1
    44    27    28    1
@<TRIPOS>MOLECULE
*****
 40 44 0 0 0
SMALL
GASTEIGER

@<TRIPOS>ATOM
      1 C         -24.8244  -11.8121  -13.8640 C.3     1  UNL1        0.0328
      2 C         -23.5488  -11.5579  -13.0986 C.ar    1  UNL1       -0.0029
      3 C         -22.3700  -12.2716  -13.4159 C.ar    1  UNL1        0.0285
      4 I         -22.2631  -13.6888  -14.9955 I       1  UNL1       -0.0428
      5 C         -21.1989  -12.0565  -12.6826 C.ar    1  UNL1        0.0202
      6 C         -21.1566  -11.1040  -11.6603 C.ar    1  UNL1        0.0522
      7 C         -22.3109  -10.3624  -11.3725 C.ar    1  UNL1        0.0291
      8 C         -23.5091  -10.5834  -12.0715 C.ar    1  UNL1        0.0481
      9 N         -19.9520  -10.9429  -10.8896 N.am    1  UNL1       -0.2803
     10 C         -19.6005   -9.7238  -10.2181 C.2     1  UNL1        0.2495
     11 O         -19.7918   -8.6213  -10.8009 O.2     1  UNL1       -0.2698
     12 H         -19.2935  -11.7513  -10.8179 H       1  UNL1        0.1552
     13 C         -19.0100   -9.7449   -8.8573 C.ar    1  UNL1        0.0537
     14 C         -18.1040  -10.7521   -8.4775 C.ar    1  UNL1        0.0042
     15 C         -17.5857  -10.7887   -7.1798 C.ar    1  UNL1       -0.0028
     16 C         -17.9684   -9.8248   -6.2360 C.ar    1  UNL1       -0.0061
     17 C         -18.8746   -8.8221   -6.6076 C.ar    1  UNL1       -0.0028
     18 C         -19.3893   -8.7804   -7.9060 C.ar    1  UNL1        0.0042
     19 C         -17.4645   -9.8932   -4.8186 C.3     1  UNL1        0.0992
     20 N         -18.2206   -8.9543   -3.9665 N.3     1  UNL1       -0.2665
     21 C         -17.4963   -8.6887   -2.7061 C.3     1  UNL1        0.0899
     22 C         -18.4013   -8.0311   -1.6379 C.3     1  UNL1        0.0897
     23 N         -19.5999   -7.3951   -2.2202 N.3     1  UNL1       -0.2691
     24 C         -19.2642   -6.1775   -2.9796 C.3     1  UNL1        0.0897
     25 C         -20.4135   -8.3464   -3.0151 C.3     1  UNL1        0.0897
     26 C         -19.5759   -9.4540   -3.6822 C.3     1  UNL1        0.0899
     27 N         -24.6699   -9.7896  -11.7593 N.pl3   1  UNL1       -0.2827
     28 H         -25.4932  -10.2534  -11.3136 H       1  UNL1        0.1551
     29 C         -24.7529   -8.3814  -12.0231 C.ar    1  UNL1        0.2207
     30 N         -23.8187   -7.5409  -11.5072 N.ar    1  UNL1       -0.2120
     31 C         -23.8827   -6.2037  -11.7339 C.ar    1  UNL1        0.1034
     32 C         -24.9163   -5.6729  -12.5061 C.ar    1  UNL1        0.0400
     33 C         -25.8684   -6.5487  -13.0534 C.ar    1  UNL1        0.0872
     34 N         -25.7539   -7.8794  -12.7953 N.ar    1  UNL1       -0.2135
     35 C         -27.0092   -6.0694  -13.8791 C.ar    1  UNL1        0.0370
     36 C         -26.8757   -4.9011  -14.6521 C.ar    1  UNL1        0.0046
     37 C         -27.9475   -4.4320  -15.4117 C.ar    1  UNL1        0.0207
     38 C         -29.1521   -5.1329  -15.4008 C.ar    1  UNL1        0.0989
     39 N         -29.2777   -6.2561  -14.6477 N.ar    1  UNL1       -0.2423
     40 C         -28.2512   -6.7341  -13.8945 C.ar    1  UNL1        0.1003
@<TRIPOS>BOND
     1     1     2    1
     2     2     3   ar
     3     3     4    1
     4     3     5   ar
     5     5     6   ar
     6     6     9    1
     7     9    10   am
     8    10    11    2
     9    10    13    1
    10    13    14   ar
    11    14    15   ar
    12    15    16   ar
    13    16    19    1
    14    19    20    1
    15    20    21    1
    16    21    22    1
    17    22    23    1
    18    23    24    1
    19    23    25    1
    20    25    26    1
    21    16    17   ar
    22    17    18   ar
    23     6     7   ar
    24     7     8   ar
    25     8    27    1
    26    27    29    1
    27    29    30   ar
    28    30    31   ar
    29    31    32   ar
    30    32    33   ar
    31    33    35    1
    32    35    36   ar
    33    36    37   ar
    34    37    38   ar
    35    38    39   ar
    36    39    40   ar
    37    33    34   ar
    38     8     2   ar
    39    34    29   ar
    40    18    13   ar
    41    40    35   ar
    42    26    20    1
    43     9    12    1
    44    27    28    1
@<TRIPOS>MOLECULE
*****
 40 44 0 0 0
SMALL
GASTEIGER

@<TRIPOS>ATOM
      1 C         -23.8320  -10.5707  -15.5011 C.3     1  UNL1        0.0328
      2 C         -22.9103   -9.9709  -14.4676 C.ar    1  UNL1       -0.0029
      3 C         -22.0369  -10.7968  -13.7228 C.ar    1  UNL1        0.0285
      4 I         -21.8951  -12.8963  -14.0171 I       1  UNL1       -0.0428
      5 C         -21.2082  -10.2409  -12.7432 C.ar    1  UNL1        0.0202
      6 C         -21.1910   -8.8618  -12.5153 C.ar    1  UNL1        0.0522
      7 C         -22.0227   -8.0344  -13.2829 C.ar    1  UNL1        0.0291
      8 C         -22.8892   -8.5716  -14.2492 C.ar    1  UNL1        0.0481
      9 N         -20.3659   -8.3261  -11.4649 N.am    1  UNL1       -0.2803
     10 C         -20.8491   -8.0561  -10.1404 C.2     1  UNL1        0.2495
     11 O         -21.9860   -7.5291   -9.9940 O.2     1  UNL1       -0.2698
     12 H         -19.3641   -8.1157  -11.6753 H       1  UNL1        0.1552
     13 C         -20.0282   -8.3797   -8.9478 C.ar    1  UNL1        0.0537
     14 C         -19.2881   -9.5745   -8.8817 C.ar    1  UNL1        0.0042
     15 C         -18.5516   -9.8913   -7.7365 C.ar    1  UNL1       -0.0028
     16 C         -18.5468   -9.0245   -6.6343 C.ar    1  UNL1       -0.0061
     17 C         -19.2865   -7.8354   -6.6929 C.ar    1  UNL1       -0.0028
     18 C         -20.0186   -7.5141   -7.8389 C.ar    1  UNL1        0.0042
     19 C         -17.8080   -9.3874   -5.3733 C.3     1  UNL1        0.0992
     20 N         -18.3928   -8.6741   -4.2207 N.3     1  UNL1       -0.2665
     21 C         -17.4210   -8.5826   -3.1113 C.3     1  UNL1        0.0899
     22 C         -18.0938   -8.1949   -1.7736 C.3     1  UNL1        0.0897
     23 N         -19.4123   -7.5577   -1.9630 N.3     1  UNL1       -0.2691
     24 C         -19.2936   -6.2030   -2.5308 C.3     1  UNL1        0.0897
     25 C         -20.3455   -8.4114   -2.7370 C.3     1  UNL1        0.0897
     26 C         -19.6349   -9.3169   -3.7609 C.3     1  UNL1        0.0899
     27 N         -23.7164   -7.6881  -15.0304 N.pl3   1  UNL1       -0.2827
     28 H         -23.5532   -7.6235  -16.0604 H       1  UNL1        0.1551
     29 C         -24.7675   -6.8912  -14.4650 C.ar    1  UNL1        0.2207
     30 N         -25.0211   -6.9542  -13.1319 N.ar    1  UNL1       -0.2120
     31 C         -26.0174   -6.2180  -12.5762 C.ar    1  UNL1        0.1034
     32 C         -26.7983   -5.3809  -13.3737 C.ar    1  UNL1        0.0400
     33 C         -26.5190   -5.3048  -14.7482 C.ar    1  UNL1        0.0872
     34 N         -25.5075   -6.0631  -15.2505 N.ar    1  UNL1       -0.2135
     35 C         -27.3069   -4.4478  -15.6743 C.ar    1  UNL1        0.0370
     36 C         -28.7121   -4.4381  -15.5992 C.ar    1  UNL1        0.0046
     37 C         -29.4597   -3.6547  -16.4785 C.ar    1  UNL1        0.0207
     38 C         -28.8021   -2.8785  -17.4312 C.ar    1  UNL1        0.0989
     39 N         -27.4460   -2.8968  -17.5037 N.ar    1  UNL1       -0.2423
     40 C         -26.6920   -3.6538  -16.6623 C.ar    1  UNL1        0.1003
@<TRIPOS>BOND
     1     1     2    1
     2     2     3   ar
     3     3     4    1
     4     3     5   ar
     5     5     6   ar
     6     6     9    1
     7     9    10   am
     8    10    11    2
     9    10    13    1
    10    13    14   ar
    11    14    15   ar
    12    15    16   ar
    13    16    19    1
    14    19    20    1
    15    20    21    1
    16    21    22    1
    17    22    23    1
    18    23    24    1
    19    23    25    1
    20    25    26    1
    21    16    17   ar
    22    17    18   ar
    23     6     7   ar
    24     7     8   ar
    25     8    27    1
    26    27    29    1
    27    29    30   ar
    28    30    31   ar
    29    31    32   ar
    30    32    33   ar
    31    33    35    1
    32    35    36   ar
    33    36    37   ar
    34    37    38   ar
    35    38    39   ar
    36    39    40   ar
    37    33    34   ar
    38     8     2   ar
    39    34    29   ar
    40    18    13   ar
    41    40    35   ar
    42    26    20    1
    43     9    12    1
    44    27    28    1
