@<TRIPOS>MOLECULE
*****
 34 39 0 0 0
SMALL
GASTEIGER

@<TRIPOS>ATOM
      1 C          61.1634   87.4057   13.7609 C.ar    1  UNL1        0.1534
      2 N          61.5564   88.4627   13.0057 N.ar    1  UNL1       -0.1329
      3 N          62.4655   89.3363   13.4339 N.ar    1  UNL1       -0.1468
      4 C          63.0572   89.2271   14.6519 C.ar    1  UNL1        0.1029
      5 C          62.6642   88.1771   15.5139 C.ar    1  UNL1        0.0221
      6 C          63.1648   88.0525   16.8275 C.ar    1  UNL1        0.0016
      7 C          62.7380   87.0108   17.6529 C.ar    1  UNL1        0.0001
      8 C          61.7966   86.0918   17.1935 C.ar    1  UNL1        0.0001
      9 C          61.2713   86.2096   15.9064 C.ar    1  UNL1        0.0029
     10 C          61.6996   87.2456   15.0532 C.ar    1  UNL1        0.0349
     11 C          57.8100   86.1397   13.6924 C.3     1  UNL1        0.0233
     12 C          58.8466   86.9440   12.8996 C.3     1  UNL1        0.0941
     13 C          58.6066   86.8356   11.3841 C.3     1  UNL1        0.1134
     14 N          59.0551   85.5299   10.8834 N.am    1  UNL1       -0.2726
     15 C          58.3720   84.9328    9.7669 C.2     1  UNL1        0.2491
     16 O          57.9140   85.6740    8.8544 O.2     1  UNL1       -0.2699
     17 C          60.4235   85.1043   11.2069 C.3     1  UNL1        0.1152
     18 C          60.6533   85.1787   12.7158 C.3     1  UNL1        0.1137
     19 N          60.2049   86.4822   13.2206 N.pl3   1  UNL1       -0.2900
     20 C          58.1810   83.4656    9.6781 C.ar    1  UNL1        0.0536
     21 C          58.1900   82.6770   10.8433 C.ar    1  UNL1        0.0045
     22 C          58.0213   81.2912   10.7610 C.ar    1  UNL1        0.0001
     23 C          57.8504   80.6786    9.5176 C.ar    1  UNL1        0.0000
     24 C          57.8521   81.4500    8.3533 C.ar    1  UNL1        0.0001
     25 C          58.0203   82.8358    8.4301 C.ar    1  UNL1        0.0045
     26 C          64.0903   90.2227   15.0081 C.ar    1  UNL1        0.0194
     27 C          65.2736   90.3252   14.2627 C.ar    1  UNL1        0.0012
     28 C          66.2294   91.2922   14.5846 C.ar    1  UNL1       -0.0042
     29 C          66.0179   92.1869   15.6463 C.ar    1  UNL1       -0.0225
     30 C          64.8140   92.0935   16.3785 C.ar    1  UNL1       -0.0042
     31 C          63.8593   91.1250   16.0546 C.ar    1  UNL1        0.0012
     32 C          67.1047   93.2091   15.9344 C.3     1  UNL1        0.0224
     33 C          68.2664   93.2884   14.9531 C.3     1  UNL1        0.0047
     34 C          68.4745   92.6770   16.3334 C.3     1  UNL1        0.0047
@<TRIPOS>BOND
     1    11    12    1
     2    12    13    1
     3    13    14    1
     4    14    15   am
     5    15    16    2
     6    15    20    1
     7    20    21   ar
     8    21    22   ar
     9    22    23   ar
    10    23    24   ar
    11    24    25   ar
    12    14    17    1
    13    17    18    1
    14    18    19    1
    15    19     1    1
    16     1     2   ar
    17     2     3   ar
    18     3     4   ar
    19     4    26    1
    20    26    27   ar
    21    27    28   ar
    22    28    29   ar
    23    29    32    1
    24    32    33    1
    25    33    34    1
    26    29    30   ar
    27    30    31   ar
    28     4     5   ar
    29     5     6   ar
    30     6     7   ar
    31     7     8   ar
    32     8     9   ar
    33     9    10   ar
    34    19    12    1
    35    10     1   ar
    36    25    20   ar
    37    31    26   ar
    38    10     5   ar
    39    34    32    1
@<TRIPOS>MOLECULE
*****
 34 39 0 0 0
SMALL
GASTEIGER

@<TRIPOS>ATOM
      1 C          60.9686   87.3053   12.4436 C.ar    1  UNL1        0.1534
      2 N          61.2478   87.8838   11.2480 N.ar    1  UNL1       -0.1329
      3 N          62.0552   88.9377   11.1457 N.ar    1  UNL1       -0.1468
      4 C          62.6506   89.5015   12.2289 C.ar    1  UNL1        0.1029
      5 C          62.3702   88.9817   13.5140 C.ar    1  UNL1        0.0221
      6 C          62.8763   89.5707   14.6924 C.ar    1  UNL1        0.0016
      7 C          62.5616   89.0369   15.9433 C.ar    1  UNL1        0.0001
      8 C          61.7270   87.9253   16.0423 C.ar    1  UNL1        0.0001
      9 C          61.1971   87.3412   14.8915 C.ar    1  UNL1        0.0029
     10 C          61.5140   87.8565   13.6192 C.ar    1  UNL1        0.0349
     11 C          57.8627   85.7950   13.4052 C.3     1  UNL1        0.0233
     12 C          58.6796   86.2919   12.2070 C.3     1  UNL1        0.0941
     13 C          58.3137   85.5326   10.9204 C.3     1  UNL1        0.1134
     14 N          58.9096   84.1903   10.9270 N.am    1  UNL1       -0.2726
     15 C          58.2228   83.1131   10.2652 C.2     1  UNL1        0.2491
     16 O          57.5688   83.3512    9.2130 O.2     1  UNL1       -0.2699
     17 C          60.3523   84.0814   11.1814 C.3     1  UNL1        0.1152
     18 C          60.7128   84.8062   12.4775 C.3     1  UNL1        0.1137
     19 N          60.1179   86.1483   12.4754 N.pl3   1  UNL1       -0.2900
     20 C          58.2550   81.7336   10.8064 C.ar    1  UNL1        0.0536
     21 C          58.7005   81.4968   12.1199 C.ar    1  UNL1        0.0045
     22 C          58.7423   80.1949   12.6289 C.ar    1  UNL1        0.0001
     23 C          58.3489   79.1177   11.8316 C.ar    1  UNL1        0.0000
     24 C          57.9167   79.3397   10.5222 C.ar    1  UNL1        0.0001
     25 C          57.8729   80.6393   10.0086 C.ar    1  UNL1        0.0045
     26 C          63.5684   90.6371   11.9979 C.ar    1  UNL1        0.0194
     27 C          64.4566   91.0553   12.9991 C.ar    1  UNL1        0.0012
     28 C          65.3451   92.1070   12.7604 C.ar    1  UNL1       -0.0042
     29 C          65.3769   92.7526   11.5137 C.ar    1  UNL1       -0.0225
     30 C          64.4958   92.3116   10.5021 C.ar    1  UNL1       -0.0042
     31 C          63.6077   91.2593   10.7433 C.ar    1  UNL1        0.0012
     32 C          66.3706   93.8879   11.3324 C.3     1  UNL1        0.0224
     33 C          66.0886   94.8921   10.2231 C.3     1  UNL1        0.0047
     34 C          67.2162   93.8791   10.0661 C.3     1  UNL1        0.0047
@<TRIPOS>BOND
     1    11    12    1
     2    12    13    1
     3    13    14    1
     4    14    15   am
     5    15    16    2
     6    15    20    1
     7    20    21   ar
     8    21    22   ar
     9    22    23   ar
    10    23    24   ar
    11    24    25   ar
    12    14    17    1
    13    17    18    1
    14    18    19    1
    15    19     1    1
    16     1     2   ar
    17     2     3   ar
    18     3     4   ar
    19     4    26    1
    20    26    27   ar
    21    27    28   ar
    22    28    29   ar
    23    29    32    1
    24    32    33    1
    25    33    34    1
    26    29    30   ar
    27    30    31   ar
    28     4     5   ar
    29     5     6   ar
    30     6     7   ar
    31     7     8   ar
    32     8     9   ar
    33     9    10   ar
    34    19    12    1
    35    10     1   ar
    36    25    20   ar
    37    31    26   ar
    38    10     5   ar
    39    34    32    1
@<TRIPOS>MOLECULE
*****
 34 39 0 0 0
SMALL
GASTEIGER

@<TRIPOS>ATOM
      1 C          62.3040   86.7355   11.5110 C.ar    1  UNL1        0.1534
      2 N          63.1342   86.5056   12.5598 N.ar    1  UNL1       -0.1329
      3 N          63.7453   87.4965   13.2060 N.ar    1  UNL1       -0.1468
      4 C          63.5785   88.7991   12.8583 C.ar    1  UNL1        0.1029
      5 C          62.7643   89.1132   11.7454 C.ar    1  UNL1        0.0221
      6 C          62.6171   90.4329   11.2673 C.ar    1  UNL1        0.0016
      7 C          61.8174   90.6986   10.1545 C.ar    1  UNL1        0.0001
      8 C          61.1695   89.6584    9.4911 C.ar    1  UNL1        0.0001
      9 C          61.3196   88.3435    9.9329 C.ar    1  UNL1        0.0029
     10 C          62.1110   88.0563   11.0624 C.ar    1  UNL1        0.0349
     11 C          61.2047   85.0999    8.5162 C.3     1  UNL1        0.0233
     12 C          62.2194   85.0322    9.6632 C.3     1  UNL1        0.0941
     13 C          62.6602   83.5852    9.9424 C.3     1  UNL1        0.1134
     14 N          61.6095   82.8566   10.6649 N.am    1  UNL1       -0.2726
     15 C          61.4598   81.4421   10.4495 C.2     1  UNL1        0.2491
     16 O          62.4846   80.7373   10.2378 O.2     1  UNL1       -0.2699
     17 C          61.0725   83.4634   11.8903 C.3     1  UNL1        0.1152
     18 C          60.6024   84.8896   11.6072 C.3     1  UNL1        0.1137
     19 N          61.6496   85.6210   10.8838 N.pl3   1  UNL1       -0.2900
     20 C          60.1232   80.8012   10.4540 C.ar    1  UNL1        0.0536
     21 C          59.1116   81.2636    9.5923 C.ar    1  UNL1        0.0045
     22 C          57.8464   80.6678    9.6028 C.ar    1  UNL1        0.0001
     23 C          57.5759   79.6126   10.4768 C.ar    1  UNL1        0.0000
     24 C          58.5686   79.1535   11.3453 C.ar    1  UNL1        0.0001
     25 C          59.8351   79.7456   11.3388 C.ar    1  UNL1        0.0045
     26 C          64.2643   89.8236   13.6741 C.ar    1  UNL1        0.0194
     27 C          65.2354   90.6601   13.1053 C.ar    1  UNL1        0.0012
     28 C          65.8536   91.6491   13.8747 C.ar    1  UNL1       -0.0042
     29 C          65.5049   91.8346   15.2224 C.ar    1  UNL1       -0.0225
     30 C          64.5098   91.0042   15.7830 C.ar    1  UNL1       -0.0042
     31 C          63.8928   90.0153   15.0112 C.ar    1  UNL1        0.0012
     32 C          66.2229   92.9305   15.9923 C.3     1  UNL1        0.0224
     33 C          67.3978   93.6122   15.3042 C.3     1  UNL1        0.0047
     34 C          67.6453   92.6420   16.4529 C.3     1  UNL1        0.0047
@<TRIPOS>BOND
     1    11    12    1
     2    12    13    1
     3    13    14    1
     4    14    15   am
     5    15    16    2
     6    15    20    1
     7    20    21   ar
     8    21    22   ar
     9    22    23   ar
    10    23    24   ar
    11    24    25   ar
    12    14    17    1
    13    17    18    1
    14    18    19    1
    15    19     1    1
    16     1     2   ar
    17     2     3   ar
    18     3     4   ar
    19     4    26    1
    20    26    27   ar
    21    27    28   ar
    22    28    29   ar
    23    29    32    1
    24    32    33    1
    25    33    34    1
    26    29    30   ar
    27    30    31   ar
    28     4     5   ar
    29     5     6   ar
    30     6     7   ar
    31     7     8   ar
    32     8     9   ar
    33     9    10   ar
    34    19    12    1
    35    10     1   ar
    36    25    20   ar
    37    31    26   ar
    38    10     5   ar
    39    34    32    1
@<TRIPOS>MOLECULE
*****
 34 39 0 0 0
SMALL
GASTEIGER

@<TRIPOS>ATOM
      1 C          61.5397   87.5630   13.0983 C.ar    1  UNL1        0.1534
      2 N          62.1080   87.4693   14.3272 N.ar    1  UNL1       -0.1329
      3 N          63.0139   88.3468   14.7542 N.ar    1  UNL1       -0.1468
      4 C          63.4276   89.3905   13.9893 C.ar    1  UNL1        0.1029
      5 C          62.9139   89.5266   12.6786 C.ar    1  UNL1        0.0221
      6 C          63.3638   90.5288   11.7927 C.ar    1  UNL1        0.0016
      7 C          62.8434   90.6184   10.5005 C.ar    1  UNL1        0.0001
      8 C          61.8853   89.7051   10.0648 C.ar    1  UNL1        0.0001
      9 C          61.4432   88.6922   10.9163 C.ar    1  UNL1        0.0029
     10 C          61.9458   88.5935   12.2287 C.ar    1  UNL1        0.0349
     11 C          58.2236   86.2547   13.4785 C.3     1  UNL1        0.0233
     12 C          59.1480   87.0307   12.5334 C.3     1  UNL1        0.0941
     13 C          58.7378   86.8436   11.0627 C.3     1  UNL1        0.1134
     14 N          59.1492   85.5199   10.5774 N.am    1  UNL1       -0.2726
     15 C          58.3533   84.8593    9.5775 C.2     1  UNL1        0.2491
     16 O          57.7806   85.5482    8.6890 O.2     1  UNL1       -0.2699
     17 C          60.5529   85.1276   10.7612 C.3     1  UNL1        0.1152
     18 C          60.9528   85.2804   12.2281 C.3     1  UNL1        0.1137
     19 N          60.5421   86.6020   12.7175 N.pl3   1  UNL1       -0.2900
     20 C          58.1795   83.3873    9.5824 C.ar    1  UNL1        0.0536
     21 C          58.2141   82.6727   10.7940 C.ar    1  UNL1        0.0045
     22 C          58.0616   81.2827   10.8001 C.ar    1  UNL1        0.0001
     23 C          57.8817   80.5921    9.5996 C.ar    1  UNL1        0.0000
     24 C          57.8580   81.2896    8.3898 C.ar    1  UNL1        0.0001
     25 C          58.0099   82.6794    8.3782 C.ar    1  UNL1        0.0045
     26 C          64.4004   90.3345   14.5792 C.ar    1  UNL1        0.0194
     27 C          65.6653   90.5141   14.0011 C.ar    1  UNL1        0.0012
     28 C          66.5657   91.4340   14.5445 C.ar    1  UNL1       -0.0042
     29 C          66.2176   92.2048   15.6657 C.ar    1  UNL1       -0.0225
     30 C          64.9338   92.0358   16.2292 C.ar    1  UNL1       -0.0042
     31 C          64.0347   91.1147   15.6839 C.ar    1  UNL1        0.0012
     32 C          67.2518   93.1827   16.1980 C.3     1  UNL1        0.0224
     33 C          68.3283   93.6557   15.2306 C.3     1  UNL1        0.0047
     34 C          68.6804   92.6762   16.3436 C.3     1  UNL1        0.0047
@<TRIPOS>BOND
     1    11    12    1
     2    12    13    1
     3    13    14    1
     4    14    15   am
     5    15    16    2
     6    15    20    1
     7    20    21   ar
     8    21    22   ar
     9    22    23   ar
    10    23    24   ar
    11    24    25   ar
    12    14    17    1
    13    17    18    1
    14    18    19    1
    15    19     1    1
    16     1     2   ar
    17     2     3   ar
    18     3     4   ar
    19     4    26    1
    20    26    27   ar
    21    27    28   ar
    22    28    29   ar
    23    29    32    1
    24    32    33    1
    25    33    34    1
    26    29    30   ar
    27    30    31   ar
    28     4     5   ar
    29     5     6   ar
    30     6     7   ar
    31     7     8   ar
    32     8     9   ar
    33     9    10   ar
    34    19    12    1
    35    10     1   ar
    36    25    20   ar
    37    31    26   ar
    38    10     5   ar
    39    34    32    1
@<TRIPOS>MOLECULE
*****
 34 39 0 0 0
SMALL
GASTEIGER

@<TRIPOS>ATOM
      1 C          61.1698   86.8728   13.4620 C.ar    1  UNL1        0.1534
      2 N          61.5009   87.7357   12.4681 N.ar    1  UNL1       -0.1329
      3 N          62.3765   88.7217   12.6526 N.ar    1  UNL1       -0.1468
      4 C          62.9938   88.9282   13.8450 C.ar    1  UNL1        0.1029
      5 C          62.6643   88.0974   14.9411 C.ar    1  UNL1        0.0221
      6 C          63.1930   88.3078   16.2325 C.ar    1  UNL1        0.0016
      7 C          62.8287   87.4752   17.2920 C.ar    1  UNL1        0.0001
      8 C          61.9223   86.4363   17.0888 C.ar    1  UNL1        0.0001
      9 C          61.3698   86.2246   15.8253 C.ar    1  UNL1        0.0029
     10 C          61.7353   87.0452   14.7401 C.ar    1  UNL1        0.0349
     11 C          57.8348   85.5693   13.6372 C.3     1  UNL1        0.0233
     12 C          58.8985   86.1258   12.6839 C.3     1  UNL1        0.0941
     13 C          58.7278   85.5686   11.2604 C.3     1  UNL1        0.1134
     14 N          59.2105   84.1835   11.1878 N.am    1  UNL1       -0.2726
     15 C          58.5838   83.2679   10.2721 C.2     1  UNL1        0.2491
     16 O          58.1604   83.6956    9.1632 O.2     1  UNL1       -0.2699
     17 C          60.5668   83.9031   11.6777 C.3     1  UNL1        0.1152
     18 C          60.7279   84.4256   13.1046 C.3     1  UNL1        0.1137
     19 N          60.2452   85.8098   13.1817 N.pl3   1  UNL1       -0.2900
     20 C          58.4106   81.8362   10.6147 C.ar    1  UNL1        0.0536
     21 C          57.8816   80.9391    9.6686 C.ar    1  UNL1        0.0045
     22 C          57.7068   79.5901    9.9933 C.ar    1  UNL1        0.0001
     23 C          58.0495   79.1253   11.2650 C.ar    1  UNL1        0.0000
     24 C          58.5638   80.0092   12.2161 C.ar    1  UNL1        0.0001
     25 C          58.7406   81.3588   11.8965 C.ar    1  UNL1        0.0045
     26 C          63.9865   90.0205   13.9273 C.ar    1  UNL1        0.0194
     27 C          64.8693   90.1057   15.0135 C.ar    1  UNL1        0.0012
     28 C          65.8278   91.1211   15.0663 C.ar    1  UNL1       -0.0042
     29 C          65.9358   92.0627   14.0299 C.ar    1  UNL1       -0.0225
     30 C          65.0591   91.9576   12.9279 C.ar    1  UNL1       -0.0042
     31 C          64.1009   90.9410   12.8774 C.ar    1  UNL1        0.0012
     32 C          67.0028   93.1368   14.1611 C.3     1  UNL1        0.0224
     33 C          68.4334   92.6740   14.4011 C.3     1  UNL1        0.0047
     34 C          67.6418   93.3212   15.5309 C.3     1  UNL1        0.0047
@<TRIPOS>BOND
     1    11    12    1
     2    12    13    1
     3    13    14    1
     4    14    15   am
     5    15    16    2
     6    15    20    1
     7    20    21   ar
     8    21    22   ar
     9    22    23   ar
    10    23    24   ar
    11    24    25   ar
    12    14    17    1
    13    17    18    1
    14    18    19    1
    15    19     1    1
    16     1     2   ar
    17     2     3   ar
    18     3     4   ar
    19     4    26    1
    20    26    27   ar
    21    27    28   ar
    22    28    29   ar
    23    29    32    1
    24    32    33    1
    25    33    34    1
    26    29    30   ar
    27    30    31   ar
    28     4     5   ar
    29     5     6   ar
    30     6     7   ar
    31     7     8   ar
    32     8     9   ar
    33     9    10   ar
    34    19    12    1
    35    10     1   ar
    36    25    20   ar
    37    31    26   ar
    38    10     5   ar
    39    34    32    1
