@<TRIPOS>MOLECULE
*****
 37 41 0 0 0
SMALL
GASTEIGER

@<TRIPOS>ATOM
      1 C         -24.9116   -7.7910  -11.9954 C.2     1  UNL1        0.2488
      2 O         -25.6762   -8.7539  -11.7161 O.2     1  UNL1       -0.2699
      3 N         -23.6884   -7.6059  -11.2574 N.am    1  UNL1       -0.2760
      4 C         -22.4739   -7.1476  -11.9513 C.3     1  UNL1        0.0954
      5 C         -21.3944   -6.7191  -10.9492 C.3     1  UNL1        0.0399
      6 C         -21.0474   -7.8352   -9.9186 C.3     1  UNL1        0.0645
      7 C         -22.3032   -8.6907   -9.5505 C.3     1  UNL1        0.0399
      8 C         -23.6203   -7.9650   -9.8340 C.3     1  UNL1        0.0954
      9 C         -20.4835   -7.1437   -8.6266 C.3     1  UNL1        0.0477
     10 C         -19.7354   -8.1236   -7.7748 C.ar    1  UNL1        0.0220
     11 C         -19.3607   -8.0650   -6.4528 C.ar    1  UNL1        0.0923
     12 N         -18.5398   -9.1172   -6.2067 N.ar    1  UNL1       -0.2534
     13 N         -18.3541   -9.8105   -7.3269 N.ar    1  UNL1       -0.1651
     14 C         -19.0825   -9.2047   -8.2801 C.ar    1  UNL1        0.1515
     15 C         -19.1664   -9.5380   -9.6929 C.2     1  UNL1        0.2650
     16 O         -18.4909  -10.4793  -10.1860 O.2     1  UNL1       -0.2684
     17 N         -20.0307   -8.7376  -10.5146 N.am    1  UNL1       -0.3023
     18 H         -20.0617   -8.9418  -11.5394 H       1  UNL1        0.1497
     19 C         -25.1505   -5.5043  -17.7251 C.ar    1  UNL1        0.2249
     20 C         -26.0754   -4.4887  -17.4737 C.ar    1  UNL1        0.0577
     21 C         -26.5699   -4.3123  -16.1809 C.ar    1  UNL1        0.0063
     22 C         -26.1381   -5.1530  -15.1465 C.ar    1  UNL1        0.0177
     23 C         -26.6214   -4.9952  -13.8441 C.ar    1  UNL1        0.0016
     24 C         -26.1956   -5.8533  -12.8315 C.ar    1  UNL1        0.0044
     25 C         -25.2822   -6.8833  -13.1004 C.ar    1  UNL1        0.0534
     26 C         -24.7444   -7.0278  -14.4064 C.ar    1  UNL1        0.0291
     27 C         -25.1998   -6.1702  -15.4329 C.ar    1  UNL1        0.0829
     28 N         -24.7394   -6.3114  -16.7079 N.ar    1  UNL1       -0.2119
     29 C         -23.7024   -8.0803  -14.7225 C.3     1  UNL1        0.1652
     30 O         -22.6621   -7.5035  -15.4603 O.3     1  UNL1       -0.3772
     31 H         -22.0290   -8.2390  -15.6674 H       1  UNL1        0.2109
     32 C         -25.1976   -6.6356  -19.9256 C.3     1  UNL1        0.2542
     33 O         -24.6570   -5.6797  -19.0210 O.3     1  UNL1       -0.4561
     34 C         -17.8762   -9.4158   -4.9218 C.3     1  UNL1        0.0867
     35 C         -18.9393   -9.5345   -3.8145 C.3     1  UNL1        0.0244
     36 C         -17.0948  -10.7392   -5.0370 C.3     1  UNL1        0.0244
     37 C         -16.8872   -8.2908   -4.5472 C.3     1  UNL1        0.0244
@<TRIPOS>BOND
     1    32    33    1
     2    33    19    1
     3    19    20   ar
     4    20    21   ar
     5    21    22   ar
     6    22    23   ar
     7    23    24   ar
     8    24    25   ar
     9    25     1    1
    10     1     2    2
    11     1     3   am
    12     3     4    1
    13     4     5    1
    14     5     6    1
    15     6     7    1
    16     7     8    1
    17     6     9    1
    18     9    10    1
    19    10    11   ar
    20    11    12   ar
    21    12    34    1
    22    34    35    1
    23    34    36    1
    24    34    37    1
    25    12    13   ar
    26    13    14   ar
    27    14    15    1
    28    15    16    2
    29    15    17   am
    30    25    26   ar
    31    26    29    1
    32    29    30    1
    33    26    27   ar
    34    27    28   ar
    35    28    19   ar
    36    27    22   ar
    37     8     3    1
    38    14    10   ar
    39    17     6    1
    40    17    18    1
    41    30    31    1
@<TRIPOS>MOLECULE
*****
 37 41 0 0 0
SMALL
GASTEIGER

@<TRIPOS>ATOM
      1 C         -24.5893   -8.1833  -12.5612 C.2     1  UNL1        0.2488
      2 O         -25.4143   -9.0733  -12.2191 O.2     1  UNL1       -0.2699
      3 N         -23.4056   -7.9577  -11.7720 N.am    1  UNL1       -0.2760
      4 C         -22.1310   -7.6369  -12.4345 C.3     1  UNL1        0.0954
      5 C         -21.0948   -7.1319  -11.4224 C.3     1  UNL1        0.0399
      6 C         -20.8641   -8.1257  -10.2445 C.3     1  UNL1        0.0645
      7 C         -22.1791   -8.8788   -9.8598 C.3     1  UNL1        0.0399
      8 C         -23.4407   -8.1416  -10.3144 C.3     1  UNL1        0.0954
      9 C         -20.3471   -7.3037   -9.0107 C.3     1  UNL1        0.0477
     10 C         -19.6992   -8.2005   -8.0000 C.ar    1  UNL1        0.0220
     11 C         -19.4027   -7.9949   -6.6729 C.ar    1  UNL1        0.0923
     12 N         -18.6491   -9.0407   -6.2487 N.ar    1  UNL1       -0.2534
     13 N         -18.4292   -9.8733   -7.2629 N.ar    1  UNL1       -0.1651
     14 C         -19.0691   -9.3607   -8.3278 C.ar    1  UNL1        0.1515
     15 C         -19.0832   -9.8614   -9.6927 C.2     1  UNL1        0.2650
     16 O         -18.4247  -10.8824  -10.0237 O.2     1  UNL1       -0.2684
     17 N         -19.8573   -9.1343  -10.6597 N.am    1  UNL1       -0.3023
     18 H         -19.8360   -9.4615  -11.6523 H       1  UNL1        0.1497
     19 C         -27.1705   -3.9660  -16.2580 C.ar    1  UNL1        0.2249
     20 C         -26.3461   -4.1714  -17.3664 C.ar    1  UNL1        0.0577
     21 C         -25.3509   -5.1479  -17.3126 C.ar    1  UNL1        0.0063
     22 C         -25.1842   -5.9131  -16.1507 C.ar    1  UNL1        0.0177
     23 C         -24.1928   -6.8958  -16.0744 C.ar    1  UNL1        0.0016
     24 C         -24.0286   -7.6340  -14.9035 C.ar    1  UNL1        0.0044
     25 C         -24.8489   -7.4042  -13.7891 C.ar    1  UNL1        0.0534
     26 C         -25.8920   -6.4440  -13.8655 C.ar    1  UNL1        0.0291
     27 C         -26.0360   -5.6823  -15.0468 C.ar    1  UNL1        0.0829
     28 N         -26.9967   -4.7199  -15.1371 N.ar    1  UNL1       -0.2119
     29 C         -26.8453   -6.2158  -12.7111 C.3     1  UNL1        0.1652
     30 O         -26.7236   -4.8977  -12.2561 O.3     1  UNL1       -0.3772
     31 H         -27.3412   -4.8135  -11.4840 H       1  UNL1        0.2109
     32 C         -29.3861   -3.1714  -17.0224 C.3     1  UNL1        0.2542
     33 O         -28.1663   -2.9867  -16.3137 O.3     1  UNL1       -0.4561
     34 C         -18.0793   -9.2053   -4.8964 C.3     1  UNL1        0.0867
     35 C         -17.2582  -10.5066   -4.8443 C.3     1  UNL1        0.0244
     36 C         -17.1721   -8.0039   -4.5662 C.3     1  UNL1        0.0244
     37 C         -19.2023   -9.2798   -3.8395 C.3     1  UNL1        0.0244
@<TRIPOS>BOND
     1    32    33    1
     2    33    19    1
     3    19    20   ar
     4    20    21   ar
     5    21    22   ar
     6    22    23   ar
     7    23    24   ar
     8    24    25   ar
     9    25     1    1
    10     1     2    2
    11     1     3   am
    12     3     4    1
    13     4     5    1
    14     5     6    1
    15     6     7    1
    16     7     8    1
    17     6     9    1
    18     9    10    1
    19    10    11   ar
    20    11    12   ar
    21    12    34    1
    22    34    35    1
    23    34    36    1
    24    34    37    1
    25    12    13   ar
    26    13    14   ar
    27    14    15    1
    28    15    16    2
    29    15    17   am
    30    25    26   ar
    31    26    29    1
    32    29    30    1
    33    26    27   ar
    34    27    28   ar
    35    28    19   ar
    36    27    22   ar
    37     8     3    1
    38    14    10   ar
    39    17     6    1
    40    17    18    1
    41    30    31    1
@<TRIPOS>MOLECULE
*****
 37 41 0 0 0
SMALL
GASTEIGER

@<TRIPOS>ATOM
      1 C         -25.1485   -8.3089  -11.6264 C.2     1  UNL1        0.2488
      2 O         -25.8462   -9.2994  -11.2772 O.2     1  UNL1       -0.2699
      3 N         -23.8912   -8.0483  -10.9734 N.am    1  UNL1       -0.2760
      4 C         -22.7470   -7.5510  -11.7543 C.3     1  UNL1        0.0954
      5 C         -21.6279   -7.0475  -10.8340 C.3     1  UNL1        0.0399
      6 C         -21.1623   -8.1200   -9.8038 C.3     1  UNL1        0.0645
      7 C         -22.3492   -9.0241   -9.3366 C.3     1  UNL1        0.0399
      8 C         -23.7153   -8.3682   -9.5499 C.3     1  UNL1        0.0954
      9 C         -20.5514   -7.3708   -8.5665 C.3     1  UNL1        0.0477
     10 C         -19.7040   -8.2930   -7.7438 C.ar    1  UNL1        0.0220
     11 C         -19.2492   -8.1840   -6.4504 C.ar    1  UNL1        0.0923
     12 N         -18.3643   -9.1900   -6.2350 N.ar    1  UNL1       -0.2534
     13 N         -18.2169   -9.9016   -7.3495 N.ar    1  UNL1       -0.1651
     14 C         -19.0331   -9.3546   -8.2665 C.ar    1  UNL1        0.1515
     15 C         -19.1904   -9.7265   -9.6633 C.2     1  UNL1        0.2650
     16 O         -18.5029  -10.6471  -10.1785 O.2     1  UNL1       -0.2684
     17 N         -20.1431   -8.9883  -10.4446 N.am    1  UNL1       -0.3023
     18 H         -20.2294   -9.2192  -11.4605 H       1  UNL1        0.1497
     19 C         -29.0928   -4.9762  -15.0101 C.ar    1  UNL1        0.2249
     20 C         -28.1635   -4.4710  -15.9218 C.ar    1  UNL1        0.0577
     21 C         -26.8232   -4.8444  -15.8172 C.ar    1  UNL1        0.0063
     22 C         -26.4188   -5.7201  -14.8008 C.ar    1  UNL1        0.0177
     23 C         -25.0810   -6.1066  -14.6764 C.ar    1  UNL1        0.0016
     24 C         -24.6933   -6.9630  -13.6473 C.ar    1  UNL1        0.0044
     25 C         -25.6322   -7.4475  -12.7246 C.ar    1  UNL1        0.0534
     26 C         -27.0027   -7.1040  -12.8647 C.ar    1  UNL1        0.0291
     27 C         -27.3839   -6.2155  -13.8951 C.ar    1  UNL1        0.0829
     28 N         -28.6836   -5.8282  -14.0294 N.ar    1  UNL1       -0.2119
     29 C         -28.0589   -7.6624  -11.9339 C.3     1  UNL1        0.1652
     30 O         -29.1501   -8.1183  -12.6827 O.3     1  UNL1       -0.3772
     31 H         -29.8209   -8.4402  -12.0261 H       1  UNL1        0.2109
     32 C         -30.8373   -3.2991  -15.5284 C.3     1  UNL1        0.2542
     33 O         -30.4348   -4.6001  -15.1163 O.3     1  UNL1       -0.4561
     34 C         -17.6065   -9.4251   -4.9896 C.3     1  UNL1        0.0867
     35 C         -18.5917   -9.6178   -3.8223 C.3     1  UNL1        0.0244
     36 C         -16.7311  -10.6840   -5.1450 C.3     1  UNL1        0.0244
     37 C         -16.6895   -8.2229   -4.6770 C.3     1  UNL1        0.0244
@<TRIPOS>BOND
     1    32    33    1
     2    33    19    1
     3    19    20   ar
     4    20    21   ar
     5    21    22   ar
     6    22    23   ar
     7    23    24   ar
     8    24    25   ar
     9    25     1    1
    10     1     2    2
    11     1     3   am
    12     3     4    1
    13     4     5    1
    14     5     6    1
    15     6     7    1
    16     7     8    1
    17     6     9    1
    18     9    10    1
    19    10    11   ar
    20    11    12   ar
    21    12    34    1
    22    34    35    1
    23    34    36    1
    24    34    37    1
    25    12    13   ar
    26    13    14   ar
    27    14    15    1
    28    15    16    2
    29    15    17   am
    30    25    26   ar
    31    26    29    1
    32    29    30    1
    33    26    27   ar
    34    27    28   ar
    35    28    19   ar
    36    27    22   ar
    37     8     3    1
    38    14    10   ar
    39    17     6    1
    40    17    18    1
    41    30    31    1
@<TRIPOS>MOLECULE
*****
 37 41 0 0 0
SMALL
GASTEIGER

@<TRIPOS>ATOM
      1 C         -23.1598   -7.4125  -10.9069 C.2     1  UNL1        0.2488
      2 O         -22.9295   -6.4870  -10.0822 O.2     1  UNL1       -0.2699
      3 N         -24.2600   -7.2971  -11.8295 N.am    1  UNL1       -0.2760
      4 C         -24.1183   -7.7937  -13.2078 C.3     1  UNL1        0.0954
      5 C         -25.4792   -7.8627  -13.9122 C.3     1  UNL1        0.0399
      6 C         -26.2390   -6.5023  -13.8965 C.3     1  UNL1        0.0645
      7 C         -25.9666   -5.7050  -12.5794 C.3     1  UNL1        0.0399
      8 C         -25.4902   -6.5985  -11.4319 C.3     1  UNL1        0.0954
      9 C         -27.7749   -6.8033  -14.0223 C.3     1  UNL1        0.0477
     10 C         -28.5300   -5.5800  -14.4454 C.ar    1  UNL1        0.0220
     11 C         -29.8704   -5.2804  -14.3753 C.ar    1  UNL1        0.0923
     12 N         -30.0748   -4.1276  -15.0614 N.ar    1  UNL1       -0.2534
     13 N         -28.9265   -3.7126  -15.5899 N.ar    1  UNL1       -0.1651
     14 C         -27.9874   -4.5974  -15.2138 C.ar    1  UNL1        0.1515
     15 C         -26.5820   -4.6265  -15.5854 C.2     1  UNL1        0.2650
     16 O         -26.0939   -3.7737  -16.3729 O.2     1  UNL1       -0.2684
     17 N         -25.7719   -5.6800  -15.0405 N.am    1  UNL1       -0.3023
     18 H         -24.7715   -5.7345  -15.3387 H       1  UNL1        0.1497
     19 C         -18.3324  -10.9933   -9.4965 C.ar    1  UNL1        0.2249
     20 C         -18.7382  -12.1270  -10.2038 C.ar    1  UNL1        0.0577
     21 C         -19.9289  -12.0955  -10.9305 C.ar    1  UNL1        0.0063
     22 C         -20.7083  -10.9312  -10.9454 C.ar    1  UNL1        0.0177
     23 C         -21.9053  -10.8778  -11.6657 C.ar    1  UNL1        0.0016
     24 C         -22.6778   -9.7176  -11.6532 C.ar    1  UNL1        0.0044
     25 C         -22.2705   -8.5920  -10.9219 C.ar    1  UNL1        0.0534
     26 C         -21.0342   -8.6121  -10.2242 C.ar    1  UNL1        0.0291
     27 C         -20.2692   -9.8000  -10.2210 C.ar    1  UNL1        0.0829
     28 N         -19.1005   -9.8688   -9.5232 N.ar    1  UNL1       -0.2119
     29 C         -20.5231   -7.3949   -9.4820 C.3     1  UNL1        0.1652
     30 O         -21.0921   -7.3521   -8.2038 O.3     1  UNL1       -0.3772
     31 H         -20.7516   -6.5233   -7.7771 H       1  UNL1        0.2109
     32 C         -16.5309  -12.2427   -8.3486 C.3     1  UNL1        0.2542
     33 O         -17.1398  -11.0273   -8.7684 O.3     1  UNL1       -0.4561
     34 C         -31.3774   -3.4649  -15.2728 C.3     1  UNL1        0.0867
     35 C         -31.4166   -2.8573  -16.6869 C.3     1  UNL1        0.0244
     36 C         -32.5140   -4.4940  -15.1169 C.3     1  UNL1        0.0244
     37 C         -31.5876   -2.3382  -14.2382 C.3     1  UNL1        0.0244
@<TRIPOS>BOND
     1    32    33    1
     2    33    19    1
     3    19    20   ar
     4    20    21   ar
     5    21    22   ar
     6    22    23   ar
     7    23    24   ar
     8    24    25   ar
     9    25     1    1
    10     1     2    2
    11     1     3   am
    12     3     4    1
    13     4     5    1
    14     5     6    1
    15     6     7    1
    16     7     8    1
    17     6     9    1
    18     9    10    1
    19    10    11   ar
    20    11    12   ar
    21    12    34    1
    22    34    35    1
    23    34    36    1
    24    34    37    1
    25    12    13   ar
    26    13    14   ar
    27    14    15    1
    28    15    16    2
    29    15    17   am
    30    25    26   ar
    31    26    29    1
    32    29    30    1
    33    26    27   ar
    34    27    28   ar
    35    28    19   ar
    36    27    22   ar
    37     8     3    1
    38    14    10   ar
    39    17     6    1
    40    17    18    1
    41    30    31    1
@<TRIPOS>MOLECULE
*****
 37 41 0 0 0
SMALL
GASTEIGER

@<TRIPOS>ATOM
      1 C         -23.2347  -10.3236  -12.4612 C.2     1  UNL1        0.2488
      2 O         -24.0696  -11.1336  -11.9748 O.2     1  UNL1       -0.2699
      3 N         -22.2136   -9.7516  -11.6214 N.am    1  UNL1       -0.2760
      4 C         -20.8584   -9.5382  -12.1544 C.3     1  UNL1        0.0954
      5 C         -20.0319   -8.6458  -11.2196 C.3     1  UNL1        0.0399
      6 C         -19.9665   -9.1923   -9.7618 C.3     1  UNL1        0.0645
      7 C         -21.2967   -9.9053   -9.3532 C.3     1  UNL1        0.0399
      8 C         -22.4904   -9.4697  -10.2059 C.3     1  UNL1        0.0954
      9 C         -19.7019   -7.9792   -8.8006 C.3     1  UNL1        0.0477
     10 C         -19.2012   -8.4477   -7.4683 C.ar    1  UNL1        0.0220
     11 C         -19.1448   -7.8080   -6.2521 C.ar    1  UNL1        0.0923
     12 N         -18.4335   -8.5920   -5.4029 N.ar    1  UNL1       -0.2534
     13 N         -18.0100   -9.6771   -6.0456 N.ar    1  UNL1       -0.1651
     14 C         -18.4782   -9.5879   -7.3023 C.ar    1  UNL1        0.1515
     15 C         -18.2381  -10.4919   -8.4155 C.2     1  UNL1        0.2650
     16 O         -17.4921  -11.4990   -8.2936 O.2     1  UNL1       -0.2684
     17 N         -18.8639  -10.1817   -9.6706 N.am    1  UNL1       -0.3023
     18 H         -18.6598  -10.8012  -10.4875 H       1  UNL1        0.1497
     19 C         -23.8651   -6.8954  -17.5568 C.ar    1  UNL1        0.2249
     20 C         -23.5927   -7.9029  -18.4847 C.ar    1  UNL1        0.0577
     21 C         -23.3260   -9.1973  -18.0373 C.ar    1  UNL1        0.0063
     22 C         -23.3320   -9.4776  -16.6644 C.ar    1  UNL1        0.0177
     23 C         -23.0663  -10.7669  -16.1938 C.ar    1  UNL1        0.0016
     24 C         -23.0570  -11.0232  -14.8237 C.ar    1  UNL1        0.0044
     25 C         -23.3113   -9.9985  -13.9001 C.ar    1  UNL1        0.0534
     26 C         -23.6306   -8.6943  -14.3618 C.ar    1  UNL1        0.0291
     27 C         -23.6133   -8.4366  -15.7509 C.ar    1  UNL1        0.0829
     28 N         -23.8691   -7.1851  -16.2259 N.ar    1  UNL1       -0.2119
     29 C         -23.9819   -7.5774  -13.4012 C.3     1  UNL1        0.1652
     30 O         -25.1351   -6.9211  -13.8469 O.3     1  UNL1       -0.3772
     31 H         -25.2993   -6.1833  -13.2039 H       1  UNL1        0.2109
     32 C         -25.2377   -5.2899  -18.8463 C.3     1  UNL1        0.2542
     33 O         -24.1311   -5.5992  -18.0072 O.3     1  UNL1       -0.4561
     34 C         -18.0975   -8.2686   -4.0018 C.3     1  UNL1        0.0867
     35 C         -16.5687   -8.3016   -3.8237 C.3     1  UNL1        0.0244
     36 C         -18.6323   -6.8664   -3.6508 C.3     1  UNL1        0.0244
     37 C         -18.7355   -9.2942   -3.0400 C.3     1  UNL1        0.0244
@<TRIPOS>BOND
     1    32    33    1
     2    33    19    1
     3    19    20   ar
     4    20    21   ar
     5    21    22   ar
     6    22    23   ar
     7    23    24   ar
     8    24    25   ar
     9    25     1    1
    10     1     2    2
    11     1     3   am
    12     3     4    1
    13     4     5    1
    14     5     6    1
    15     6     7    1
    16     7     8    1
    17     6     9    1
    18     9    10    1
    19    10    11   ar
    20    11    12   ar
    21    12    34    1
    22    34    35    1
    23    34    36    1
    24    34    37    1
    25    12    13   ar
    26    13    14   ar
    27    14    15    1
    28    15    16    2
    29    15    17   am
    30    25    26   ar
    31    26    29    1
    32    29    30    1
    33    26    27   ar
    34    27    28   ar
    35    28    19   ar
    36    27    22   ar
    37     8     3    1
    38    14    10   ar
    39    17     6    1
    40    17    18    1
    41    30    31    1
@<TRIPOS>MOLECULE
*****
 37 41 0 0 0
SMALL
GASTEIGER

@<TRIPOS>ATOM
      1 C         -25.5897   -7.7702  -11.8312 C.2     1  UNL1        0.2488
      2 O         -26.3802   -8.2273  -10.9617 O.2     1  UNL1       -0.2699
      3 N         -24.1995   -8.1467  -11.8089 N.am    1  UNL1       -0.2760
      4 C         -23.4796   -8.3742  -13.0724 C.3     1  UNL1        0.0954
      5 C         -21.9655   -8.4514  -12.8386 C.3     1  UNL1        0.0399
      6 C         -21.5698   -9.5265  -11.7823 C.3     1  UNL1        0.0645
      7 C         -22.6443   -9.6482  -10.6531 C.3     1  UNL1        0.0399
      8 C         -23.5209   -8.3998  -10.5302 C.3     1  UNL1        0.0954
      9 C         -20.1923   -9.1072  -11.1562 C.3     1  UNL1        0.0477
     10 C         -19.5376  -10.2674  -10.4702 C.ar    1  UNL1        0.0220
     11 C         -18.5246  -10.3090   -9.5409 C.ar    1  UNL1        0.0923
     12 N         -18.1660  -11.6072   -9.3751 N.ar    1  UNL1       -0.2534
     13 N         -18.8848  -12.3766  -10.1883 N.ar    1  UNL1       -0.1651
     14 C         -19.7192  -11.5598  -10.8538 C.ar    1  UNL1        0.1515
     15 C         -20.6636  -11.9041  -11.9043 C.2     1  UNL1        0.2650
     16 O         -20.7691  -13.0843  -12.3305 O.2     1  UNL1       -0.2684
     17 N         -21.4575  -10.8431  -12.4584 N.am    1  UNL1       -0.3023
     18 H         -22.1059  -11.0743  -13.2451 H       1  UNL1        0.1497
     19 C         -29.7533   -4.8462  -15.3283 C.ar    1  UNL1        0.2249
     20 C         -28.8598   -4.0300  -16.0251 C.ar    1  UNL1        0.0577
     21 C         -27.4918   -4.1323  -15.7705 C.ar    1  UNL1        0.0063
     22 C         -27.0242   -5.0492  -14.8197 C.ar    1  UNL1        0.0177
     23 C         -25.6580   -5.1675  -14.5477 C.ar    1  UNL1        0.0016
     24 C         -25.2125   -6.0712  -13.5845 C.ar    1  UNL1        0.0044
     25 C         -26.1212   -6.8710  -12.8758 C.ar    1  UNL1        0.0534
     26 C         -27.5077   -6.7986  -13.1732 C.ar    1  UNL1        0.0291
     27 C         -27.9539   -5.8624  -14.1329 C.ar    1  UNL1        0.0829
     28 N         -29.2823   -5.7339  -14.4090 N.ar    1  UNL1       -0.2119
     29 C         -28.5142   -7.6951  -12.4829 C.3     1  UNL1        0.1652
     30 O         -29.3651   -8.2661  -13.4365 O.3     1  UNL1       -0.3772
     31 H         -30.0204   -8.8130  -12.9303 H       1  UNL1        0.2109
     32 C         -32.0217   -4.0821  -14.6998 C.3     1  UNL1        0.2542
     33 O         -31.1234   -4.7415  -15.5844 O.3     1  UNL1       -0.4561
     34 C         -17.0880  -12.1024   -8.4957 C.3     1  UNL1        0.0867
     35 C         -17.3193  -13.5948   -8.1967 C.3     1  UNL1        0.0244
     36 C         -15.7251  -11.9159   -9.1906 C.3     1  UNL1        0.0244
     37 C         -17.0726  -11.3219   -7.1635 C.3     1  UNL1        0.0244
@<TRIPOS>BOND
     1    32    33    1
     2    33    19    1
     3    19    20   ar
     4    20    21   ar
     5    21    22   ar
     6    22    23   ar
     7    23    24   ar
     8    24    25   ar
     9    25     1    1
    10     1     2    2
    11     1     3   am
    12     3     4    1
    13     4     5    1
    14     5     6    1
    15     6     7    1
    16     7     8    1
    17     6     9    1
    18     9    10    1
    19    10    11   ar
    20    11    12   ar
    21    12    34    1
    22    34    35    1
    23    34    36    1
    24    34    37    1
    25    12    13   ar
    26    13    14   ar
    27    14    15    1
    28    15    16    2
    29    15    17   am
    30    25    26   ar
    31    26    29    1
    32    29    30    1
    33    26    27   ar
    34    27    28   ar
    35    28    19   ar
    36    27    22   ar
    37     8     3    1
    38    14    10   ar
    39    17     6    1
    40    17    18    1
    41    30    31    1
@<TRIPOS>MOLECULE
*****
 37 41 0 0 0
SMALL
GASTEIGER

@<TRIPOS>ATOM
      1 C         -21.0207   -8.2423  -11.9444 C.2     1  UNL1        0.2488
      2 O         -20.4414   -8.4493  -13.0450 O.2     1  UNL1       -0.2699
      3 N         -22.3512   -7.6907  -11.9240 N.am    1  UNL1       -0.2760
      4 C         -23.3269   -8.1624  -10.9280 C.3     1  UNL1        0.0954
      5 C         -24.5516   -7.2403  -10.8755 C.3     1  UNL1        0.0399
      6 C         -25.2329   -7.0583  -12.2651 C.3     1  UNL1        0.0645
      7 C         -24.1860   -7.0696  -13.4263 C.3     1  UNL1        0.0399
      8 C         -22.7707   -6.7297  -12.9536 C.3     1  UNL1        0.0954
      9 C         -25.9947   -5.6855  -12.2556 C.3     1  UNL1        0.0477
     10 C         -27.0110   -5.6264  -13.3552 C.ar    1  UNL1        0.0220
     11 C         -27.6618   -4.5562  -13.9231 C.ar    1  UNL1        0.0923
     12 N         -28.6216   -5.0442  -14.7490 N.ar    1  UNL1       -0.2534
     13 N         -28.6248   -6.3735  -14.6939 N.ar    1  UNL1       -0.1651
     14 C         -27.6439   -6.7262  -13.8455 C.ar    1  UNL1        0.1515
     15 C         -27.2834   -8.0611  -13.3959 C.2     1  UNL1        0.2650
     16 O         -27.9264   -9.0761  -13.7725 O.2     1  UNL1       -0.2684
     17 N         -26.1797   -8.1802  -12.4844 N.am    1  UNL1       -0.3023
     18 H         -25.9432   -9.1314  -12.1211 H       1  UNL1        0.1497
     19 C         -18.9957   -7.7073   -6.1368 C.ar    1  UNL1        0.2249
     20 C         -18.4073   -8.9697   -6.0357 C.ar    1  UNL1        0.0577
     21 C         -18.4319   -9.8307   -7.1334 C.ar    1  UNL1        0.0063
     22 C         -19.0458   -9.4255   -8.3261 C.ar    1  UNL1        0.0177
     23 C         -19.0833  -10.2724   -9.4378 C.ar    1  UNL1        0.0016
     24 C         -19.7155   -9.8603  -10.6097 C.ar    1  UNL1        0.0044
     25 C         -20.3216   -8.5980  -10.6926 C.ar    1  UNL1        0.0534
     26 C         -20.2511   -7.7065   -9.5898 C.ar    1  UNL1        0.0291
     27 C         -19.6306   -8.1410   -8.3970 C.ar    1  UNL1        0.0829
     28 N         -19.5863   -7.3281   -7.3040 N.ar    1  UNL1       -0.2119
     29 C         -20.8292   -6.3086   -9.6625 C.3     1  UNL1        0.1652
     30 O         -21.6282   -6.0726   -8.5377 O.3     1  UNL1       -0.3772
     31 H         -22.0055   -5.1620   -8.6526 H       1  UNL1        0.2109
     32 C         -18.4759   -7.2436   -3.7621 C.3     1  UNL1        0.2542
     33 O         -18.9706   -6.8467   -5.0356 O.3     1  UNL1       -0.4561
     34 C         -29.5814   -4.2401  -15.5317 C.3     1  UNL1        0.0867
     35 C         -28.8134   -3.3827  -16.5542 C.3     1  UNL1        0.0244
     36 C         -30.5617   -5.1743  -16.2677 C.3     1  UNL1        0.0244
     37 C         -30.3912   -3.3077  -14.6050 C.3     1  UNL1        0.0244
@<TRIPOS>BOND
     1    32    33    1
     2    33    19    1
     3    19    20   ar
     4    20    21   ar
     5    21    22   ar
     6    22    23   ar
     7    23    24   ar
     8    24    25   ar
     9    25     1    1
    10     1     2    2
    11     1     3   am
    12     3     4    1
    13     4     5    1
    14     5     6    1
    15     6     7    1
    16     7     8    1
    17     6     9    1
    18     9    10    1
    19    10    11   ar
    20    11    12   ar
    21    12    34    1
    22    34    35    1
    23    34    36    1
    24    34    37    1
    25    12    13   ar
    26    13    14   ar
    27    14    15    1
    28    15    16    2
    29    15    17   am
    30    25    26   ar
    31    26    29    1
    32    29    30    1
    33    26    27   ar
    34    27    28   ar
    35    28    19   ar
    36    27    22   ar
    37     8     3    1
    38    14    10   ar
    39    17     6    1
    40    17    18    1
    41    30    31    1
