@<TRIPOS>MOLECULE
*****
 48 53 0 0 0
SMALL
GASTEIGER

@<TRIPOS>ATOM
      1 O           9.5946   76.1218   29.0425 O.2     1  UNL1       -0.2701
      2 C           8.5603   76.6806   28.5845 C.2     1  UNL1        0.2483
      3 N           7.7829   77.5463   29.4278 N.am    1  UNL1       -0.2945
      4 H           7.1192   78.2069   28.9663 H       1  UNL1        0.1501
      5 C           8.1899   76.4679   27.1668 C.ar    1  UNL1        0.0808
      6 C           8.4835   77.4608   26.2171 C.ar    1  UNL1        0.0080
      7 C           8.1334   77.2871   24.8759 C.ar    1  UNL1        0.0148
      8 C           7.4943   76.1112   24.4544 C.ar    1  UNL1        0.0502
      9 C           7.2102   75.1124   25.3981 C.ar    1  UNL1        0.0443
     10 C           7.5593   75.2824   26.7416 C.ar    1  UNL1        0.1457
     11 F           7.3248   74.2657   27.6083 F       1  UNL1       -0.2040
     12 N           7.1201   75.9389   23.0746 N.pl3   1  UNL1       -0.3040
     13 C           7.0076   77.0992   22.1802 C.3     1  UNL1        0.1122
     14 C           5.6297   77.1012   21.5149 C.3     1  UNL1        0.1122
     15 N           5.2917   75.7683   21.0005 N.pl3   1  UNL1       -0.3037
     16 C           6.2207   74.6421   21.1503 C.3     1  UNL1        0.1122
     17 C           6.7678   74.5966   22.5828 C.3     1  UNL1        0.1122
     18 C           4.0268   75.5692   20.3584 C.ar    1  UNL1        0.0542
     19 C           3.1717   74.5695   20.8346 C.ar    1  UNL1        0.0159
     20 C           1.9373   74.3495   20.2252 C.ar    1  UNL1        0.0135
     21 C           1.5423   75.1266   19.1332 C.ar    1  UNL1        0.0687
     22 CL         -0.0242   74.8110   18.3972 Cl      1  UNL1       -0.0813
     23 C           2.3905   76.1376   18.6448 C.ar    1  UNL1        0.0747
     24 CL          1.8822   77.1162   17.2683 Cl      1  UNL1       -0.0809
     25 C           3.6396   76.3617   19.2602 C.ar    1  UNL1        0.0547
     26 I           4.9385   77.8978   18.5598 I       1  UNL1       -0.0403
     27 C           8.1183   77.7628   30.8402 C.3     1  UNL1        0.1535
     28 C           8.8889   79.0473   31.0110 C.2     1  UNL1        0.2443
     29 O          10.1363   79.0592   30.8211 O.2     1  UNL1       -0.2730
     30 N           8.1857   80.2661   31.2988 N.am    1  UNL1       -0.2825
     31 H           7.1487   80.2719   31.1676 H       1  UNL1        0.1549
     32 C           8.8302   81.5064   31.6342 C.ar    1  UNL1        0.0535
     33 C           9.4907   82.2782   30.6633 C.ar    1  UNL1        0.0353
     34 C          10.1234   83.4654   31.0409 C.ar    1  UNL1        0.1002
     35 N          10.1110   83.8622   32.3409 N.ar    1  UNL1       -0.2422
     36 C           9.4958   83.1261   33.3038 C.ar    1  UNL1        0.1002
     37 C           8.8525   81.9321   32.9694 C.ar    1  UNL1        0.0353
     38 C           6.8569   77.7298   31.7281 C.3     1  UNL1        0.0569
     39 C           5.6330   77.2157   31.0180 C.ar    1  UNL1       -0.0017
     40 C           4.5335   77.9676   30.6125 C.ar    1  UNL1        0.0681
     41 N           3.6370   77.1860   29.9690 N.ar    1  UNL1       -0.3523
     42 C           4.1596   75.9475   29.9645 C.ar    1  UNL1        0.0563
     43 C           3.6016   74.7978   29.4068 C.ar    1  UNL1        0.0170
     44 C           4.3271   73.5971   29.5120 C.ar    1  UNL1        0.0015
     45 C           5.5785   73.5721   30.1665 C.ar    1  UNL1        0.0001
     46 C           6.1162   74.7475   30.7213 C.ar    1  UNL1        0.0012
     47 C           5.3763   75.9243   30.5972 C.ar    1  UNL1        0.0131
     48 H           2.7270   77.4886   29.5561 H       1  UNL1        0.1660
@<TRIPOS>BOND
     1     1     2    2
     2     2     3   am
     3     3    27    1
     4    27    38    1
     5    38    39    1
     6    39    40   ar
     7    40    41   ar
     8    41    42   ar
     9    42    43   ar
    10    43    44   ar
    11    44    45   ar
    12    45    46   ar
    13    46    47   ar
    14    27    28    1
    15    28    29    2
    16    28    30   am
    17    30    32    1
    18    32    33   ar
    19    33    34   ar
    20    34    35   ar
    21    35    36   ar
    22    36    37   ar
    23     2     5    1
    24     5     6   ar
    25     6     7   ar
    26     7     8   ar
    27     8    12    1
    28    12    13    1
    29    13    14    1
    30    14    15    1
    31    15    18    1
    32    18    19   ar
    33    19    20   ar
    34    20    21   ar
    35    21    22    1
    36    21    23   ar
    37    23    24    1
    38    23    25   ar
    39    25    26    1
    40    15    16    1
    41    16    17    1
    42     8     9   ar
    43     9    10   ar
    44    10    11    1
    45    47    39   ar
    46    37    32   ar
    47    10     5   ar
    48    47    42   ar
    49    17    12    1
    50    25    18   ar
    51     3     4    1
    52    41    48    1
    53    30    31    1
@<TRIPOS>MOLECULE
*****
 48 53 0 0 0
SMALL
GASTEIGER

@<TRIPOS>ATOM
      1 O           9.3271   75.5122   29.4918 O.2     1  UNL1       -0.2701
      2 C           8.5103   76.2298   28.8517 C.2     1  UNL1        0.2483
      3 N           7.9016   77.3637   29.4911 N.am    1  UNL1       -0.2945
      4 H           7.4679   78.0912   28.8809 H       1  UNL1        0.1501
      5 C           8.2267   75.9149   27.4330 C.ar    1  UNL1        0.0808
      6 C           8.7767   76.7193   26.4209 C.ar    1  UNL1        0.0080
      7 C           8.5137   76.4481   25.0760 C.ar    1  UNL1        0.0148
      8 C           7.7061   75.3590   24.7149 C.ar    1  UNL1        0.0502
      9 C           7.1648   74.5464   25.7227 C.ar    1  UNL1        0.0443
     10 C           7.4259   74.8144   27.0702 C.ar    1  UNL1        0.1457
     11 F           6.9364   73.9664   28.0088 F       1  UNL1       -0.2040
     12 N           7.4231   75.0887   23.3291 N.pl3   1  UNL1       -0.3040
     13 C           8.0196   75.9138   22.2697 C.3     1  UNL1        0.1122
     14 C           6.9158   76.4507   21.3562 C.3     1  UNL1        0.1122
     15 N           5.9742   75.3866   20.9869 N.pl3   1  UNL1       -0.3037
     16 C           6.1526   74.0152   21.4778 C.3     1  UNL1        0.1122
     17 C           6.4623   74.0289   22.9803 C.3     1  UNL1        0.1122
     18 C           4.8578   75.7043   20.1473 C.ar    1  UNL1        0.0542
     19 C           4.9772   75.5358   18.7636 C.ar    1  UNL1        0.0159
     20 C           3.9090   75.8429   17.9221 C.ar    1  UNL1        0.0135
     21 C           2.7085   76.3213   18.4534 C.ar    1  UNL1        0.0687
     22 CL          1.3892   76.6956   17.3513 Cl      1  UNL1       -0.0813
     23 C           2.5726   76.4932   19.8435 C.ar    1  UNL1        0.0747
     24 CL          1.0523   77.0938   20.5058 Cl      1  UNL1       -0.0809
     25 C           3.6521   76.1828   20.6963 C.ar    1  UNL1        0.0547
     26 I           3.4730   76.4111   22.8066 I       1  UNL1       -0.0403
     27 C           8.1529   77.6899   30.9000 C.3     1  UNL1        0.1535
     28 C           8.9077   78.9897   31.0164 C.2     1  UNL1        0.2443
     29 O          10.1423   79.0224   30.7575 O.2     1  UNL1       -0.2730
     30 N           8.1990   80.1983   31.3321 N.am    1  UNL1       -0.2825
     31 H           7.1564   80.1841   31.2585 H       1  UNL1        0.1549
     32 C           8.8378   81.4534   31.6203 C.ar    1  UNL1        0.0535
     33 C           9.4895   82.1940   30.6196 C.ar    1  UNL1        0.0353
     34 C          10.1170   83.3973   30.9519 C.ar    1  UNL1        0.1002
     35 N          10.1083   83.8398   32.2370 N.ar    1  UNL1       -0.2422
     36 C           9.5017   83.1349   33.2283 C.ar    1  UNL1        0.1002
     37 C           8.8638   81.9262   32.9395 C.ar    1  UNL1        0.0353
     38 C           6.8417   77.7147   31.7129 C.3     1  UNL1        0.0569
     39 C           5.6430   77.2358   30.9383 C.ar    1  UNL1       -0.0017
     40 C           4.6805   78.0335   30.3248 C.ar    1  UNL1        0.0681
     41 N           3.7686   77.2670   29.6848 N.ar    1  UNL1       -0.3523
     42 C           4.1457   75.9928   29.8883 C.ar    1  UNL1        0.0563
     43 C           3.5185   74.8410   29.4152 C.ar    1  UNL1        0.0170
     44 C           4.0897   73.5983   29.7450 C.ar    1  UNL1        0.0015
     45 C           5.2602   73.5354   30.5330 C.ar    1  UNL1        0.0001
     46 C           5.8705   74.7143   30.9979 C.ar    1  UNL1        0.0012
     47 C           5.2843   75.9322   30.6508 C.ar    1  UNL1        0.0131
     48 H           2.9434   77.6015   29.1395 H       1  UNL1        0.1660
@<TRIPOS>BOND
     1     1     2    2
     2     2     3   am
     3     3    27    1
     4    27    38    1
     5    38    39    1
     6    39    40   ar
     7    40    41   ar
     8    41    42   ar
     9    42    43   ar
    10    43    44   ar
    11    44    45   ar
    12    45    46   ar
    13    46    47   ar
    14    27    28    1
    15    28    29    2
    16    28    30   am
    17    30    32    1
    18    32    33   ar
    19    33    34   ar
    20    34    35   ar
    21    35    36   ar
    22    36    37   ar
    23     2     5    1
    24     5     6   ar
    25     6     7   ar
    26     7     8   ar
    27     8    12    1
    28    12    13    1
    29    13    14    1
    30    14    15    1
    31    15    18    1
    32    18    19   ar
    33    19    20   ar
    34    20    21   ar
    35    21    22    1
    36    21    23   ar
    37    23    24    1
    38    23    25   ar
    39    25    26    1
    40    15    16    1
    41    16    17    1
    42     8     9   ar
    43     9    10   ar
    44    10    11    1
    45    47    39   ar
    46    37    32   ar
    47    10     5   ar
    48    47    42   ar
    49    17    12    1
    50    25    18   ar
    51     3     4    1
    52    41    48    1
    53    30    31    1
@<TRIPOS>MOLECULE
*****
 48 53 0 0 0
SMALL
GASTEIGER

@<TRIPOS>ATOM
      1 O           9.9863   76.4901   28.9556 O.2     1  UNL1       -0.2701
      2 C           8.9444   76.9945   28.4538 C.2     1  UNL1        0.2483
      3 N           8.0363   77.7344   29.2863 N.am    1  UNL1       -0.2945
      4 H           7.3544   78.3701   28.8166 H       1  UNL1        0.1501
      5 C           8.6982   76.8519   27.0007 C.ar    1  UNL1        0.0808
      6 C           7.6783   75.9967   26.5511 C.ar    1  UNL1        0.0080
      7 C           7.4352   75.8375   25.1847 C.ar    1  UNL1        0.0148
      8 C           8.1984   76.5405   24.2400 C.ar    1  UNL1        0.0502
      9 C           9.2101   77.4045   24.6860 C.ar    1  UNL1        0.0443
     10 C           9.4563   77.5667   26.0530 C.ar    1  UNL1        0.1457
     11 F          10.3996   78.4602   26.4425 F       1  UNL1       -0.2040
     12 N           7.9575   76.3648   22.8313 N.pl3   1  UNL1       -0.3040
     13 C           8.2928   77.4305   21.8770 C.3     1  UNL1        0.1122
     14 C           7.0639   77.7632   21.0283 C.3     1  UNL1        0.1122
     15 N           6.4185   76.5405   20.5346 N.pl3   1  UNL1       -0.3037
     16 C           6.9571   75.2156   20.8635 C.3     1  UNL1        0.1122
     17 C           7.2930   75.1389   22.3584 C.3     1  UNL1        0.1122
     18 C           5.2358   76.6513   19.7339 C.ar    1  UNL1        0.0542
     19 C           5.3637   76.8373   18.3532 C.ar    1  UNL1        0.0159
     20 C           4.2300   76.9546   17.5505 C.ar    1  UNL1        0.0135
     21 C           2.9549   76.8864   18.1179 C.ar    1  UNL1        0.0687
     22 CL          1.5545   77.0404   17.0641 Cl      1  UNL1       -0.0813
     23 C           2.8105   76.6968   19.5047 C.ar    1  UNL1        0.0747
     24 CL          1.1972   76.6081   20.2118 Cl      1  UNL1       -0.0809
     25 C           3.9563   76.5778   20.3183 C.ar    1  UNL1        0.0547
     26 I           3.7735   76.2687   22.4180 I       1  UNL1       -0.0403
     27 C           8.2478   77.8785   30.7316 C.3     1  UNL1        0.1535
     28 C           8.9894   79.1557   31.0339 C.2     1  UNL1        0.2443
     29 O          10.2486   79.1821   30.9567 O.2     1  UNL1       -0.2730
     30 N           8.2533   80.3558   31.3180 N.am    1  UNL1       -0.2825
     31 H           7.2320   80.3642   31.0954 H       1  UNL1        0.1549
     32 C           8.8550   81.5803   31.7708 C.ar    1  UNL1        0.0535
     33 C           9.4754   82.4695   30.8768 C.ar    1  UNL1        0.0353
     34 C          10.0678   83.6364   31.3662 C.ar    1  UNL1        0.1002
     35 N          10.0554   83.9011   32.6993 N.ar    1  UNL1       -0.2422
     36 C           9.4790   83.0500   33.5886 C.ar    1  UNL1        0.1002
     37 C           8.8767   81.8715   33.1415 C.ar    1  UNL1        0.0353
     38 C           6.9154   77.7935   31.5050 C.3     1  UNL1        0.0569
     39 C           5.7886   77.2011   30.7014 C.ar    1  UNL1       -0.0017
     40 C           4.5831   77.8210   30.3829 C.ar    1  UNL1        0.0681
     41 N           3.8221   77.0093   29.6144 N.ar    1  UNL1       -0.3523
     42 C           4.5351   75.8824   29.4448 C.ar    1  UNL1        0.0563
     43 C           4.1669   74.7520   28.7163 C.ar    1  UNL1        0.0170
     44 C           5.0743   73.6781   28.6652 C.ar    1  UNL1        0.0015
     45 C           6.3141   73.7563   29.3373 C.ar    1  UNL1        0.0001
     46 C           6.6582   74.9090   30.0662 C.ar    1  UNL1        0.0012
     47 C           5.7404   75.9600   30.0949 C.ar    1  UNL1        0.0131
     48 H           2.8753   77.2211   29.2287 H       1  UNL1        0.1660
@<TRIPOS>BOND
     1     1     2    2
     2     2     3   am
     3     3    27    1
     4    27    38    1
     5    38    39    1
     6    39    40   ar
     7    40    41   ar
     8    41    42   ar
     9    42    43   ar
    10    43    44   ar
    11    44    45   ar
    12    45    46   ar
    13    46    47   ar
    14    27    28    1
    15    28    29    2
    16    28    30   am
    17    30    32    1
    18    32    33   ar
    19    33    34   ar
    20    34    35   ar
    21    35    36   ar
    22    36    37   ar
    23     2     5    1
    24     5     6   ar
    25     6     7   ar
    26     7     8   ar
    27     8    12    1
    28    12    13    1
    29    13    14    1
    30    14    15    1
    31    15    18    1
    32    18    19   ar
    33    19    20   ar
    34    20    21   ar
    35    21    22    1
    36    21    23   ar
    37    23    24    1
    38    23    25   ar
    39    25    26    1
    40    15    16    1
    41    16    17    1
    42     8     9   ar
    43     9    10   ar
    44    10    11    1
    45    47    39   ar
    46    37    32   ar
    47    10     5   ar
    48    47    42   ar
    49    17    12    1
    50    25    18   ar
    51     3     4    1
    52    41    48    1
    53    30    31    1
@<TRIPOS>MOLECULE
*****
 48 53 0 0 0
SMALL
GASTEIGER

@<TRIPOS>ATOM
      1 O           6.2596   73.9101   20.5729 O.2     1  UNL1       -0.2701
      2 C           5.5150   74.4546   21.4336 C.2     1  UNL1        0.2483
      3 N           4.1665   74.8117   21.0886 N.am    1  UNL1       -0.2945
      4 H           3.4954   74.9875   21.8687 H       1  UNL1        0.1501
      5 C           6.0328   74.6760   22.8030 C.ar    1  UNL1        0.0808
      6 C           6.3635   73.5716   23.6061 C.ar    1  UNL1        0.0080
      7 C           6.8431   73.7559   24.9052 C.ar    1  UNL1        0.0148
      8 C           7.0144   75.0486   25.4233 C.ar    1  UNL1        0.0502
      9 C           6.6963   76.1540   24.6198 C.ar    1  UNL1        0.0443
     10 C           6.2162   75.9738   23.3187 C.ar    1  UNL1        0.1457
     11 F           5.9825   77.0694   22.5540 F       1  UNL1       -0.2040
     12 N           7.4946   75.2378   26.7676 N.pl3   1  UNL1       -0.3040
     13 C           6.5649   75.2049   27.9049 C.3     1  UNL1        0.1122
     14 C           6.7251   76.4807   28.7343 C.3     1  UNL1        0.1122
     15 N           8.1425   76.7746   28.9795 N.pl3   1  UNL1       -0.3037
     16 C           9.1976   75.8980   28.4580 C.3     1  UNL1        0.1122
     17 C           8.9163   75.5491   26.9909 C.3     1  UNL1        0.1122
     18 C           8.4923   77.9459   29.7263 C.ar    1  UNL1        0.0542
     19 C           8.1054   78.0386   31.0676 C.ar    1  UNL1        0.0159
     20 C           8.4269   79.1695   31.8166 C.ar    1  UNL1        0.0135
     21 C           9.1396   80.2210   31.2345 C.ar    1  UNL1        0.0687
     22 CL          9.5212   81.6276   32.2199 Cl      1  UNL1       -0.0813
     23 C           9.5379   80.1408   29.8872 C.ar    1  UNL1        0.0747
     24 CL         10.4406   81.4710   29.1616 Cl      1  UNL1       -0.0809
     25 C           9.2138   78.9973   29.1280 C.ar    1  UNL1        0.0547
     26 I           9.8199   78.8342   27.0924 I       1  UNL1       -0.0403
     27 C           3.6325   74.6176   19.7353 C.3     1  UNL1        0.1535
     28 C           2.1838   74.2040   19.7915 C.2     1  UNL1        0.2443
     29 O           1.8344   73.2460   20.5347 O.2     1  UNL1       -0.2730
     30 N           1.1992   74.9609   19.0702 N.am    1  UNL1       -0.2825
     31 H           1.4790   75.8993   18.7045 H       1  UNL1        0.1549
     32 C          -0.1752   74.5642   18.9284 C.ar    1  UNL1        0.0535
     33 C          -0.5342   73.3825   18.2581 C.ar    1  UNL1        0.0353
     34 C          -1.8847   73.0498   18.1245 C.ar    1  UNL1        0.1002
     35 N          -2.8433   73.8715   18.6277 N.ar    1  UNL1       -0.2422
     36 C          -2.5256   75.0296   19.2643 C.ar    1  UNL1        0.1002
     37 C          -1.1876   75.4004   19.4183 C.ar    1  UNL1        0.0353
     38 C           3.8350   75.8762   18.8662 C.3     1  UNL1        0.0569
     39 C           4.0225   77.1376   19.6663 C.ar    1  UNL1       -0.0017
     40 C           5.0788   78.0384   19.5571 C.ar    1  UNL1        0.0681
     41 N           4.9027   79.0789   20.4027 N.ar    1  UNL1       -0.3523
     42 C           3.7456   78.8437   21.0453 C.ar    1  UNL1        0.0563
     43 C           3.1396   79.6439   22.0130 C.ar    1  UNL1        0.0170
     44 C           1.9170   79.2078   22.5557 C.ar    1  UNL1        0.0015
     45 C           1.3354   77.9948   22.1255 C.ar    1  UNL1        0.0001
     46 C           1.9704   77.2069   21.1485 C.ar    1  UNL1        0.0012
     47 C           3.1793   77.6672   20.6249 C.ar    1  UNL1        0.0131
     48 H           5.5369   79.8993   20.5247 H       1  UNL1        0.1660
@<TRIPOS>BOND
     1     1     2    2
     2     2     3   am
     3     3    27    1
     4    27    38    1
     5    38    39    1
     6    39    40   ar
     7    40    41   ar
     8    41    42   ar
     9    42    43   ar
    10    43    44   ar
    11    44    45   ar
    12    45    46   ar
    13    46    47   ar
    14    27    28    1
    15    28    29    2
    16    28    30   am
    17    30    32    1
    18    32    33   ar
    19    33    34   ar
    20    34    35   ar
    21    35    36   ar
    22    36    37   ar
    23     2     5    1
    24     5     6   ar
    25     6     7   ar
    26     7     8   ar
    27     8    12    1
    28    12    13    1
    29    13    14    1
    30    14    15    1
    31    15    18    1
    32    18    19   ar
    33    19    20   ar
    34    20    21   ar
    35    21    22    1
    36    21    23   ar
    37    23    24    1
    38    23    25   ar
    39    25    26    1
    40    15    16    1
    41    16    17    1
    42     8     9   ar
    43     9    10   ar
    44    10    11    1
    45    47    39   ar
    46    37    32   ar
    47    10     5   ar
    48    47    42   ar
    49    17    12    1
    50    25    18   ar
    51     3     4    1
    52    41    48    1
    53    30    31    1
@<TRIPOS>MOLECULE
*****
 48 53 0 0 0
SMALL
GASTEIGER

@<TRIPOS>ATOM
      1 O           9.0799   75.8971   26.7972 O.2     1  UNL1       -0.2701
      2 C           9.1117   76.4880   25.6829 C.2     1  UNL1        0.2483
      3 N           8.2279   76.0732   24.6285 N.am    1  UNL1       -0.2945
      4 H           8.0676   76.7372   23.8391 H       1  UNL1        0.1501
      5 C          10.0326   77.6324   25.4962 C.ar    1  UNL1        0.0808
      6 C           9.6916   78.8896   26.0224 C.ar    1  UNL1        0.0080
      7 C          10.5393   79.9863   25.8489 C.ar    1  UNL1        0.0148
      8 C          11.7519   79.8453   25.1569 C.ar    1  UNL1        0.0502
      9 C          12.1011   78.5884   24.6403 C.ar    1  UNL1        0.0443
     10 C          11.2553   77.4880   24.8122 C.ar    1  UNL1        0.1457
     11 F          11.6611   76.2777   24.3534 F       1  UNL1       -0.2040
     12 N          12.6184   80.9793   24.9654 N.pl3   1  UNL1       -0.3040
     13 C          14.0482   80.8910   25.2918 C.3     1  UNL1        0.1122
     14 C          14.4270   82.0264   26.2449 C.3     1  UNL1        0.1122
     15 N          13.8785   83.3072   25.7821 N.pl3   1  UNL1       -0.3037
     16 C          13.0839   83.3887   24.5510 C.3     1  UNL1        0.1122
     17 C          12.0458   82.2598   24.5175 C.3     1  UNL1        0.1122
     18 C          14.1137   84.4875   26.5590 C.ar    1  UNL1        0.0542
     19 C          14.1674   84.3851   27.9533 C.ar    1  UNL1        0.0159
     20 C          14.3886   85.5182   28.7345 C.ar    1  UNL1        0.0135
     21 C          14.5598   86.7672   28.1318 C.ar    1  UNL1        0.0687
     22 CL         14.8358   88.1681   29.1598 Cl      1  UNL1       -0.0813
     23 C          14.5112   86.8853   26.7305 C.ar    1  UNL1        0.0747
     24 CL         14.7322   88.4651   25.9780 Cl      1  UNL1       -0.0809
     25 C          14.2877   85.7400   25.9384 C.ar    1  UNL1        0.0547
     26 I          14.2296   85.8800   23.8137 I       1  UNL1       -0.0403
     27 C           7.3163   74.9330   24.7812 C.3     1  UNL1        0.1535
     28 C           5.8931   75.4083   24.9275 C.2     1  UNL1        0.2443
     29 O           5.1670   74.9378   25.8461 O.2     1  UNL1       -0.2730
     30 N           5.4028   76.4584   24.0792 N.am    1  UNL1       -0.2825
     31 H           6.1034   77.0113   23.5352 H       1  UNL1        0.1549
     32 C           4.0279   76.8747   24.0277 C.ar    1  UNL1        0.0535
     33 C           3.3125   77.1963   25.1937 C.ar    1  UNL1        0.0353
     34 C           1.9706   77.5733   25.0963 C.ar    1  UNL1        0.1002
     35 N           1.3594   77.6146   23.8830 N.ar    1  UNL1       -0.2422
     36 C           2.0216   77.2910   22.7411 C.ar    1  UNL1        0.1002
     37 C           3.3638   76.9075   22.7939 C.ar    1  UNL1        0.0353
     38 C           7.4687   73.9327   23.6164 C.3     1  UNL1        0.0569
     39 C           8.6283   74.2390   22.7065 C.ar    1  UNL1       -0.0017
     40 C           8.7287   75.3125   21.8253 C.ar    1  UNL1        0.0681
     41 N           9.9255   75.2977   21.1958 N.ar    1  UNL1       -0.3523
     42 C          10.5818   74.2249   21.6707 C.ar    1  UNL1        0.0563
     43 C          11.8629   73.7974   21.3241 C.ar    1  UNL1        0.0170
     44 C          12.3630   72.6420   21.9519 C.ar    1  UNL1        0.0015
     45 C          11.5798   71.9466   22.8994 C.ar    1  UNL1        0.0001
     46 C          10.2896   72.4003   23.2284 C.ar    1  UNL1        0.0012
     47 C           9.8222   73.5517   22.5933 C.ar    1  UNL1        0.0131
     48 H          10.2683   75.9853   20.4889 H       1  UNL1        0.1660
@<TRIPOS>BOND
     1     1     2    2
     2     2     3   am
     3     3    27    1
     4    27    38    1
     5    38    39    1
     6    39    40   ar
     7    40    41   ar
     8    41    42   ar
     9    42    43   ar
    10    43    44   ar
    11    44    45   ar
    12    45    46   ar
    13    46    47   ar
    14    27    28    1
    15    28    29    2
    16    28    30   am
    17    30    32    1
    18    32    33   ar
    19    33    34   ar
    20    34    35   ar
    21    35    36   ar
    22    36    37   ar
    23     2     5    1
    24     5     6   ar
    25     6     7   ar
    26     7     8   ar
    27     8    12    1
    28    12    13    1
    29    13    14    1
    30    14    15    1
    31    15    18    1
    32    18    19   ar
    33    19    20   ar
    34    20    21   ar
    35    21    22    1
    36    21    23   ar
    37    23    24    1
    38    23    25   ar
    39    25    26    1
    40    15    16    1
    41    16    17    1
    42     8     9   ar
    43     9    10   ar
    44    10    11    1
    45    47    39   ar
    46    37    32   ar
    47    10     5   ar
    48    47    42   ar
    49    17    12    1
    50    25    18   ar
    51     3     4    1
    52    41    48    1
    53    30    31    1
@<TRIPOS>MOLECULE
*****
 48 53 0 0 0
SMALL
GASTEIGER

@<TRIPOS>ATOM
      1 O           9.6891   75.1660   26.7600 O.2     1  UNL1       -0.2701
      2 C           9.2209   76.0703   26.0151 C.2     1  UNL1        0.2483
      3 N           7.8927   75.9406   25.4821 N.am    1  UNL1       -0.2945
      4 H           7.4282   76.8022   25.1192 H       1  UNL1        0.1501
      5 C          10.0362   77.2750   25.7386 C.ar    1  UNL1        0.0808
      6 C          11.3480   77.1289   25.2573 C.ar    1  UNL1        0.0080
      7 C          12.1397   78.2507   25.0001 C.ar    1  UNL1        0.0148
      8 C          11.6314   79.5423   25.2064 C.ar    1  UNL1        0.0502
      9 C          10.3175   79.6921   25.6757 C.ar    1  UNL1        0.0443
     10 C           9.5217   78.5715   25.9341 C.ar    1  UNL1        0.1457
     11 F           8.2368   78.7622   26.3246 F       1  UNL1       -0.2040
     12 N          12.4528   80.6980   24.9554 N.pl3   1  UNL1       -0.3040
     13 C          13.9094   80.6333   25.1365 C.3     1  UNL1        0.1122
     14 C          14.3595   81.7567   26.0727 C.3     1  UNL1        0.1122
     15 N          13.7435   83.0348   25.6953 N.pl3   1  UNL1       -0.3037
     16 C          12.8289   83.1247   24.5512 C.3     1  UNL1        0.1122
     17 C          11.8142   81.9749   24.5954 C.3     1  UNL1        0.1122
     18 C          14.0323   84.2037   26.4714 C.ar    1  UNL1        0.0542
     19 C          14.1275   84.0905   27.8626 C.ar    1  UNL1        0.0159
     20 C          14.4015   85.2126   28.6433 C.ar    1  UNL1        0.0135
     21 C          14.5844   86.4610   28.0429 C.ar    1  UNL1        0.0687
     22 CL         14.9274   87.8477   29.0700 Cl      1  UNL1       -0.0813
     23 C          14.4944   86.5898   26.6445 C.ar    1  UNL1        0.0747
     24 CL         14.7305   88.1687   25.8949 Cl      1  UNL1       -0.0809
     25 C          14.2175   85.4557   25.8532 C.ar    1  UNL1        0.0547
     26 I          14.0957   85.6114   23.7322 I       1  UNL1       -0.0403
     27 C           7.0689   74.7509   25.7274 C.3     1  UNL1        0.1535
     28 C           6.5081   74.7740   27.1266 C.2     1  UNL1        0.2443
     29 O           6.2190   73.6896   27.7035 O.2     1  UNL1       -0.2730
     30 N           6.3926   76.0229   27.8264 N.am    1  UNL1       -0.2825
     31 H           6.8986   76.8490   27.4338 H       1  UNL1        0.1549
     32 C           5.7305   76.1770   29.0930 C.ar    1  UNL1        0.0535
     33 C           4.3811   76.5603   29.1757 C.ar    1  UNL1        0.0353
     34 C           3.7865   76.7204   30.4299 C.ar    1  UNL1        0.1002
     35 N           4.5134   76.5200   31.5608 N.ar    1  UNL1       -0.2422
     36 C           5.8249   76.1668   31.5106 C.ar    1  UNL1        0.1002
     37 C           6.4584   75.9975   30.2772 C.ar    1  UNL1        0.0353
     38 C           5.9567   74.6100   24.6673 C.3     1  UNL1        0.0569
     39 C           6.4526   74.1128   23.3357 C.ar    1  UNL1       -0.0017
     40 C           7.6278   73.4034   23.1018 C.ar    1  UNL1        0.0681
     41 N           7.7354   73.0847   21.7920 N.ar    1  UNL1       -0.3523
     42 C           6.6398   73.5864   21.1963 C.ar    1  UNL1        0.0563
     43 C           6.3002   73.5039   19.8465 C.ar    1  UNL1        0.0170
     44 C           5.0940   74.0993   19.4342 C.ar    1  UNL1        0.0015
     45 C           4.2650   74.7579   20.3690 C.ar    1  UNL1        0.0001
     46 C           4.6340   74.8269   21.7245 C.ar    1  UNL1        0.0012
     47 C           5.8333   74.2231   22.1049 C.ar    1  UNL1        0.0131
     48 H           8.5115   72.5521   21.3402 H       1  UNL1        0.1660
@<TRIPOS>BOND
     1     1     2    2
     2     2     3   am
     3     3    27    1
     4    27    38    1
     5    38    39    1
     6    39    40   ar
     7    40    41   ar
     8    41    42   ar
     9    42    43   ar
    10    43    44   ar
    11    44    45   ar
    12    45    46   ar
    13    46    47   ar
    14    27    28    1
    15    28    29    2
    16    28    30   am
    17    30    32    1
    18    32    33   ar
    19    33    34   ar
    20    34    35   ar
    21    35    36   ar
    22    36    37   ar
    23     2     5    1
    24     5     6   ar
    25     6     7   ar
    26     7     8   ar
    27     8    12    1
    28    12    13    1
    29    13    14    1
    30    14    15    1
    31    15    18    1
    32    18    19   ar
    33    19    20   ar
    34    20    21   ar
    35    21    22    1
    36    21    23   ar
    37    23    24    1
    38    23    25   ar
    39    25    26    1
    40    15    16    1
    41    16    17    1
    42     8     9   ar
    43     9    10   ar
    44    10    11    1
    45    47    39   ar
    46    37    32   ar
    47    10     5   ar
    48    47    42   ar
    49    17    12    1
    50    25    18   ar
    51     3     4    1
    52    41    48    1
    53    30    31    1
@<TRIPOS>MOLECULE
*****
 48 53 0 0 0
SMALL
GASTEIGER

@<TRIPOS>ATOM
      1 O          10.9301   76.6290   23.3811 O.2     1  UNL1       -0.2701
      2 C           9.8132   76.9078   23.8973 C.2     1  UNL1        0.2483
      3 N           9.7194   77.1491   25.3108 N.am    1  UNL1       -0.2945
      4 H           8.8727   77.6473   25.6638 H       1  UNL1        0.1501
      5 C           8.6218   77.0252   23.0260 C.ar    1  UNL1        0.0808
      6 C           7.5454   76.1393   23.2002 C.ar    1  UNL1        0.0080
      7 C           6.4159   76.2239   22.3826 C.ar    1  UNL1        0.0148
      8 C           6.3338   77.2046   21.3824 C.ar    1  UNL1        0.0502
      9 C           7.4020   78.0986   21.2134 C.ar    1  UNL1        0.0443
     10 C           8.5344   78.0174   22.0301 C.ar    1  UNL1        0.1457
     11 F           9.5153   78.9413   21.8757 F       1  UNL1       -0.2040
     12 N           5.1758   77.2819   20.5301 N.pl3   1  UNL1       -0.3040
     13 C           3.9987   78.0613   20.9372 C.3     1  UNL1        0.1122
     14 C           2.7513   77.1778   20.8704 C.3     1  UNL1        0.1122
     15 N           2.7072   76.4238   19.6114 N.pl3   1  UNL1       -0.3037
     16 C           3.7673   76.5670   18.6068 C.3     1  UNL1        0.1122
     17 C           5.1443   76.5041   19.2803 C.3     1  UNL1        0.1122
     18 C           1.6175   75.5244   19.3756 C.ar    1  UNL1        0.0542
     19 C           0.5197   75.9662   18.6292 C.ar    1  UNL1        0.0159
     20 C          -0.5575   75.1145   18.3894 C.ar    1  UNL1        0.0135
     21 C          -0.5502   73.8107   18.8918 C.ar    1  UNL1        0.0687
     22 CL         -1.9328   72.7734   18.5634 Cl      1  UNL1       -0.0813
     23 C           0.5482   73.3512   19.6419 C.ar    1  UNL1        0.0747
     24 CL          0.5507   71.7028   20.2690 Cl      1  UNL1       -0.0809
     25 C           1.6390   74.2115   19.8853 C.ar    1  UNL1        0.0547
     26 I           3.3269   73.5413   20.9986 I       1  UNL1       -0.0403
     27 C          10.8807   77.0246   26.1998 C.3     1  UNL1        0.1535
     28 C          11.9953   77.9325   25.7459 C.2     1  UNL1        0.2443
     29 O          11.9050   79.1771   25.9331 O.2     1  UNL1       -0.2730
     30 N          13.1911   77.3665   25.1868 N.am    1  UNL1       -0.2825
     31 H          13.3466   76.3401   25.3092 H       1  UNL1        0.1549
     32 C          14.2406   78.1404   24.5819 C.ar    1  UNL1        0.0535
     33 C          14.9808   77.6510   23.4922 C.ar    1  UNL1        0.0353
     34 C          16.0077   78.4296   22.9521 C.ar    1  UNL1        0.1002
     35 N          16.2964   79.6452   23.4872 N.ar    1  UNL1       -0.2422
     36 C          15.6093   80.1353   24.5525 C.ar    1  UNL1        0.1002
     37 C          14.5760   79.3887   25.1237 C.ar    1  UNL1        0.0353
     38 C          10.4926   77.2860   27.6701 C.3     1  UNL1        0.0569
     39 C          10.0706   76.0457   28.4118 C.ar    1  UNL1       -0.0017
     40 C          10.8360   74.8999   28.6126 C.ar    1  UNL1        0.0681
     41 N          10.1539   73.9995   29.3560 N.ar    1  UNL1       -0.3523
     42 C           8.9650   74.5654   29.6265 C.ar    1  UNL1        0.0563
     43 C           7.9210   74.0206   30.3730 C.ar    1  UNL1        0.0170
     44 C           6.7570   74.7934   30.5377 C.ar    1  UNL1        0.0015
     45 C           6.6627   76.0776   29.9574 C.ar    1  UNL1        0.0001
     46 C           7.7315   76.6011   29.2076 C.ar    1  UNL1        0.0012
     47 C           8.8750   75.8139   29.0655 C.ar    1  UNL1        0.0131
     48 H          10.4890   73.0587   29.6606 H       1  UNL1        0.1660
@<TRIPOS>BOND
     1     1     2    2
     2     2     3   am
     3     3    27    1
     4    27    38    1
     5    38    39    1
     6    39    40   ar
     7    40    41   ar
     8    41    42   ar
     9    42    43   ar
    10    43    44   ar
    11    44    45   ar
    12    45    46   ar
    13    46    47   ar
    14    27    28    1
    15    28    29    2
    16    28    30   am
    17    30    32    1
    18    32    33   ar
    19    33    34   ar
    20    34    35   ar
    21    35    36   ar
    22    36    37   ar
    23     2     5    1
    24     5     6   ar
    25     6     7   ar
    26     7     8   ar
    27     8    12    1
    28    12    13    1
    29    13    14    1
    30    14    15    1
    31    15    18    1
    32    18    19   ar
    33    19    20   ar
    34    20    21   ar
    35    21    22    1
    36    21    23   ar
    37    23    24    1
    38    23    25   ar
    39    25    26    1
    40    15    16    1
    41    16    17    1
    42     8     9   ar
    43     9    10   ar
    44    10    11    1
    45    47    39   ar
    46    37    32   ar
    47    10     5   ar
    48    47    42   ar
    49    17    12    1
    50    25    18   ar
    51     3     4    1
    52    41    48    1
    53    30    31    1
@<TRIPOS>MOLECULE
*****
 48 53 0 0 0
SMALL
GASTEIGER

@<TRIPOS>ATOM
      1 O          13.3930   77.7651   25.0418 O.2     1  UNL1       -0.2701
      2 C          12.4189   78.5618   25.1321 C.2     1  UNL1        0.2483
      3 N          11.1059   78.0551   25.4226 N.am    1  UNL1       -0.2945
      4 H          10.3901   78.7307   25.7705 H       1  UNL1        0.1501
      5 C          12.6557   80.0154   24.9802 C.ar    1  UNL1        0.0808
      6 C          13.9455   80.5330   25.1867 C.ar    1  UNL1        0.0080
      7 C          14.1903   81.9025   25.0600 C.ar    1  UNL1        0.0148
      8 C          13.1533   82.7810   24.7113 C.ar    1  UNL1        0.0502
      9 C          11.8665   82.2660   24.4927 C.ar    1  UNL1        0.0443
     10 C          11.6174   80.8956   24.6182 C.ar    1  UNL1        0.1457
     11 F          10.3746   80.4317   24.3351 F       1  UNL1       -0.2040
     12 N          13.4028   84.1945   24.5955 N.pl3   1  UNL1       -0.3040
     13 C          12.9281   84.9437   23.4241 C.3     1  UNL1        0.1122
     14 C          14.0982   85.6993   22.7908 C.3     1  UNL1        0.1122
     15 N          14.8885   86.3975   23.8122 N.pl3   1  UNL1       -0.3037
     16 C          14.5239   86.3233   25.2318 C.3     1  UNL1        0.1122
     17 C          14.2126   84.8725   25.6213 C.3     1  UNL1        0.1122
     18 C          16.0412   87.1469   23.4098 C.ar    1  UNL1        0.0542
     19 C          17.1675   87.1609   24.2396 C.ar    1  UNL1        0.0159
     20 C          18.3009   87.8867   23.8760 C.ar    1  UNL1        0.0135
     21 C          18.3226   88.6063   22.6785 C.ar    1  UNL1        0.0687
     22 CL         19.7755   89.5074   22.2632 Cl      1  UNL1       -0.0813
     23 C          17.1982   88.5993   21.8323 C.ar    1  UNL1        0.0747
     24 CL         17.2358   89.5073   20.3208 Cl      1  UNL1       -0.0809
     25 C          16.0508   87.8655   22.1984 C.ar    1  UNL1        0.0547
     26 I          14.3397   87.8161   20.9307 I       1  UNL1       -0.0403
     27 C          10.8400   76.6185   25.5629 C.3     1  UNL1        0.1535
     28 C          10.2723   76.3152   26.9262 C.2     1  UNL1        0.2443
     29 O          10.9582   76.5552   27.9578 O.2     1  UNL1       -0.2730
     30 N           8.9217   75.8415   27.0453 N.am    1  UNL1       -0.2825
     31 H           8.3009   75.9263   26.2086 H       1  UNL1        0.1549
     32 C           8.3382   75.3755   28.2736 C.ar    1  UNL1        0.0535
     33 C           7.1787   75.9637   28.8068 C.ar    1  UNL1        0.0353
     34 C           6.6612   75.4924   30.0160 C.ar    1  UNL1        0.1002
     35 N           7.2841   74.4816   30.6775 N.ar    1  UNL1       -0.2422
     36 C           8.4170   73.9067   30.1946 C.ar    1  UNL1        0.1002
     37 C           8.9685   74.3487   28.9896 C.ar    1  UNL1        0.0353
     38 C           9.9227   76.1046   24.4337 C.3     1  UNL1        0.0569
     39 C          10.6734   75.5695   23.2435 C.ar    1  UNL1       -0.0017
     40 C          11.2994   76.3214   22.2526 C.ar    1  UNL1        0.0681
     41 N          11.9105   75.5111   21.3589 N.ar    1  UNL1       -0.3523
     42 C          11.6762   74.2547   21.7756 C.ar    1  UNL1        0.0563
     43 C          12.1127   73.0724   21.1793 C.ar    1  UNL1        0.0170
     44 C          11.7548   71.8566   21.7901 C.ar    1  UNL1        0.0015
     45 C          10.9759   71.8498   22.9683 C.ar    1  UNL1        0.0001
     46 C          10.5482   73.0584   23.5469 C.ar    1  UNL1        0.0012
     47 C          10.9226   74.2486   22.9216 C.ar    1  UNL1        0.0131
     48 H          12.4572   75.8061   20.5197 H       1  UNL1        0.1660
@<TRIPOS>BOND
     1     1     2    2
     2     2     3   am
     3     3    27    1
     4    27    38    1
     5    38    39    1
     6    39    40   ar
     7    40    41   ar
     8    41    42   ar
     9    42    43   ar
    10    43    44   ar
    11    44    45   ar
    12    45    46   ar
    13    46    47   ar
    14    27    28    1
    15    28    29    2
    16    28    30   am
    17    30    32    1
    18    32    33   ar
    19    33    34   ar
    20    34    35   ar
    21    35    36   ar
    22    36    37   ar
    23     2     5    1
    24     5     6   ar
    25     6     7   ar
    26     7     8   ar
    27     8    12    1
    28    12    13    1
    29    13    14    1
    30    14    15    1
    31    15    18    1
    32    18    19   ar
    33    19    20   ar
    34    20    21   ar
    35    21    22    1
    36    21    23   ar
    37    23    24    1
    38    23    25   ar
    39    25    26    1
    40    15    16    1
    41    16    17    1
    42     8     9   ar
    43     9    10   ar
    44    10    11    1
    45    47    39   ar
    46    37    32   ar
    47    10     5   ar
    48    47    42   ar
    49    17    12    1
    50    25    18   ar
    51     3     4    1
    52    41    48    1
    53    30    31    1
@<TRIPOS>MOLECULE
*****
 48 53 0 0 0
SMALL
GASTEIGER

@<TRIPOS>ATOM
      1 O          10.5247   79.3350   22.6979 O.2     1  UNL1       -0.2701
      2 C           9.5016   78.8218   23.2287 C.2     1  UNL1        0.2483
      3 N           9.4774   78.5774   24.6445 N.am    1  UNL1       -0.2945
      4 H           8.5482   78.4286   25.0964 H       1  UNL1        0.1501
      5 C           8.3224   78.5205   22.3855 C.ar    1  UNL1        0.0808
      6 C           7.9878   79.3828   21.3279 C.ar    1  UNL1        0.0080
      7 C           6.8732   79.1248   20.5262 C.ar    1  UNL1        0.0148
      8 C           6.0779   77.9921   20.7572 C.ar    1  UNL1        0.0502
      9 C           6.4161   77.1224   21.8051 C.ar    1  UNL1        0.0443
     10 C           7.5312   77.3770   22.6097 C.ar    1  UNL1        0.1457
     11 F           7.8596   76.4769   23.5699 F       1  UNL1       -0.2040
     12 N           4.9205   77.7347   19.9400 N.pl3   1  UNL1       -0.3040
     13 C           3.6414   78.3990   20.2254 C.3     1  UNL1        0.1122
     14 C           2.5383   77.3477   20.3649 C.3     1  UNL1        0.1122
     15 N           2.6053   76.3667   19.2747 N.pl3   1  UNL1       -0.3037
     16 C           3.6318   76.4655   18.2306 C.3     1  UNL1        0.1122
     17 C           5.0034   76.7341   18.8630 C.3     1  UNL1        0.1122
     18 C           1.6605   75.2903   19.2468 C.ar    1  UNL1        0.0542
     19 C           0.4771   75.4424   18.5162 C.ar    1  UNL1        0.0159
     20 C          -0.4630   74.4137   18.4765 C.ar    1  UNL1        0.0135
     21 C          -0.2313   73.2205   19.1656 C.ar    1  UNL1        0.0687
     22 CL         -1.4475   71.9517   19.0860 Cl      1  UNL1       -0.0813
     23 C           0.9557   73.0520   19.9024 C.ar    1  UNL1        0.0747
     24 CL          1.2416   71.5410   20.7661 Cl      1  UNL1       -0.0809
     25 C           1.9080   74.0915   19.9436 C.ar    1  UNL1        0.0547
     26 I           3.7247   73.8613   21.0316 I       1  UNL1       -0.0403
     27 C          10.6371   78.8522   25.5012 C.3     1  UNL1        0.1535
     28 C          10.1971   79.4531   26.8120 C.2     1  UNL1        0.2443
     29 O          10.2641   80.7015   26.9826 O.2     1  UNL1       -0.2730
     30 N           9.6198   78.6114   27.8225 N.am    1  UNL1       -0.2825
     31 H           9.3214   77.6496   27.5422 H       1  UNL1        0.1549
     32 C           9.3146   79.0502   29.1569 C.ar    1  UNL1        0.0535
     33 C          10.1836   79.8927   29.8709 C.ar    1  UNL1        0.0353
     34 C           9.8561   80.2741   31.1745 C.ar    1  UNL1        0.1002
     35 N           8.7117   79.8212   31.7514 N.ar    1  UNL1       -0.2422
     36 C           7.8622   78.9908   31.0910 C.ar    1  UNL1        0.1002
     37 C           8.1525   78.5841   29.7865 C.ar    1  UNL1        0.0353
     38 C          11.4928   77.5856   25.7109 C.3     1  UNL1        0.0569
     39 C          12.5799   77.4156   24.6834 C.ar    1  UNL1       -0.0017
     40 C          12.5603   76.5508   23.5921 C.ar    1  UNL1        0.0681
     41 N          13.6875   76.6898   22.8580 N.ar    1  UNL1       -0.3523
     42 C          14.4189   77.6338   23.4752 C.ar    1  UNL1        0.0563
     43 C          15.6636   78.1263   23.0854 C.ar    1  UNL1        0.0170
     44 C          16.2539   79.1257   23.8805 C.ar    1  UNL1        0.0015
     45 C          15.5954   79.6033   25.0351 C.ar    1  UNL1        0.0001
     46 C          14.3407   79.0865   25.4051 C.ar    1  UNL1        0.0012
     47 C          13.7777   78.0997   24.5947 C.ar    1  UNL1        0.0131
     48 H          13.9332   76.1709   21.9859 H       1  UNL1        0.1660
@<TRIPOS>BOND
     1     1     2    2
     2     2     3   am
     3     3    27    1
     4    27    38    1
     5    38    39    1
     6    39    40   ar
     7    40    41   ar
     8    41    42   ar
     9    42    43   ar
    10    43    44   ar
    11    44    45   ar
    12    45    46   ar
    13    46    47   ar
    14    27    28    1
    15    28    29    2
    16    28    30   am
    17    30    32    1
    18    32    33   ar
    19    33    34   ar
    20    34    35   ar
    21    35    36   ar
    22    36    37   ar
    23     2     5    1
    24     5     6   ar
    25     6     7   ar
    26     7     8   ar
    27     8    12    1
    28    12    13    1
    29    13    14    1
    30    14    15    1
    31    15    18    1
    32    18    19   ar
    33    19    20   ar
    34    20    21   ar
    35    21    22    1
    36    21    23   ar
    37    23    24    1
    38    23    25   ar
    39    25    26    1
    40    15    16    1
    41    16    17    1
    42     8     9   ar
    43     9    10   ar
    44    10    11    1
    45    47    39   ar
    46    37    32   ar
    47    10     5   ar
    48    47    42   ar
    49    17    12    1
    50    25    18   ar
    51     3     4    1
    52    41    48    1
    53    30    31    1
