@<TRIPOS>MOLECULE
*****
 47 52 0 0 0
SMALL
GASTEIGER

@<TRIPOS>ATOM
      1 C          -9.1650  -12.4249   30.0508 C.ar    1  UNL1        0.1320
      2 C          -9.6155  -13.4797   29.2388 C.ar    1  UNL1        0.0356
      3 C          -8.7606  -14.0284   28.2823 C.ar    1  UNL1        0.0191
      4 C          -7.4545  -13.5468   28.1431 C.ar    1  UNL1        0.0702
      5 C          -7.0449  -12.4793   28.9563 C.ar    1  UNL1        0.1149
      6 N          -7.8968  -11.9568   29.8772 N.ar    1  UNL1       -0.2279
      7 C         -10.0281  -10.3540   31.2523 C.3     1  UNL1        0.1318
      8 C         -10.2505  -10.0095   32.7451 C.3     1  UNL1        0.0311
      9 C          -9.5577  -11.0321   33.6742 C.3     1  UNL1        0.0475
     10 C         -10.0776  -12.4763   33.4178 C.3     1  UNL1        0.0252
     11 C         -10.7172  -12.6546   32.0309 C.3     1  UNL1        0.0926
     12 N         -10.0251  -11.8166   31.0420 N.pl3   1  UNL1       -0.2883
     13 C         -10.7640   -9.1074   29.0619 C.3     1  UNL1        0.0740
     14 C         -11.0928   -9.7011   30.4000 C.2     1  UNL1        0.1689
     15 O         -12.2429   -9.6386   30.8082 O.2     1  UNL1       -0.2943
     16 C          -8.0246  -10.9501   33.5458 C.3     1  UNL1        0.2054
     17 O          -7.5972   -9.5989   33.7059 O.3     1  UNL1       -0.4755
     18 C          -6.8154   -8.8981   32.7757 C.ar    1  UNL1        0.1388
     19 C          -6.2743   -7.6671   33.1603 C.ar    1  UNL1        0.0369
     20 C          -5.4861   -6.9322   32.2731 C.ar    1  UNL1        0.0033
     21 C          -5.2303   -7.4209   30.9903 C.ar    1  UNL1        0.0066
     22 C          -5.7634   -8.6547   30.5802 C.ar    1  UNL1        0.0785
     23 C          -6.5583   -9.3897   31.4803 C.ar    1  UNL1        0.0433
     24 C          -5.4891   -9.1695   29.2199 C.2     1  UNL1        0.3381
     25 O          -4.3964   -9.7436   28.9621 O.2     1  UNL1       -0.2451
     26 O          -6.4369   -9.0241   28.2101 O.3     1  UNL1       -0.4771
     27 H          -6.2593   -9.3726   27.2757 H       1  UNL1        0.2954
     28 N          -6.5967  -14.1058   27.1345 N.am    1  UNL1       -0.2766
     29 C          -7.0708  -14.7608   25.9448 C.2     1  UNL1        0.2839
     30 O          -8.3047  -14.9394   25.7624 O.2     1  UNL1       -0.2665
     31 H          -5.5696  -13.9748   27.2605 H       1  UNL1        0.1553
     32 C          -6.1334  -15.2598   24.9238 C.ar    1  UNL1        0.1946
     33 O          -6.2189  -14.9051   23.6537 O.2     1  UNL1       -0.4492
     34 C          -5.2590  -15.5131   23.0002 C.ar    1  UNL1        0.1452
     35 C          -4.9803  -15.4351   21.6402 C.ar    1  UNL1        0.0375
     36 C          -3.8931  -16.1771   21.1458 C.ar    1  UNL1        0.0031
     37 C          -3.1043  -16.9807   22.0134 C.ar    1  UNL1        0.0002
     38 C          -3.4217  -17.0299   23.3922 C.ar    1  UNL1        0.0028
     39 C          -4.5082  -16.2826   23.8465 C.ar    1  UNL1        0.0337
     40 C          -5.0461  -16.1231   25.1076 C.ar    1  UNL1        0.0202
     41 C          -4.5304  -16.7208   26.3815 C.3     1  UNL1        0.0345
     42 C          -1.9584  -17.7602   21.4803 C.ar    1  UNL1        0.0000
     43 C          -1.7543  -19.0955   21.8778 C.ar    1  UNL1        0.0000
     44 C          -0.6746  -19.8273   21.3741 C.ar    1  UNL1        0.0000
     45 C           0.2112  -19.2374   20.4696 C.ar    1  UNL1        0.0000
     46 C           0.0192  -17.9140   20.0670 C.ar    1  UNL1        0.0000
     47 C          -1.0584  -17.1771   20.5681 C.ar    1  UNL1        0.0000
@<TRIPOS>BOND
     1    13    14    1
     2    14    15    2
     3    14     7    1
     4     7     8    1
     5     8     9    1
     6     9    16    1
     7    16    17    1
     8    17    18    1
     9    18    19   ar
    10    19    20   ar
    11    20    21   ar
    12    21    22   ar
    13    22    24    1
    14    24    25    2
    15    24    26    1
    16    22    23   ar
    17     9    10    1
    18    10    11    1
    19    11    12    1
    20    12     1    1
    21     1     2   ar
    22     2     3   ar
    23     3     4   ar
    24     4    28    1
    25    28    29   am
    26    29    30    2
    27    29    32    1
    28    32    33   ar
    29    33    34   ar
    30    34    35   ar
    31    35    36   ar
    32    36    37   ar
    33    37    42    1
    34    42    43   ar
    35    43    44   ar
    36    44    45   ar
    37    45    46   ar
    38    46    47   ar
    39    37    38   ar
    40    38    39   ar
    41    39    40   ar
    42    40    41    1
    43     4     5   ar
    44     5     6   ar
    45    12     7    1
    46     6     1   ar
    47    23    18   ar
    48    40    32   ar
    49    39    34   ar
    50    47    42   ar
    51    26    27    1
    52    28    31    1
@<TRIPOS>MOLECULE
*****
 47 52 0 0 0
SMALL
GASTEIGER

@<TRIPOS>ATOM
      1 C          -9.2375  -12.3562   30.4910 C.ar    1  UNL1        0.1320
      2 C          -7.9482  -11.8293   30.3038 C.ar    1  UNL1        0.0356
      3 C          -7.1405  -12.3275   29.2809 C.ar    1  UNL1        0.0191
      4 C          -7.6158  -13.3325   28.4316 C.ar    1  UNL1        0.0702
      5 C          -8.9000  -13.8496   28.6602 C.ar    1  UNL1        0.1149
      6 N          -9.6667  -13.3530   29.6664 N.ar    1  UNL1       -0.2279
      7 C         -11.5667  -11.8418   31.3783 C.3     1  UNL1        0.1318
      8 C         -12.1782  -10.6204   32.1068 C.3     1  UNL1        0.0311
      9 C         -11.2492   -9.3877   32.0285 C.3     1  UNL1        0.0475
     10 C          -9.8545   -9.6867   32.6508 C.3     1  UNL1        0.0252
     11 C          -9.5256  -11.1875   32.7122 C.3     1  UNL1        0.0926
     12 N         -10.0997  -11.8802   31.5503 N.pl3   1  UNL1       -0.2883
     13 C         -13.5654  -13.1328   32.4885 C.3     1  UNL1        0.0740
     14 C         -12.1907  -13.1216   31.8875 C.2     1  UNL1        0.1689
     15 O         -11.5639  -14.1688   31.8253 O.2     1  UNL1       -0.2943
     16 C         -11.1262   -8.8755   30.5807 C.3     1  UNL1        0.2054
     17 O         -10.6211   -7.5418   30.5804 O.3     1  UNL1       -0.4755
     18 C          -9.2778   -7.2017   30.3634 C.ar    1  UNL1        0.1388
     19 C          -8.8679   -5.8992   30.6657 C.ar    1  UNL1        0.0369
     20 C          -7.5411   -5.5115   30.4715 C.ar    1  UNL1        0.0033
     21 C          -6.6087   -6.4234   29.9723 C.ar    1  UNL1        0.0066
     22 C          -6.9964   -7.7375   29.6602 C.ar    1  UNL1        0.0785
     23 C          -8.3366   -8.1208   29.8578 C.ar    1  UNL1        0.0433
     24 C          -6.0049   -8.7012   29.1321 C.2     1  UNL1        0.3381
     25 O          -5.0298   -9.0688   29.8421 O.2     1  UNL1       -0.2451
     26 O          -6.1395   -9.2115   27.8435 O.3     1  UNL1       -0.4771
     27 H          -5.4666   -9.8714   27.4721 H       1  UNL1        0.2954
     28 N          -6.7603  -13.8522   27.4005 N.am    1  UNL1       -0.2766
     29 C          -7.2050  -14.7254   26.3473 C.2     1  UNL1        0.2839
     30 O          -8.3939  -15.1420   26.3221 O.2     1  UNL1       -0.2665
     31 H          -5.7696  -13.5259   27.3977 H       1  UNL1        0.1553
     32 C          -6.2841  -15.1739   25.2885 C.ar    1  UNL1        0.1946
     33 O          -6.3590  -14.7208   24.0494 O.2     1  UNL1       -0.4492
     34 C          -5.4189  -15.3067   23.3487 C.ar    1  UNL1        0.1452
     35 C          -5.1385  -15.1338   21.9978 C.ar    1  UNL1        0.0375
     36 C          -4.0752  -15.8694   21.4452 C.ar    1  UNL1        0.0031
     37 C          -3.3117  -16.7611   22.2468 C.ar    1  UNL1        0.0002
     38 C          -3.6299  -16.9056   23.6186 C.ar    1  UNL1        0.0028
     39 C          -4.6922  -16.1616   24.1317 C.ar    1  UNL1        0.0337
     40 C          -5.2243  -16.0822   25.4028 C.ar    1  UNL1        0.0202
     41 C          -4.7271  -16.7913   26.6259 C.3     1  UNL1        0.0345
     42 C          -2.1910  -17.5330   21.6525 C.ar    1  UNL1        0.0000
     43 C          -1.2391  -16.8969   20.8328 C.ar    1  UNL1        0.0000
     44 C          -0.1848  -17.6261   20.2746 C.ar    1  UNL1        0.0000
     45 C          -0.0674  -18.9945   20.5277 C.ar    1  UNL1        0.0000
     46 C          -1.0047  -19.6370   21.3397 C.ar    1  UNL1        0.0000
     47 C          -2.0616  -18.9130   21.8999 C.ar    1  UNL1        0.0000
@<TRIPOS>BOND
     1    13    14    1
     2    14    15    2
     3    14     7    1
     4     7     8    1
     5     8     9    1
     6     9    16    1
     7    16    17    1
     8    17    18    1
     9    18    19   ar
    10    19    20   ar
    11    20    21   ar
    12    21    22   ar
    13    22    24    1
    14    24    25    2
    15    24    26    1
    16    22    23   ar
    17     9    10    1
    18    10    11    1
    19    11    12    1
    20    12     1    1
    21     1     2   ar
    22     2     3   ar
    23     3     4   ar
    24     4    28    1
    25    28    29   am
    26    29    30    2
    27    29    32    1
    28    32    33   ar
    29    33    34   ar
    30    34    35   ar
    31    35    36   ar
    32    36    37   ar
    33    37    42    1
    34    42    43   ar
    35    43    44   ar
    36    44    45   ar
    37    45    46   ar
    38    46    47   ar
    39    37    38   ar
    40    38    39   ar
    41    39    40   ar
    42    40    41    1
    43     4     5   ar
    44     5     6   ar
    45    12     7    1
    46     6     1   ar
    47    23    18   ar
    48    40    32   ar
    49    39    34   ar
    50    47    42   ar
    51    26    27    1
    52    28    31    1
@<TRIPOS>MOLECULE
*****
 47 52 0 0 0
SMALL
GASTEIGER

@<TRIPOS>ATOM
      1 C          -9.4364  -12.2680   30.9561 C.ar    1  UNL1        0.1320
      2 C          -8.1482  -11.7352   30.7778 C.ar    1  UNL1        0.0356
      3 C          -7.3645  -12.1673   29.7072 C.ar    1  UNL1        0.0191
      4 C          -7.8628  -13.1110   28.8027 C.ar    1  UNL1        0.0702
      5 C          -9.1449  -13.6366   29.0227 C.ar    1  UNL1        0.1149
      6 N          -9.8881  -13.2053   30.0756 N.ar    1  UNL1       -0.2279
      7 C         -11.7076  -12.2156   32.1031 C.3     1  UNL1        0.1318
      8 C         -12.5402  -11.0855   32.7559 C.3     1  UNL1        0.0311
      9 C         -11.9884   -9.6888   32.3905 C.3     1  UNL1        0.0475
     10 C         -10.5054   -9.5295   32.8348 C.3     1  UNL1        0.0252
     11 C          -9.7831  -10.8723   33.0333 C.3     1  UNL1        0.0926
     12 N         -10.2740  -11.8603   32.0626 N.pl3   1  UNL1       -0.2883
     13 C         -12.5272  -14.7085   32.1897 C.3     1  UNL1        0.0740
     14 C         -11.9080  -13.5135   32.8527 C.2     1  UNL1        0.1689
     15 O         -11.5754  -13.5942   34.0258 O.2     1  UNL1       -0.2943
     16 C         -12.1648   -9.3971   30.8881 C.3     1  UNL1        0.2054
     17 O         -10.9199   -8.9881   30.3251 O.3     1  UNL1       -0.4755
     18 C         -10.4780   -7.6586   30.2570 C.ar    1  UNL1        0.1388
     19 C         -11.4388   -6.6449   30.1848 C.ar    1  UNL1        0.0369
     20 C         -11.0513   -5.3055   30.1192 C.ar    1  UNL1        0.0033
     21 C          -9.6970   -4.9650   30.1251 C.ar    1  UNL1        0.0066
     22 C          -8.7128   -5.9655   30.1962 C.ar    1  UNL1        0.0785
     23 C          -9.1115   -7.3142   30.2610 C.ar    1  UNL1        0.0433
     24 C          -7.2785   -5.6003   30.2032 C.2     1  UNL1        0.3381
     25 O          -6.3910   -6.4942   30.1461 O.2     1  UNL1       -0.2451
     26 O          -6.8949   -4.2634   30.2733 O.3     1  UNL1       -0.4771
     27 H          -5.9162   -4.0024   30.2789 H       1  UNL1        0.2954
     28 N          -7.0315  -13.5641   27.7214 N.am    1  UNL1       -0.2766
     29 C          -7.1982  -14.8250   27.0494 C.2     1  UNL1        0.2839
     30 O          -8.0702  -15.6465   27.4397 O.2     1  UNL1       -0.2665
     31 H          -6.2992  -12.9050   27.3786 H       1  UNL1        0.1553
     32 C          -6.3446  -15.2001   25.9088 C.ar    1  UNL1        0.1946
     33 O          -6.4523  -14.6205   24.7261 O.2     1  UNL1       -0.4492
     34 C          -5.5704  -15.1694   23.9267 C.ar    1  UNL1        0.1452
     35 C          -5.3408  -14.8713   22.5881 C.ar    1  UNL1        0.0375
     36 C          -4.3363  -15.5890   21.9152 C.ar    1  UNL1        0.0031
     37 C          -3.5796  -16.5876   22.5867 C.ar    1  UNL1        0.0002
     38 C          -3.8447  -16.8580   23.9508 C.ar    1  UNL1        0.0028
     39 C          -4.8497  -16.1280   24.5852 C.ar    1  UNL1        0.0337
     40 C          -5.3226  -16.1571   25.8816 C.ar    1  UNL1        0.0202
     41 C          -4.8055  -17.0063   27.0029 C.3     1  UNL1        0.0345
     42 C          -2.5211  -17.3394   21.8660 C.ar    1  UNL1        0.0000
     43 C          -1.5863  -16.6632   21.0589 C.ar    1  UNL1        0.0000
     44 C          -0.5906  -17.3736   20.3814 C.ar    1  UNL1        0.0000
     45 C          -0.5154  -18.7629   20.5018 C.ar    1  UNL1        0.0000
     46 C          -1.4362  -19.4452   21.3000 C.ar    1  UNL1        0.0000
     47 C          -2.4347  -18.7401   21.9790 C.ar    1  UNL1        0.0000
@<TRIPOS>BOND
     1    13    14    1
     2    14    15    2
     3    14     7    1
     4     7     8    1
     5     8     9    1
     6     9    16    1
     7    16    17    1
     8    17    18    1
     9    18    19   ar
    10    19    20   ar
    11    20    21   ar
    12    21    22   ar
    13    22    24    1
    14    24    25    2
    15    24    26    1
    16    22    23   ar
    17     9    10    1
    18    10    11    1
    19    11    12    1
    20    12     1    1
    21     1     2   ar
    22     2     3   ar
    23     3     4   ar
    24     4    28    1
    25    28    29   am
    26    29    30    2
    27    29    32    1
    28    32    33   ar
    29    33    34   ar
    30    34    35   ar
    31    35    36   ar
    32    36    37   ar
    33    37    42    1
    34    42    43   ar
    35    43    44   ar
    36    44    45   ar
    37    45    46   ar
    38    46    47   ar
    39    37    38   ar
    40    38    39   ar
    41    39    40   ar
    42    40    41    1
    43     4     5   ar
    44     5     6   ar
    45    12     7    1
    46     6     1   ar
    47    23    18   ar
    48    40    32   ar
    49    39    34   ar
    50    47    42   ar
    51    26    27    1
    52    28    31    1
@<TRIPOS>MOLECULE
*****
 47 52 0 0 0
SMALL
GASTEIGER

@<TRIPOS>ATOM
      1 C          -5.8943   -9.7556   30.5863 C.ar    1  UNL1        0.1320
      2 C          -5.0539   -9.4672   29.4975 C.ar    1  UNL1        0.0356
      3 C          -4.9693  -10.3660   28.4336 C.ar    1  UNL1        0.0191
      4 C          -5.7308  -11.5395   28.4381 C.ar    1  UNL1        0.0702
      5 C          -6.5436  -11.8053   29.5505 C.ar    1  UNL1        0.1149
      6 N          -6.6057  -10.9182   30.5781 N.ar    1  UNL1       -0.2279
      7 C          -7.3028   -8.3066   32.1335 C.3     1  UNL1        0.1318
      8 C          -7.1482   -6.8607   32.6646 C.3     1  UNL1        0.0311
      9 C          -6.0701   -6.0789   31.8803 C.3     1  UNL1        0.0475
     10 C          -4.6855   -6.7850   31.9598 C.3     1  UNL1        0.0252
     11 C          -4.7845   -8.2789   32.3099 C.3     1  UNL1        0.0926
     12 N          -5.9973   -8.8593   31.7169 N.pl3   1  UNL1       -0.2883
     13 C          -9.0230  -10.1602   32.8398 C.3     1  UNL1        0.0740
     14 C          -7.9356   -9.1868   33.1877 C.2     1  UNL1        0.1689
     15 O          -7.5701   -9.0991   34.3505 O.2     1  UNL1       -0.2943
     16 C          -6.5046   -5.8452   30.4207 C.3     1  UNL1        0.2054
     17 O          -7.7721   -5.1923   30.3918 O.3     1  UNL1       -0.4755
     18 C          -9.0040   -5.8545   30.2848 C.ar    1  UNL1        0.1388
     19 C         -10.1312   -5.2505   30.8509 C.ar    1  UNL1        0.0369
     20 C         -11.3811   -5.8666   30.7684 C.ar    1  UNL1        0.0033
     21 C         -11.5173   -7.0948   30.1180 C.ar    1  UNL1        0.0066
     22 C         -10.3994   -7.7219   29.5420 C.ar    1  UNL1        0.0785
     23 C          -9.1420   -7.0949   29.6303 C.ar    1  UNL1        0.0433
     24 C         -10.5483   -9.0233   28.8528 C.2     1  UNL1        0.3381
     25 O         -10.6467  -10.0907   29.5168 O.2     1  UNL1       -0.2451
     26 O         -10.5806   -9.0812   27.4618 O.3     1  UNL1       -0.4771
     27 H         -10.6819   -9.9665   26.9800 H       1  UNL1        0.2954
     28 N          -5.6108  -12.4665   27.3465 N.am    1  UNL1       -0.2766
     29 C          -6.2440  -13.7576   27.3111 C.2     1  UNL1        0.2839
     30 O          -6.9003  -14.1746   28.3025 O.2     1  UNL1       -0.2665
     31 H          -5.0709  -12.1487   26.5124 H       1  UNL1        0.1553
     32 C          -6.1247  -14.6336   26.1327 C.ar    1  UNL1        0.1946
     33 O          -5.0271  -14.6832   25.3984 O.2     1  UNL1       -0.4492
     34 C          -5.2297  -15.5414   24.4286 C.ar    1  UNL1        0.1452
     35 C          -4.3451  -15.8997   23.4174 C.ar    1  UNL1        0.0375
     36 C          -4.7727  -16.8489   22.4723 C.ar    1  UNL1        0.0031
     37 C          -6.0705  -17.4234   22.5521 C.ar    1  UNL1        0.0002
     38 C          -6.9389  -17.0318   23.5992 C.ar    1  UNL1        0.0028
     39 C          -6.4816  -16.0864   24.5172 C.ar    1  UNL1        0.0337
     40 C          -7.0796  -15.5246   25.6271 C.ar    1  UNL1        0.0202
     41 C          -8.4372  -15.8499   26.1719 C.3     1  UNL1        0.0345
     42 C          -6.5115  -18.4249   21.5483 C.ar    1  UNL1        0.0000
     43 C          -5.6492  -19.4628   21.1462 C.ar    1  UNL1        0.0000
     44 C          -6.0670  -20.4046   20.2009 C.ar    1  UNL1        0.0000
     45 C          -7.3470  -20.3227   19.6481 C.ar    1  UNL1        0.0000
     46 C          -8.2120  -19.2984   20.0393 C.ar    1  UNL1        0.0000
     47 C          -7.7991  -18.3533   20.9835 C.ar    1  UNL1        0.0000
@<TRIPOS>BOND
     1    13    14    1
     2    14    15    2
     3    14     7    1
     4     7     8    1
     5     8     9    1
     6     9    16    1
     7    16    17    1
     8    17    18    1
     9    18    19   ar
    10    19    20   ar
    11    20    21   ar
    12    21    22   ar
    13    22    24    1
    14    24    25    2
    15    24    26    1
    16    22    23   ar
    17     9    10    1
    18    10    11    1
    19    11    12    1
    20    12     1    1
    21     1     2   ar
    22     2     3   ar
    23     3     4   ar
    24     4    28    1
    25    28    29   am
    26    29    30    2
    27    29    32    1
    28    32    33   ar
    29    33    34   ar
    30    34    35   ar
    31    35    36   ar
    32    36    37   ar
    33    37    42    1
    34    42    43   ar
    35    43    44   ar
    36    44    45   ar
    37    45    46   ar
    38    46    47   ar
    39    37    38   ar
    40    38    39   ar
    41    39    40   ar
    42    40    41    1
    43     4     5   ar
    44     5     6   ar
    45    12     7    1
    46     6     1   ar
    47    23    18   ar
    48    40    32   ar
    49    39    34   ar
    50    47    42   ar
    51    26    27    1
    52    28    31    1
@<TRIPOS>MOLECULE
*****
 47 52 0 0 0
SMALL
GASTEIGER

@<TRIPOS>ATOM
      1 C          -3.6478  -17.1965   22.6462 C.ar    1  UNL1        0.1320
      2 C          -4.2197  -15.9774   22.2442 C.ar    1  UNL1        0.0356
      3 C          -4.9550  -15.2243   23.1602 C.ar    1  UNL1        0.0191
      4 C          -5.1072  -15.6676   24.4783 C.ar    1  UNL1        0.0702
      5 C          -4.5400  -16.8991   24.8397 C.ar    1  UNL1        0.1149
      6 N          -3.8330  -17.6184   23.9289 N.ar    1  UNL1       -0.2279
      7 C          -2.4739  -17.4906   20.4074 C.3     1  UNL1        0.1318
      8 C          -2.5060  -18.6029   19.3311 C.3     1  UNL1        0.0311
      9 C          -3.6838  -19.5780   19.5560 C.3     1  UNL1        0.0475
     10 C          -3.6063  -20.2493   20.9579 C.3     1  UNL1        0.0252
     11 C          -2.7534  -19.4586   21.9637 C.3     1  UNL1        0.0926
     12 N          -2.8935  -18.0157   21.7232 N.pl3   1  UNL1       -0.2883
     13 C           0.0756  -17.5041   19.7799 C.3     1  UNL1        0.0740
     14 C          -1.0897  -16.8886   20.4971 C.2     1  UNL1        0.1689
     15 O          -0.9053  -15.8900   21.1768 O.2     1  UNL1       -0.2943
     16 C          -5.0371  -18.8747   19.3380 C.3     1  UNL1        0.2054
     17 O          -6.0574  -19.5509   20.0699 O.3     1  UNL1       -0.4755
     18 C          -7.2251  -18.9415   20.5521 C.ar    1  UNL1        0.1388
     19 C          -8.4513  -19.3388   20.0095 C.ar    1  UNL1        0.0369
     20 C          -9.6427  -18.7660   20.4576 C.ar    1  UNL1        0.0033
     21 C          -9.6206  -17.7884   21.4545 C.ar    1  UNL1        0.0066
     22 C          -8.4011  -17.3718   22.0148 C.ar    1  UNL1        0.0785
     23 C          -7.2036  -17.9534   21.5568 C.ar    1  UNL1        0.0433
     24 C          -8.3822  -16.3359   23.0718 C.2     1  UNL1        0.3381
     25 O          -8.2154  -16.6580   24.2795 O.2     1  UNL1       -0.2451
     26 O          -8.5491  -14.9934   22.7419 O.3     1  UNL1       -0.4771
     27 H          -8.5381  -14.2764   23.4574 H       1  UNL1        0.2954
     28 N          -5.8902  -14.8922   25.4009 N.am    1  UNL1       -0.2766
     29 C          -6.1384  -15.2719   26.7660 C.2     1  UNL1        0.2839
     30 O          -5.7210  -16.3754   27.2082 O.2     1  UNL1       -0.2665
     31 H          -6.2507  -13.9742   25.0612 H       1  UNL1        0.1553
     32 C          -6.9029  -14.3988   27.6735 C.ar    1  UNL1        0.1946
     33 O          -6.3734  -13.3243   28.2315 O.2     1  UNL1       -0.4492
     34 C          -7.2914  -12.7665   28.9826 C.ar    1  UNL1        0.1452
     35 C          -7.1673  -11.6197   29.7590 C.ar    1  UNL1        0.0375
     36 C          -8.2891  -11.1948   30.4925 C.ar    1  UNL1        0.0031
     37 C          -9.5118  -11.9179   30.4385 C.ar    1  UNL1        0.0002
     38 C          -9.5954  -13.0794   29.6336 C.ar    1  UNL1        0.0028
     39 C          -8.4621  -13.4720   28.9217 C.ar    1  UNL1        0.0337
     40 C          -8.2414  -14.5305   28.0637 C.ar    1  UNL1        0.0202
     41 C          -9.2464  -15.5540   27.6299 C.3     1  UNL1        0.0345
     42 C         -10.6902  -11.4599   31.2175 C.ar    1  UNL1        0.0000
     43 C         -11.7936  -12.3123   31.4137 C.ar    1  UNL1        0.0000
     44 C         -12.9019  -11.8786   32.1477 C.ar    1  UNL1        0.0000
     45 C         -12.9217  -10.5934   32.6939 C.ar    1  UNL1        0.0000
     46 C         -11.8331   -9.7387   32.5070 C.ar    1  UNL1        0.0000
     47 C         -10.7225  -10.1667   31.7731 C.ar    1  UNL1        0.0000
@<TRIPOS>BOND
     1    13    14    1
     2    14    15    2
     3    14     7    1
     4     7     8    1
     5     8     9    1
     6     9    16    1
     7    16    17    1
     8    17    18    1
     9    18    19   ar
    10    19    20   ar
    11    20    21   ar
    12    21    22   ar
    13    22    24    1
    14    24    25    2
    15    24    26    1
    16    22    23   ar
    17     9    10    1
    18    10    11    1
    19    11    12    1
    20    12     1    1
    21     1     2   ar
    22     2     3   ar
    23     3     4   ar
    24     4    28    1
    25    28    29   am
    26    29    30    2
    27    29    32    1
    28    32    33   ar
    29    33    34   ar
    30    34    35   ar
    31    35    36   ar
    32    36    37   ar
    33    37    42    1
    34    42    43   ar
    35    43    44   ar
    36    44    45   ar
    37    45    46   ar
    38    46    47   ar
    39    37    38   ar
    40    38    39   ar
    41    39    40   ar
    42    40    41    1
    43     4     5   ar
    44     5     6   ar
    45    12     7    1
    46     6     1   ar
    47    23    18   ar
    48    40    32   ar
    49    39    34   ar
    50    47    42   ar
    51    26    27    1
    52    28    31    1
@<TRIPOS>MOLECULE
*****
 47 52 0 0 0
SMALL
GASTEIGER

@<TRIPOS>ATOM
      1 C          -8.7840  -18.1600   22.7964 C.ar    1  UNL1        0.1320
      2 C          -9.4727  -18.3187   24.0111 C.ar    1  UNL1        0.0356
      3 C          -9.4420  -17.2970   24.9609 C.ar    1  UNL1        0.0191
      4 C          -8.7468  -16.1113   24.7005 C.ar    1  UNL1        0.0702
      5 C          -8.0536  -15.9951   23.4861 C.ar    1  UNL1        0.1149
      6 N          -8.0928  -17.0057   22.5784 N.ar    1  UNL1       -0.2279
      7 C          -8.0102  -19.0446   20.5391 C.3     1  UNL1        0.1318
      8 C          -8.7469  -19.7127   19.3527 C.3     1  UNL1        0.0311
      9 C         -10.2798  -19.5570   19.4747 C.3     1  UNL1        0.0475
     10 C         -10.8106  -20.1786   20.7990 C.3     1  UNL1        0.0252
     11 C          -9.7278  -20.3176   21.8818 C.3     1  UNL1        0.0926
     12 N          -8.7759  -19.2017   21.7930 N.pl3   1  UNL1       -0.2883
     13 C          -5.4132  -18.7491   20.7880 C.3     1  UNL1        0.0740
     14 C          -6.6242  -19.6296   20.6911 C.2     1  UNL1        0.1689
     15 O          -6.4775  -20.8424   20.7215 O.2     1  UNL1       -0.2943
     16 C         -10.7017  -18.0822   19.3314 C.3     1  UNL1        0.2054
     17 O         -11.9902  -17.8889   19.9115 O.3     1  UNL1       -0.4755
     18 C         -12.2126  -17.3807   21.1997 C.ar    1  UNL1        0.1388
     19 C         -11.6428  -16.1474   21.5320 C.ar    1  UNL1        0.0369
     20 C         -11.8374  -15.5962   22.7995 C.ar    1  UNL1        0.0033
     21 C         -12.6049  -16.2731   23.7497 C.ar    1  UNL1        0.0066
     22 C         -13.1871  -17.5140   23.4400 C.ar    1  UNL1        0.0785
     23 C         -12.9855  -18.0641   22.1598 C.ar    1  UNL1        0.0433
     24 C         -14.0006  -18.2278   24.4497 C.2     1  UNL1        0.3381
     25 O         -15.2130  -18.4907   24.2240 O.2     1  UNL1       -0.2451
     26 O         -13.4336  -18.6161   25.6609 O.3     1  UNL1       -0.4771
     27 H         -13.9814  -19.1049   26.3589 H       1  UNL1        0.2954
     28 N          -8.7038  -15.0806   25.7011 N.am    1  UNL1       -0.2766
     29 C          -8.4066  -15.3154   27.0888 C.2     1  UNL1        0.2839
     30 O          -8.2315  -16.4880   27.5151 O.2     1  UNL1       -0.2665
     31 H          -8.8473  -14.0995   25.3771 H       1  UNL1        0.1553
     32 C          -8.3225  -14.2019   28.0498 C.ar    1  UNL1        0.1946
     33 O          -9.3541  -13.8240   28.7842 O.2     1  UNL1       -0.4492
     34 C          -8.9709  -12.8150   29.5280 C.ar    1  UNL1        0.1452
     35 C          -9.7352  -12.1014   30.4445 C.ar    1  UNL1        0.0375
     36 C          -9.1174  -11.0470   31.1399 C.ar    1  UNL1        0.0031
     37 C          -7.7521  -10.7240   30.9109 C.ar    1  UNL1        0.0002
     38 C          -7.0098  -11.4777   29.9702 C.ar    1  UNL1        0.0028
     39 C          -7.6561  -12.5148   29.2978 C.ar    1  UNL1        0.0337
     40 C          -7.2054  -13.4129   28.3515 C.ar    1  UNL1        0.0202
     41 C          -5.8098  -13.5230   27.8167 C.3     1  UNL1        0.0345
     42 C          -7.1100   -9.6083   31.6510 C.ar    1  UNL1        0.0000
     43 C          -7.8657   -8.7957   32.5177 C.ar    1  UNL1        0.0000
     44 C          -7.2584   -7.7458   33.2135 C.ar    1  UNL1        0.0000
     45 C          -5.8937   -7.4957   33.0540 C.ar    1  UNL1        0.0000
     46 C          -5.1330   -8.2951   32.1978 C.ar    1  UNL1        0.0000
     47 C          -5.7351   -9.3458   31.4988 C.ar    1  UNL1        0.0000
@<TRIPOS>BOND
     1    13    14    1
     2    14    15    2
     3    14     7    1
     4     7     8    1
     5     8     9    1
     6     9    16    1
     7    16    17    1
     8    17    18    1
     9    18    19   ar
    10    19    20   ar
    11    20    21   ar
    12    21    22   ar
    13    22    24    1
    14    24    25    2
    15    24    26    1
    16    22    23   ar
    17     9    10    1
    18    10    11    1
    19    11    12    1
    20    12     1    1
    21     1     2   ar
    22     2     3   ar
    23     3     4   ar
    24     4    28    1
    25    28    29   am
    26    29    30    2
    27    29    32    1
    28    32    33   ar
    29    33    34   ar
    30    34    35   ar
    31    35    36   ar
    32    36    37   ar
    33    37    42    1
    34    42    43   ar
    35    43    44   ar
    36    44    45   ar
    37    45    46   ar
    38    46    47   ar
    39    37    38   ar
    40    38    39   ar
    41    39    40   ar
    42    40    41    1
    43     4     5   ar
    44     5     6   ar
    45    12     7    1
    46     6     1   ar
    47    23    18   ar
    48    40    32   ar
    49    39    34   ar
    50    47    42   ar
    51    26    27    1
    52    28    31    1
@<TRIPOS>MOLECULE
*****
 47 52 0 0 0
SMALL
GASTEIGER

@<TRIPOS>ATOM
      1 C          -5.6179  -17.1660   22.9836 C.ar    1  UNL1        0.1320
      2 C          -4.6318  -16.5444   23.7685 C.ar    1  UNL1        0.0356
      3 C          -5.0042  -15.5946   24.7203 C.ar    1  UNL1        0.0191
      4 C          -6.3530  -15.2749   24.9089 C.ar    1  UNL1        0.0702
      5 C          -7.3090  -15.8998   24.0939 C.ar    1  UNL1        0.1149
      6 N          -6.9225  -16.8176   23.1691 N.ar    1  UNL1       -0.2279
      7 C          -5.3549  -17.8124   20.5361 C.3     1  UNL1        0.1318
      8 C          -5.8034  -19.0423   19.7099 C.3     1  UNL1        0.0311
      9 C          -6.8363  -19.8976   20.4782 C.3     1  UNL1        0.0475
     10 C          -6.2632  -20.3970   21.8362 C.3     1  UNL1        0.0252
     11 C          -5.0842  -19.5517   22.3458 C.3     1  UNL1        0.0926
     12 N          -5.2727  -18.1426   21.9739 N.pl3   1  UNL1       -0.2883
     13 C          -2.9665  -18.2439   19.5345 C.3     1  UNL1        0.0740
     14 C          -4.0223  -17.3028   20.0352 C.2     1  UNL1        0.1689
     15 O          -3.7872  -16.1037   20.0490 O.2     1  UNL1       -0.2943
     16 C          -8.1600  -19.1326   20.6682 C.3     1  UNL1        0.2054
     17 O          -9.1220  -19.9783   21.2954 O.3     1  UNL1       -0.4755
     18 C          -9.8761  -19.6227   22.4234 C.ar    1  UNL1        0.1388
     19 C          -9.4684  -20.1057   23.6709 C.ar    1  UNL1        0.0369
     20 C         -10.1822  -19.7778   24.8248 C.ar    1  UNL1        0.0033
     21 C         -11.3128  -18.9623   24.7434 C.ar    1  UNL1        0.0066
     22 C         -11.7429  -18.4654   23.5013 C.ar    1  UNL1        0.0785
     23 C         -11.0184  -18.8014   22.3419 C.ar    1  UNL1        0.0433
     24 C         -12.9413  -17.6006   23.4195 C.2     1  UNL1        0.3381
     25 O         -14.0105  -17.9335   23.9992 O.2     1  UNL1       -0.2451
     26 O         -12.8993  -16.4092   22.6998 O.3     1  UNL1       -0.4771
     27 H         -13.7137  -15.8101   22.6372 H       1  UNL1        0.2954
     28 N          -6.7159  -14.2749   25.8752 N.am    1  UNL1       -0.2766
     29 C          -6.8102  -14.5168   27.2901 C.2     1  UNL1        0.2839
     30 O          -6.6383  -15.6761   27.7527 O.2     1  UNL1       -0.2665
     31 H          -6.8665  -13.3056   25.5201 H       1  UNL1        0.1553
     32 C          -7.1316  -13.4291   28.2301 C.ar    1  UNL1        0.1946
     33 O          -8.2350  -13.4278   28.9573 O.2     1  UNL1       -0.4492
     34 C          -8.2384  -12.3357   29.6822 C.ar    1  UNL1        0.1452
     35 C          -9.2117  -11.9228   30.5853 C.ar    1  UNL1        0.0375
     36 C          -9.0113  -10.7061   31.2609 C.ar    1  UNL1        0.0031
     37 C          -7.8470   -9.9251   31.0260 C.ar    1  UNL1        0.0002
     38 C          -6.8799  -10.3836   30.0995 C.ar    1  UNL1        0.0028
     39 C          -7.1132  -11.5938   29.4465 C.ar    1  UNL1        0.0337
     40 C          -6.3678  -12.2908   28.5171 C.ar    1  UNL1        0.0202
     41 C          -5.0200  -11.9094   27.9844 C.3     1  UNL1        0.0345
     42 C          -7.6459   -8.6416   31.7452 C.ar    1  UNL1        0.0000
     43 C          -8.4168   -7.5096   31.4184 C.ar    1  UNL1        0.0000
     44 C          -8.2254   -6.3023   32.0973 C.ar    1  UNL1        0.0000
     45 C          -7.2660   -6.2108   33.1081 C.ar    1  UNL1        0.0000
     46 C          -6.4955   -7.3267   33.4421 C.ar    1  UNL1        0.0000
     47 C          -6.6819   -8.5363   32.7659 C.ar    1  UNL1        0.0000
@<TRIPOS>BOND
     1    13    14    1
     2    14    15    2
     3    14     7    1
     4     7     8    1
     5     8     9    1
     6     9    16    1
     7    16    17    1
     8    17    18    1
     9    18    19   ar
    10    19    20   ar
    11    20    21   ar
    12    21    22   ar
    13    22    24    1
    14    24    25    2
    15    24    26    1
    16    22    23   ar
    17     9    10    1
    18    10    11    1
    19    11    12    1
    20    12     1    1
    21     1     2   ar
    22     2     3   ar
    23     3     4   ar
    24     4    28    1
    25    28    29   am
    26    29    30    2
    27    29    32    1
    28    32    33   ar
    29    33    34   ar
    30    34    35   ar
    31    35    36   ar
    32    36    37   ar
    33    37    42    1
    34    42    43   ar
    35    43    44   ar
    36    44    45   ar
    37    45    46   ar
    38    46    47   ar
    39    37    38   ar
    40    38    39   ar
    41    39    40   ar
    42    40    41    1
    43     4     5   ar
    44     5     6   ar
    45    12     7    1
    46     6     1   ar
    47    23    18   ar
    48    40    32   ar
    49    39    34   ar
    50    47    42   ar
    51    26    27    1
    52    28    31    1
@<TRIPOS>MOLECULE
*****
 47 52 0 0 0
SMALL
GASTEIGER

@<TRIPOS>ATOM
      1 C          -9.4329  -12.5489   30.1615 C.ar    1  UNL1        0.1320
      2 C          -9.8316  -13.6218   29.3460 C.ar    1  UNL1        0.0356
      3 C          -8.9524  -14.1228   28.3853 C.ar    1  UNL1        0.0191
      4 C          -7.6726  -13.5754   28.2453 C.ar    1  UNL1        0.0702
      5 C          -7.3153  -12.4919   29.0621 C.ar    1  UNL1        0.1149
      6 N          -8.1903  -12.0167   29.9871 N.ar    1  UNL1       -0.2279
      7 C         -10.2161  -10.5702   31.5572 C.3     1  UNL1        0.1318
      8 C         -10.5364  -10.3940   33.0615 C.3     1  UNL1        0.0311
      9 C         -10.0166  -11.5858   33.8970 C.3     1  UNL1        0.0475
     10 C         -10.6342  -12.9304   33.4147 C.3     1  UNL1        0.0252
     11 C         -11.1644  -12.8727   31.9725 C.3     1  UNL1        0.0926
     12 N         -10.3201  -11.9887   31.1570 N.pl3   1  UNL1       -0.2883
     13 C         -10.6435   -8.9702   29.5197 C.3     1  UNL1        0.0740
     14 C         -11.1434   -9.7172   30.7210 C.2     1  UNL1        0.1689
     15 O         -12.3210   -9.6173   31.0317 O.2     1  UNL1       -0.2943
     16 C          -8.4768  -11.6361   33.8955 C.3     1  UNL1        0.2054
     17 O          -7.9821  -11.2763   32.6072 O.3     1  UNL1       -0.4755
     18 C          -7.1232  -10.1952   32.3601 C.ar    1  UNL1        0.1388
     19 C          -5.8393  -10.4672   31.8771 C.ar    1  UNL1        0.0369
     20 C          -4.9476   -9.4267   31.6115 C.ar    1  UNL1        0.0033
     21 C          -5.3309   -8.1011   31.8262 C.ar    1  UNL1        0.0066
     22 C          -6.6153   -7.8023   32.3117 C.ar    1  UNL1        0.0785
     23 C          -7.5086   -8.8573   32.5783 C.ar    1  UNL1        0.0433
     24 C          -7.0179   -6.3960   32.5371 C.2     1  UNL1        0.3381
     25 O          -6.7792   -5.5154   31.6666 O.2     1  UNL1       -0.2451
     26 O          -7.6649   -6.0313   33.7150 O.3     1  UNL1       -0.4771
     27 H          -7.9445   -5.0717   33.8795 H       1  UNL1        0.2954
     28 N          -6.7901  -14.0864   27.2326 N.am    1  UNL1       -0.2766
     29 C          -7.2282  -14.8264   26.0795 C.2     1  UNL1        0.2839
     30 O          -8.4433  -15.1282   25.9378 O.2     1  UNL1       -0.2665
     31 H          -5.7775  -13.8536   27.3253 H       1  UNL1        0.1553
     32 C          -6.2726  -15.2705   25.0500 C.ar    1  UNL1        0.1946
     33 O          -6.3459  -14.8616   23.7955 O.2     1  UNL1       -0.4492
     34 C          -5.3713  -15.4304   23.1288 C.ar    1  UNL1        0.1452
     35 C          -5.0763  -15.2902   21.7772 C.ar    1  UNL1        0.0375
     36 C          -3.9749  -15.9985   21.2652 C.ar    1  UNL1        0.0031
     37 C          -3.1884  -16.8310   22.1073 C.ar    1  UNL1        0.0002
     38 C          -3.5226  -16.9438   23.4783 C.ar    1  UNL1        0.0028
     39 C          -4.6228  -16.2283   23.9505 C.ar    1  UNL1        0.0337
     40 C          -5.1783  -16.1297   25.2102 C.ar    1  UNL1        0.0202
     41 C          -4.6723  -16.7771   26.4634 C.3     1  UNL1        0.0345
     42 C          -2.0274  -17.5746   21.5557 C.ar    1  UNL1        0.0000
     43 C          -1.7741  -18.9019   21.9514 C.ar    1  UNL1        0.0000
     44 C          -0.6802  -19.5998   21.4304 C.ar    1  UNL1        0.0000
     45 C           0.1707  -18.9837   20.5101 C.ar    1  UNL1        0.0000
     46 C          -0.0703  -17.6679   20.1090 C.ar    1  UNL1        0.0000
     47 C          -1.1621  -16.9648   20.6275 C.ar    1  UNL1        0.0000
@<TRIPOS>BOND
     1    13    14    1
     2    14    15    2
     3    14     7    1
     4     7     8    1
     5     8     9    1
     6     9    16    1
     7    16    17    1
     8    17    18    1
     9    18    19   ar
    10    19    20   ar
    11    20    21   ar
    12    21    22   ar
    13    22    24    1
    14    24    25    2
    15    24    26    1
    16    22    23   ar
    17     9    10    1
    18    10    11    1
    19    11    12    1
    20    12     1    1
    21     1     2   ar
    22     2     3   ar
    23     3     4   ar
    24     4    28    1
    25    28    29   am
    26    29    30    2
    27    29    32    1
    28    32    33   ar
    29    33    34   ar
    30    34    35   ar
    31    35    36   ar
    32    36    37   ar
    33    37    42    1
    34    42    43   ar
    35    43    44   ar
    36    44    45   ar
    37    45    46   ar
    38    46    47   ar
    39    37    38   ar
    40    38    39   ar
    41    39    40   ar
    42    40    41    1
    43     4     5   ar
    44     5     6   ar
    45    12     7    1
    46     6     1   ar
    47    23    18   ar
    48    40    32   ar
    49    39    34   ar
    50    47    42   ar
    51    26    27    1
    52    28    31    1
@<TRIPOS>MOLECULE
*****
 47 52 0 0 0
SMALL
GASTEIGER

@<TRIPOS>ATOM
      1 C          -9.5292  -12.4036   31.0420 C.ar    1  UNL1        0.1320
      2 C         -10.0891  -13.2178   30.0428 C.ar    1  UNL1        0.0356
      3 C          -9.3073  -13.6154   28.9576 C.ar    1  UNL1        0.0191
      4 C          -7.9671  -13.2238   28.8716 C.ar    1  UNL1        0.0702
      5 C          -7.4467  -12.3941   29.8764 C.ar    1  UNL1        0.1149
      6 N          -8.2285  -12.0145   30.9211 N.ar    1  UNL1       -0.2279
      7 C         -11.7416  -12.2999   32.2956 C.3     1  UNL1        0.1318
      8 C         -12.5363  -11.1441   32.9505 C.3     1  UNL1        0.0311
      9 C         -11.9967   -9.7634   32.5132 C.3     1  UNL1        0.0475
     10 C         -10.4931   -9.5988   32.8795 C.3     1  UNL1        0.0252
     11 C          -9.7680  -10.9388   33.0866 C.3     1  UNL1        0.0926
     12 N         -10.3101  -11.9549   32.1739 N.pl3   1  UNL1       -0.2883
     13 C         -12.5912  -14.7748   32.5127 C.3     1  UNL1        0.0740
     14 C         -11.9112  -13.5714   33.0962 C.2     1  UNL1        0.1689
     15 O         -11.5023  -13.6231   34.2467 O.2     1  UNL1       -0.2943
     16 C         -12.2447   -9.5198   31.0122 C.3     1  UNL1        0.2054
     17 O         -11.0076   -9.5633   30.3040 O.3     1  UNL1       -0.4755
     18 C         -10.1607   -8.4609   30.1170 C.ar    1  UNL1        0.1388
     19 C          -8.7870   -8.6946   29.9973 C.ar    1  UNL1        0.0369
     20 C          -7.9022   -7.6321   29.8060 C.ar    1  UNL1        0.0033
     21 C          -8.3821   -6.3228   29.7322 C.ar    1  UNL1        0.0066
     22 C          -9.7579   -6.0624   29.8504 C.ar    1  UNL1        0.0785
     23 C         -10.6440   -7.1391   30.0443 C.ar    1  UNL1        0.0433
     24 C         -10.2626   -4.6732   29.7707 C.2     1  UNL1        0.3381
     25 O         -11.3843   -4.3716   30.2614 O.2     1  UNL1       -0.2451
     26 O          -9.5022   -3.6846   29.1514 O.3     1  UNL1       -0.4771
     27 H          -9.8381   -2.7309   29.0912 H       1  UNL1        0.2954
     28 N          -7.1845  -13.6205   27.7333 N.am    1  UNL1       -0.2766
     29 C          -7.2655  -14.9143   27.1100 C.2     1  UNL1        0.2839
     30 O          -8.0045  -15.8121   27.5953 O.2     1  UNL1       -0.2665
     31 H          -6.5617  -12.8977   27.3115 H       1  UNL1        0.1553
     32 C          -6.4746  -15.2331   25.9087 C.ar    1  UNL1        0.1946
     33 O          -6.7156  -14.6737   24.7360 O.2     1  UNL1       -0.4492
     34 C          -5.8573  -15.1606   23.8734 C.ar    1  UNL1        0.1452
     35 C          -5.7532  -14.8575   22.5203 C.ar    1  UNL1        0.0375
     36 C          -4.7505  -15.5023   21.7748 C.ar    1  UNL1        0.0031
     37 C          -3.8708  -16.4345   22.3896 C.ar    1  UNL1        0.0002
     38 C          -4.0104  -16.7126   23.7706 C.ar    1  UNL1        0.0028
     39 C          -5.0174  -16.0559   24.4777 C.ar    1  UNL1        0.0337
     40 C          -5.3871  -16.1097   25.8065 C.ar    1  UNL1        0.0202
     41 C          -4.7230  -16.9073   26.8875 C.3     1  UNL1        0.0345
     42 C          -2.8155  -17.1097   21.5925 C.ar    1  UNL1        0.0000
     43 C          -2.9601  -18.4566   21.2086 C.ar    1  UNL1        0.0000
     44 C          -1.9648  -19.0899   20.4579 C.ar    1  UNL1        0.0000
     45 C          -0.8174  -18.3883   20.0815 C.ar    1  UNL1        0.0000
     46 C          -0.6625  -17.0517   20.4553 C.ar    1  UNL1        0.0000
     47 C          -1.6541  -16.4135   21.2068 C.ar    1  UNL1        0.0000
@<TRIPOS>BOND
     1    13    14    1
     2    14    15    2
     3    14     7    1
     4     7     8    1
     5     8     9    1
     6     9    16    1
     7    16    17    1
     8    17    18    1
     9    18    19   ar
    10    19    20   ar
    11    20    21   ar
    12    21    22   ar
    13    22    24    1
    14    24    25    2
    15    24    26    1
    16    22    23   ar
    17     9    10    1
    18    10    11    1
    19    11    12    1
    20    12     1    1
    21     1     2   ar
    22     2     3   ar
    23     3     4   ar
    24     4    28    1
    25    28    29   am
    26    29    30    2
    27    29    32    1
    28    32    33   ar
    29    33    34   ar
    30    34    35   ar
    31    35    36   ar
    32    36    37   ar
    33    37    42    1
    34    42    43   ar
    35    43    44   ar
    36    44    45   ar
    37    45    46   ar
    38    46    47   ar
    39    37    38   ar
    40    38    39   ar
    41    39    40   ar
    42    40    41    1
    43     4     5   ar
    44     5     6   ar
    45    12     7    1
    46     6     1   ar
    47    23    18   ar
    48    40    32   ar
    49    39    34   ar
    50    47    42   ar
    51    26    27    1
    52    28    31    1
