@<TRIPOS>MOLECULE
*****
 33 36 0 0 0
SMALL
GASTEIGER

@<TRIPOS>ATOM
      1 N          47.6777   12.5815  -24.9690 N.am    1  UNL1       -0.2686
      2 C          48.9765   12.8301  -25.5377 C.2     1  UNL1        0.2690
      3 O          49.6876   11.8549  -25.9041 O.2     1  UNL1       -0.2682
      4 C          49.4700   14.2112  -25.7232 C.ar    1  UNL1        0.1562
      5 C          48.7219   15.1619  -26.4317 C.ar    1  UNL1        0.0271
      6 C          49.2157   16.4631  -26.5602 C.ar    1  UNL1        0.0211
      7 C          48.5062   17.4496  -27.2619 C.ar    1  UNL1        0.0016
      8 C          49.0304   18.7423  -27.3697 C.ar    1  UNL1        0.0001
      9 C          50.2601   19.0549  -26.7798 C.ar    1  UNL1        0.0016
     10 C          50.9722   18.0763  -26.0787 C.ar    1  UNL1        0.0209
     11 C          50.4533   16.7816  -25.9675 C.ar    1  UNL1        0.1029
     12 N          51.1341   15.8233  -25.2882 N.ar    1  UNL1       -0.1479
     13 N          50.6564   14.5834  -25.1700 N.ar    1  UNL1       -0.1434
     14 C          46.2438   12.1994  -22.9933 C.3     1  UNL1        0.0264
     15 C          47.4179   12.9992  -23.5758 C.3     1  UNL1        0.0986
     16 C          47.2537   14.5091  -23.4620 C.ar    1  UNL1       -0.0041
     17 C          46.2342   15.2120  -24.1391 C.ar    1  UNL1       -0.0004
     18 C          46.1602   16.6059  -24.0584 C.ar    1  UNL1        0.0294
     19 C          47.1049   17.3175  -23.3163 C.ar    1  UNL1        0.1401
     20 F          47.0371   18.6698  -23.2501 F       1  UNL1       -0.2042
     21 C          48.1250   16.6358  -22.6503 C.ar    1  UNL1        0.0294
     22 C          48.2003   15.2422  -22.7223 C.ar    1  UNL1       -0.0004
     23 C          46.7485   11.6977  -25.6957 C.3     1  UNL1        0.1207
     24 C          46.4302   12.2631  -27.0577 C.ar    1  UNL1       -0.0021
     25 C          46.0133   13.5962  -27.1916 C.ar    1  UNL1       -0.0026
     26 C          45.7714   14.1340  -28.4559 C.ar    1  UNL1       -0.0001
     27 C          45.9240   13.3437  -29.5965 C.ar    1  UNL1        0.0064
     28 C          46.3022   11.9940  -29.4844 C.ar    1  UNL1        0.0752
     29 C          46.5494   11.4613  -28.2059 C.ar    1  UNL1        0.0038
     30 C          46.4645   11.1666  -30.7056 C.2     1  UNL1        0.3380
     31 O          46.6056   11.7273  -31.8248 O.2     1  UNL1       -0.2451
     32 O          46.4543    9.7728  -30.6582 O.3     1  UNL1       -0.4771
     33 H          46.2426    9.2550  -29.8156 H       1  UNL1        0.2954
@<TRIPOS>BOND
     1    14    15    1
     2    15    16    1
     3    16    17   ar
     4    17    18   ar
     5    18    19   ar
     6    19    20    1
     7    19    21   ar
     8    21    22   ar
     9    15     1    1
    10     1    23    1
    11    23    24    1
    12    24    25   ar
    13    25    26   ar
    14    26    27   ar
    15    27    28   ar
    16    28    30    1
    17    30    31    2
    18    30    32    1
    19    28    29   ar
    20     1     2   am
    21     2     3    2
    22     2     4    1
    23     4     5   ar
    24     5     6   ar
    25     6     7   ar
    26     7     8   ar
    27     8     9   ar
    28     9    10   ar
    29    10    11   ar
    30    11    12   ar
    31    12    13   ar
    32    22    16   ar
    33    29    24   ar
    34    13     4   ar
    35    11     6   ar
    36    32    33    1
@<TRIPOS>MOLECULE
*****
 33 36 0 0 0
SMALL
GASTEIGER

@<TRIPOS>ATOM
      1 N          47.9640   13.4489  -24.7259 N.am    1  UNL1       -0.2686
      2 C          47.2243   12.2895  -25.1513 C.2     1  UNL1        0.2690
      3 O          46.7012   11.5379  -24.2840 O.2     1  UNL1       -0.2682
      4 C          47.0475   11.9895  -26.5879 C.ar    1  UNL1        0.1562
      5 C          46.4188   12.8998  -27.4490 C.ar    1  UNL1        0.0271
      6 C          46.2963   12.5853  -28.8054 C.ar    1  UNL1        0.0211
      7 C          45.6730   13.4616  -29.7069 C.ar    1  UNL1        0.0016
      8 C          45.5689   13.1145  -31.0582 C.ar    1  UNL1        0.0001
      9 C          46.0846   11.8963  -31.5140 C.ar    1  UNL1        0.0016
     10 C          46.7074   11.0185  -30.6207 C.ar    1  UNL1        0.0209
     11 C          46.8145   11.3598  -29.2680 C.ar    1  UNL1        0.1029
     12 N          47.4182   10.5172  -28.3913 N.ar    1  UNL1       -0.1479
     13 N          47.5311   10.8241  -27.0980 N.ar    1  UNL1       -0.1434
     14 C          50.2451   13.0111  -23.8831 C.3     1  UNL1        0.0264
     15 C          49.4020   13.5366  -25.0537 C.3     1  UNL1        0.0986
     16 C          49.7899   14.9351  -25.5156 C.ar    1  UNL1       -0.0041
     17 C          50.4704   15.8459  -24.6795 C.ar    1  UNL1       -0.0004
     18 C          50.7491   17.1426  -25.1223 C.ar    1  UNL1        0.0294
     19 C          50.3433   17.5530  -26.3937 C.ar    1  UNL1        0.1401
     20 F          50.6047   18.8147  -26.8150 F       1  UNL1       -0.2042
     21 C          49.6600   16.6657  -27.2271 C.ar    1  UNL1        0.0294
     22 C          49.3842   15.3665  -26.7924 C.ar    1  UNL1       -0.0004
     23 C          47.3335   14.3731  -23.7663 C.3     1  UNL1        0.1207
     24 C          46.8901   15.6386  -24.4577 C.ar    1  UNL1       -0.0021
     25 C          47.0705   16.8847  -23.8384 C.ar    1  UNL1       -0.0026
     26 C          46.7099   18.0584  -24.5008 C.ar    1  UNL1       -0.0001
     27 C          46.1489   18.0003  -25.7779 C.ar    1  UNL1        0.0064
     28 C          45.9219   16.7608  -26.4021 C.ar    1  UNL1        0.0752
     29 C          46.2935   15.5825  -25.7290 C.ar    1  UNL1        0.0038
     30 C          45.3285   16.7142  -27.7615 C.2     1  UNL1        0.3380
     31 O          44.0803   16.8116  -27.9011 O.2     1  UNL1       -0.2451
     32 O          46.1132   16.5523  -28.9030 O.3     1  UNL1       -0.4771
     33 H          47.1062   16.3638  -28.8628 H       1  UNL1        0.2954
@<TRIPOS>BOND
     1    14    15    1
     2    15    16    1
     3    16    17   ar
     4    17    18   ar
     5    18    19   ar
     6    19    20    1
     7    19    21   ar
     8    21    22   ar
     9    15     1    1
    10     1    23    1
    11    23    24    1
    12    24    25   ar
    13    25    26   ar
    14    26    27   ar
    15    27    28   ar
    16    28    30    1
    17    30    31    2
    18    30    32    1
    19    28    29   ar
    20     1     2   am
    21     2     3    2
    22     2     4    1
    23     4     5   ar
    24     5     6   ar
    25     6     7   ar
    26     7     8   ar
    27     8     9   ar
    28     9    10   ar
    29    10    11   ar
    30    11    12   ar
    31    12    13   ar
    32    22    16   ar
    33    29    24   ar
    34    13     4   ar
    35    11     6   ar
    36    32    33    1
@<TRIPOS>MOLECULE
*****
 33 36 0 0 0
SMALL
GASTEIGER

@<TRIPOS>ATOM
      1 N          47.8271   12.5106  -25.0080 N.am    1  UNL1       -0.2686
      2 C          49.1551   12.8040  -25.4797 C.2     1  UNL1        0.2690
      3 O          49.9169   11.8549  -25.8111 O.2     1  UNL1       -0.2682
      4 C          49.6219   14.2008  -25.6073 C.ar    1  UNL1        0.1562
      5 C          48.9087   15.1396  -26.3660 C.ar    1  UNL1        0.0271
      6 C          49.3733   16.4559  -26.4377 C.ar    1  UNL1        0.0211
      7 C          48.6969   17.4314  -27.1859 C.ar    1  UNL1        0.0016
      8 C          49.1902   18.7397  -27.2345 C.ar    1  UNL1        0.0001
      9 C          50.3561   19.0788  -26.5392 C.ar    1  UNL1        0.0016
     10 C          51.0349   18.1113  -25.7913 C.ar    1  UNL1        0.0209
     11 C          50.5467   16.8010  -25.7389 C.ar    1  UNL1        0.1029
     12 N          51.1955   15.8532  -25.0152 N.ar    1  UNL1       -0.1479
     13 N          50.7461   14.5988  -24.9517 N.ar    1  UNL1       -0.1434
     14 C          46.2486   12.0782  -23.1570 C.3     1  UNL1        0.0264
     15 C          47.4591   12.8958  -23.6299 C.3     1  UNL1        0.0986
     16 C          47.2780   14.4020  -23.4956 C.ar    1  UNL1       -0.0041
     17 C          46.2996   15.1137  -24.2224 C.ar    1  UNL1       -0.0004
     18 C          46.2113   16.5052  -24.1176 C.ar    1  UNL1        0.0294
     19 C          47.1015   17.2059  -23.3014 C.ar    1  UNL1        0.1401
     20 F          47.0206   18.5561  -23.2116 F       1  UNL1       -0.2042
     21 C          48.0810   16.5156  -22.5852 C.ar    1  UNL1        0.0294
     22 C          48.1701   15.1242  -22.6812 C.ar    1  UNL1       -0.0004
     23 C          46.9759   11.6159  -25.8127 C.3     1  UNL1        0.1207
     24 C          46.6092   12.2658  -27.1239 C.ar    1  UNL1       -0.0021
     25 C          46.5766   11.5090  -28.3049 C.ar    1  UNL1       -0.0026
     26 C          46.1851   12.0981  -29.5075 C.ar    1  UNL1       -0.0001
     27 C          45.8410   13.4505  -29.5479 C.ar    1  UNL1        0.0064
     28 C          45.9046   14.2384  -28.3849 C.ar    1  UNL1        0.0752
     29 C          46.2953   13.6348  -27.1755 C.ar    1  UNL1        0.0038
     30 C          45.5322   15.6737  -28.4417 C.2     1  UNL1        0.3380
     31 O          44.7632   16.1538  -27.5670 O.2     1  UNL1       -0.2451
     32 O          46.0002   16.5173  -29.4489 O.3     1  UNL1       -0.4771
     33 H          46.5340   16.1821  -30.2400 H       1  UNL1        0.2954
@<TRIPOS>BOND
     1    14    15    1
     2    15    16    1
     3    16    17   ar
     4    17    18   ar
     5    18    19   ar
     6    19    20    1
     7    19    21   ar
     8    21    22   ar
     9    15     1    1
    10     1    23    1
    11    23    24    1
    12    24    25   ar
    13    25    26   ar
    14    26    27   ar
    15    27    28   ar
    16    28    30    1
    17    30    31    2
    18    30    32    1
    19    28    29   ar
    20     1     2   am
    21     2     3    2
    22     2     4    1
    23     4     5   ar
    24     5     6   ar
    25     6     7   ar
    26     7     8   ar
    27     8     9   ar
    28     9    10   ar
    29    10    11   ar
    30    11    12   ar
    31    12    13   ar
    32    22    16   ar
    33    29    24   ar
    34    13     4   ar
    35    11     6   ar
    36    32    33    1
@<TRIPOS>MOLECULE
*****
 33 36 0 0 0
SMALL
GASTEIGER

@<TRIPOS>ATOM
      1 N          47.1169   13.2862  -24.2259 N.am    1  UNL1       -0.2686
      2 C          45.9592   13.3867  -25.0755 C.2     1  UNL1        0.2690
      3 O          44.8537   13.7312  -24.5753 O.2     1  UNL1       -0.2682
      4 C          46.0594   13.1207  -26.5261 C.ar    1  UNL1        0.1562
      5 C          46.3280   11.8336  -27.0128 C.ar    1  UNL1        0.0271
      6 C          46.3882   11.6232  -28.3933 C.ar    1  UNL1        0.0211
      7 C          46.6566   10.3547  -28.9296 C.ar    1  UNL1        0.0016
      8 C          46.7085   10.1805  -30.3168 C.ar    1  UNL1        0.0001
      9 C          46.4934   11.2673  -31.1714 C.ar    1  UNL1        0.0016
     10 C          46.2250   12.5343  -30.6433 C.ar    1  UNL1        0.0209
     11 C          46.1720   12.7150  -29.2568 C.ar    1  UNL1        0.1029
     12 N          45.9108   13.9395  -28.7318 N.ar    1  UNL1       -0.1479
     13 N          45.8551   14.1326  -27.4131 N.ar    1  UNL1       -0.1434
     14 C          47.4489   11.3761  -22.6941 C.3     1  UNL1        0.0264
     15 C          47.7751   11.9726  -24.0707 C.3     1  UNL1        0.0986
     16 C          49.2659   12.0506  -24.3727 C.ar    1  UNL1       -0.0041
     17 C          50.2498   11.8340  -23.3845 C.ar    1  UNL1       -0.0004
     18 C          51.6063   11.9799  -23.6907 C.ar    1  UNL1        0.0294
     19 C          51.9995   12.3555  -24.9768 C.ar    1  UNL1        0.1401
     20 F          53.3149   12.5077  -25.2668 F       1  UNL1       -0.2042
     21 C          51.0362   12.5834  -25.9611 C.ar    1  UNL1        0.0294
     22 C          49.6793   12.4330  -25.6626 C.ar    1  UNL1       -0.0004
     23 C          47.4459   14.4228  -23.3470 C.3     1  UNL1        0.1207
     24 C          48.4366   15.3438  -24.0149 C.ar    1  UNL1       -0.0021
     25 C          49.7152   15.5265  -23.4666 C.ar    1  UNL1       -0.0026
     26 C          50.6492   16.3359  -24.1139 C.ar    1  UNL1       -0.0001
     27 C          50.3118   16.9855  -25.3026 C.ar    1  UNL1        0.0064
     28 C          49.0236   16.8493  -25.8498 C.ar    1  UNL1        0.0752
     29 C          48.0897   16.0268  -25.1933 C.ar    1  UNL1        0.0038
     30 C          48.6800   17.5424  -27.1162 C.2     1  UNL1        0.3380
     31 O          49.0874   18.7179  -27.3144 O.2     1  UNL1       -0.2451
     32 O          47.9023   16.9346  -28.1015 O.3     1  UNL1       -0.4771
     33 H          47.4548   16.0371  -27.9698 H       1  UNL1        0.2954
@<TRIPOS>BOND
     1    14    15    1
     2    15    16    1
     3    16    17   ar
     4    17    18   ar
     5    18    19   ar
     6    19    20    1
     7    19    21   ar
     8    21    22   ar
     9    15     1    1
    10     1    23    1
    11    23    24    1
    12    24    25   ar
    13    25    26   ar
    14    26    27   ar
    15    27    28   ar
    16    28    30    1
    17    30    31    2
    18    30    32    1
    19    28    29   ar
    20     1     2   am
    21     2     3    2
    22     2     4    1
    23     4     5   ar
    24     5     6   ar
    25     6     7   ar
    26     7     8   ar
    27     8     9   ar
    28     9    10   ar
    29    10    11   ar
    30    11    12   ar
    31    12    13   ar
    32    22    16   ar
    33    29    24   ar
    34    13     4   ar
    35    11     6   ar
    36    32    33    1
@<TRIPOS>MOLECULE
*****
 33 36 0 0 0
SMALL
GASTEIGER

@<TRIPOS>ATOM
      1 N          48.5708   14.1234  -24.1699 N.am    1  UNL1       -0.2686
      2 C          47.3549   13.4693  -24.5771 C.2     1  UNL1        0.2690
      3 O          46.5291   13.0981  -23.6989 O.2     1  UNL1       -0.2682
      4 C          47.0522   13.2566  -26.0083 C.ar    1  UNL1        0.1562
      5 C          47.1197   11.9800  -26.5840 C.ar    1  UNL1        0.0271
      6 C          46.7999   11.8215  -27.9354 C.ar    1  UNL1        0.0211
      7 C          46.8548   10.5655  -28.5584 C.ar    1  UNL1        0.0016
      8 C          46.5270   10.4437  -29.9131 C.ar    1  UNL1        0.0001
      9 C          46.1443   11.5706  -30.6489 C.ar    1  UNL1        0.0016
     10 C          46.0872   12.8254  -30.0338 C.ar    1  UNL1        0.0209
     11 C          46.4140   12.9538  -28.6794 C.ar    1  UNL1        0.1029
     12 N          46.3609   14.1660  -28.0704 N.ar    1  UNL1       -0.1479
     13 N          46.6677   14.3094  -26.7802 N.ar    1  UNL1       -0.1434
     14 C          50.2841   13.8049  -25.9217 C.3     1  UNL1        0.0264
     15 C          49.8643   13.4806  -24.4809 C.3     1  UNL1        0.0986
     16 C          49.8434   11.9910  -24.1639 C.ar    1  UNL1       -0.0041
     17 C          49.4940   11.4938  -22.8902 C.ar    1  UNL1       -0.0004
     18 C          49.5513   10.1223  -22.6243 C.ar    1  UNL1        0.0294
     19 C          49.9691    9.2317  -23.6152 C.ar    1  UNL1        0.1401
     20 F          50.0349    7.9039  -23.3501 F       1  UNL1       -0.2042
     21 C          50.3279    9.7110  -24.8764 C.ar    1  UNL1        0.0294
     22 C          50.2665   11.0800  -25.1498 C.ar    1  UNL1       -0.0004
     23 C          48.4796   15.2643  -23.2412 C.3     1  UNL1        0.1207
     24 C          48.1469   16.5331  -23.9865 C.ar    1  UNL1       -0.0021
     25 C          46.9950   17.2649  -23.6604 C.ar    1  UNL1       -0.0026
     26 C          46.7165   18.4663  -24.3128 C.ar    1  UNL1       -0.0001
     27 C          47.5726   18.9395  -25.3089 C.ar    1  UNL1        0.0064
     28 C          48.7115   18.2033  -25.6805 C.ar    1  UNL1        0.0752
     29 C          48.9876   16.9955  -25.0135 C.ar    1  UNL1        0.0038
     30 C          49.6148   18.7203  -26.7381 C.2     1  UNL1        0.3380
     31 O          50.8442   18.4483  -26.6965 O.2     1  UNL1       -0.2451
     32 O          49.1465   19.5165  -27.7830 O.3     1  UNL1       -0.4771
     33 H          48.1965   19.8612  -27.8255 H       1  UNL1        0.2954
@<TRIPOS>BOND
     1    14    15    1
     2    15    16    1
     3    16    17   ar
     4    17    18   ar
     5    18    19   ar
     6    19    20    1
     7    19    21   ar
     8    21    22   ar
     9    15     1    1
    10     1    23    1
    11    23    24    1
    12    24    25   ar
    13    25    26   ar
    14    26    27   ar
    15    27    28   ar
    16    28    30    1
    17    30    31    2
    18    30    32    1
    19    28    29   ar
    20     1     2   am
    21     2     3    2
    22     2     4    1
    23     4     5   ar
    24     5     6   ar
    25     6     7   ar
    26     7     8   ar
    27     8     9   ar
    28     9    10   ar
    29    10    11   ar
    30    11    12   ar
    31    12    13   ar
    32    22    16   ar
    33    29    24   ar
    34    13     4   ar
    35    11     6   ar
    36    32    33    1
@<TRIPOS>MOLECULE
*****
 33 36 0 0 0
SMALL
GASTEIGER

@<TRIPOS>ATOM
      1 N          46.8520   13.1297  -24.4475 N.am    1  UNL1       -0.2686
      2 C          47.2640   14.3212  -23.7527 C.2     1  UNL1        0.2690
      3 O          47.2816   14.3262  -22.4916 O.2     1  UNL1       -0.2682
      4 C          47.6932   15.5228  -24.4992 C.ar    1  UNL1        0.1562
      5 C          49.0165   15.6728  -24.9373 C.ar    1  UNL1        0.0271
      6 C          49.3717   16.8138  -25.6623 C.ar    1  UNL1        0.0211
      7 C          50.6832   17.0115  -26.1202 C.ar    1  UNL1        0.0016
      8 C          51.0030   18.1654  -26.8439 C.ar    1  UNL1        0.0001
      9 C          50.0189   19.1230  -27.1129 C.ar    1  UNL1        0.0016
     10 C          48.7096   18.9318  -26.6597 C.ar    1  UNL1        0.0209
     11 C          48.3836   17.7800  -25.9352 C.ar    1  UNL1        0.1029
     12 N          47.1160   17.5819  -25.4912 N.ar    1  UNL1       -0.1479
     13 N          46.7846   16.4905  -24.7996 N.ar    1  UNL1       -0.1434
     14 C          44.5228   12.3421  -24.6916 C.3     1  UNL1        0.0264
     15 C          45.6502   13.1845  -25.3053 C.3     1  UNL1        0.0986
     16 C          45.9729   12.8264  -26.7500 C.ar    1  UNL1       -0.0041
     17 C          46.0646   13.7997  -27.7679 C.ar    1  UNL1       -0.0004
     18 C          46.2984   13.4198  -29.0931 C.ar    1  UNL1        0.0294
     19 C          46.4298   12.0696  -29.4238 C.ar    1  UNL1        0.1401
     20 F          46.6444   11.7043  -30.7115 F       1  UNL1       -0.2042
     21 C          46.3306   11.0957  -28.4286 C.ar    1  UNL1        0.0294
     22 C          46.1032   11.4698  -27.1015 C.ar    1  UNL1       -0.0004
     23 C          47.4804   11.8480  -24.0806 C.3     1  UNL1        0.1207
     24 C          48.9237   11.8171  -24.5188 C.ar    1  UNL1       -0.0021
     25 C          49.2769   11.2554  -25.7552 C.ar    1  UNL1       -0.0026
     26 C          50.6044   11.2758  -26.1837 C.ar    1  UNL1       -0.0001
     27 C          51.5946   11.8386  -25.3764 C.ar    1  UNL1        0.0064
     28 C          51.2707   12.3716  -24.1161 C.ar    1  UNL1        0.0752
     29 C          49.9286   12.3517  -23.6942 C.ar    1  UNL1        0.0038
     30 C          52.3328   12.9703  -23.2702 C.2     1  UNL1        0.3380
     31 O          53.4671   12.4251  -23.2141 O.2     1  UNL1       -0.2451
     32 O          52.1127   14.1230  -22.5167 O.3     1  UNL1       -0.4771
     33 H          51.2022   14.5551  -22.4300 H       1  UNL1        0.2954
@<TRIPOS>BOND
     1    14    15    1
     2    15    16    1
     3    16    17   ar
     4    17    18   ar
     5    18    19   ar
     6    19    20    1
     7    19    21   ar
     8    21    22   ar
     9    15     1    1
    10     1    23    1
    11    23    24    1
    12    24    25   ar
    13    25    26   ar
    14    26    27   ar
    15    27    28   ar
    16    28    30    1
    17    30    31    2
    18    30    32    1
    19    28    29   ar
    20     1     2   am
    21     2     3    2
    22     2     4    1
    23     4     5   ar
    24     5     6   ar
    25     6     7   ar
    26     7     8   ar
    27     8     9   ar
    28     9    10   ar
    29    10    11   ar
    30    11    12   ar
    31    12    13   ar
    32    22    16   ar
    33    29    24   ar
    34    13     4   ar
    35    11     6   ar
    36    32    33    1
@<TRIPOS>MOLECULE
*****
 33 36 0 0 0
SMALL
GASTEIGER

@<TRIPOS>ATOM
      1 N          46.8572   14.1577  -24.2709 N.am    1  UNL1       -0.2686
      2 C          45.8800   13.3731  -24.9793 C.2     1  UNL1        0.2690
      3 O          44.8888   12.9085  -24.3528 O.2     1  UNL1       -0.2682
      4 C          46.0105   13.1332  -26.4320 C.ar    1  UNL1        0.1562
      5 C          46.2974   11.8565  -26.9355 C.ar    1  UNL1        0.0271
      6 C          46.3861   11.6706  -28.3179 C.ar    1  UNL1        0.0211
      7 C          46.6737   10.4134  -28.8708 C.ar    1  UNL1        0.0016
      8 C          46.7540   10.2638  -30.2595 C.ar    1  UNL1        0.0001
      9 C          46.5483   11.3639  -31.0992 C.ar    1  UNL1        0.0016
     10 C          46.2609   12.6197  -30.5547 C.ar    1  UNL1        0.0209
     11 C          46.1794   12.7758  -29.1666 C.ar    1  UNL1        0.1029
     12 N          45.8996   13.9892  -28.6257 N.ar    1  UNL1       -0.1479
     13 N          45.8167   14.1589  -27.3052 N.ar    1  UNL1       -0.1434
     14 C          48.5639   13.1860  -22.7715 C.3     1  UNL1        0.0264
     15 C          48.2481   13.6649  -24.1957 C.3     1  UNL1        0.0986
     16 C          49.2380   14.6879  -24.7372 C.ar    1  UNL1       -0.0041
     17 C          49.8498   15.6572  -23.9140 C.ar    1  UNL1       -0.0004
     18 C          50.7026   16.6188  -24.4648 C.ar    1  UNL1        0.0294
     19 C          50.9460   16.6367  -25.8396 C.ar    1  UNL1        0.1401
     20 F          51.7639   17.5778  -26.3716 F       1  UNL1       -0.2042
     21 C          50.3389   15.6903  -26.6670 C.ar    1  UNL1        0.0294
     22 C          49.4906   14.7230  -26.1213 C.ar    1  UNL1       -0.0004
     23 C          46.3890   15.2777  -23.4350 C.3     1  UNL1        0.1207
     24 C          46.7286   16.6002  -24.0768 C.ar    1  UNL1       -0.0021
     25 C          46.6978   17.7825  -23.3219 C.ar    1  UNL1       -0.0026
     26 C          47.0641   18.9973  -23.9019 C.ar    1  UNL1       -0.0001
     27 C          47.4459   19.0482  -25.2438 C.ar    1  UNL1        0.0064
     28 C          47.4461   17.8828  -26.0307 C.ar    1  UNL1        0.0752
     29 C          47.0803   16.6612  -25.4361 C.ar    1  UNL1        0.0038
     30 C          47.8580   17.9509  -27.4546 C.2     1  UNL1        0.3380
     31 O          48.6107   18.8838  -27.8424 O.2     1  UNL1       -0.2451
     32 O          47.4261   17.0135  -28.3925 O.3     1  UNL1       -0.4771
     33 H          46.7410   16.3007  -28.1789 H       1  UNL1        0.2954
@<TRIPOS>BOND
     1    14    15    1
     2    15    16    1
     3    16    17   ar
     4    17    18   ar
     5    18    19   ar
     6    19    20    1
     7    19    21   ar
     8    21    22   ar
     9    15     1    1
    10     1    23    1
    11    23    24    1
    12    24    25   ar
    13    25    26   ar
    14    26    27   ar
    15    27    28   ar
    16    28    30    1
    17    30    31    2
    18    30    32    1
    19    28    29   ar
    20     1     2   am
    21     2     3    2
    22     2     4    1
    23     4     5   ar
    24     5     6   ar
    25     6     7   ar
    26     7     8   ar
    27     8     9   ar
    28     9    10   ar
    29    10    11   ar
    30    11    12   ar
    31    12    13   ar
    32    22    16   ar
    33    29    24   ar
    34    13     4   ar
    35    11     6   ar
    36    32    33    1
@<TRIPOS>MOLECULE
*****
 33 36 0 0 0
SMALL
GASTEIGER

@<TRIPOS>ATOM
      1 N          50.7241   12.7518  -24.5881 N.am    1  UNL1       -0.2686
      2 C          51.8059   12.0591  -25.2376 C.2     1  UNL1        0.2690
      3 O          52.9918   12.2832  -24.8708 O.2     1  UNL1       -0.2682
      4 C          51.5402   11.0705  -26.3040 C.ar    1  UNL1        0.1562
      5 C          52.4536   10.8626  -27.3471 C.ar    1  UNL1        0.0271
      6 C          52.1729    9.8990  -28.3199 C.ar    1  UNL1        0.0211
      7 C          53.0535    9.6556  -29.3849 C.ar    1  UNL1        0.0016
      8 C          52.7407    8.6825  -30.3403 C.ar    1  UNL1        0.0001
      9 C          51.5525    7.9510  -30.2372 C.ar    1  UNL1        0.0016
     10 C          50.6706    8.1884  -29.1780 C.ar    1  UNL1        0.0209
     11 C          50.9777    9.1603  -28.2193 C.ar    1  UNL1        0.1029
     12 N          50.1307    9.3991  -27.1855 N.ar    1  UNL1       -0.1479
     13 N          50.4053   10.3206  -26.2609 N.ar    1  UNL1       -0.1434
     14 C          50.2912   15.1141  -25.1691 C.3     1  UNL1        0.0264
     15 C          49.8719   13.6537  -25.3902 C.3     1  UNL1        0.0986
     16 C          48.3911   13.3926  -25.1478 C.ar    1  UNL1       -0.0041
     17 C          47.5741   14.2875  -24.4245 C.ar    1  UNL1       -0.0004
     18 C          46.2348   13.9768  -24.1695 C.ar    1  UNL1        0.0294
     19 C          45.6966   12.7689  -24.6177 C.ar    1  UNL1        0.1401
     20 F          44.4010   12.4656  -24.3582 F       1  UNL1       -0.2042
     21 C          46.4964   11.8696  -25.3251 C.ar    1  UNL1        0.0294
     22 C          47.8338   12.1776  -25.5883 C.ar    1  UNL1       -0.0004
     23 C          50.6647   12.7413  -23.1154 C.3     1  UNL1        0.1207
     24 C          49.6428   11.7430  -22.6302 C.ar    1  UNL1       -0.0021
     25 C          49.7691   10.3843  -22.9571 C.ar    1  UNL1       -0.0026
     26 C          48.8541    9.4540  -22.4634 C.ar    1  UNL1       -0.0001
     27 C          47.7947    9.8711  -21.6555 C.ar    1  UNL1        0.0064
     28 C          47.6251   11.2326  -21.3473 C.ar    1  UNL1        0.0752
     29 C          48.5555   12.1633  -21.8451 C.ar    1  UNL1        0.0038
     30 C          46.4967   11.6613  -20.4842 C.2     1  UNL1        0.3380
     31 O          46.6467   11.6982  -19.2339 O.2     1  UNL1       -0.2451
     32 O          45.2571   12.0179  -21.0146 O.3     1  UNL1       -0.4771
     33 H          45.0304   11.9138  -21.9948 H       1  UNL1        0.2954
@<TRIPOS>BOND
     1    14    15    1
     2    15    16    1
     3    16    17   ar
     4    17    18   ar
     5    18    19   ar
     6    19    20    1
     7    19    21   ar
     8    21    22   ar
     9    15     1    1
    10     1    23    1
    11    23    24    1
    12    24    25   ar
    13    25    26   ar
    14    26    27   ar
    15    27    28   ar
    16    28    30    1
    17    30    31    2
    18    30    32    1
    19    28    29   ar
    20     1     2   am
    21     2     3    2
    22     2     4    1
    23     4     5   ar
    24     5     6   ar
    25     6     7   ar
    26     7     8   ar
    27     8     9   ar
    28     9    10   ar
    29    10    11   ar
    30    11    12   ar
    31    12    13   ar
    32    22    16   ar
    33    29    24   ar
    34    13     4   ar
    35    11     6   ar
    36    32    33    1
@<TRIPOS>MOLECULE
*****
 33 36 0 0 0
SMALL
GASTEIGER

@<TRIPOS>ATOM
      1 N          47.1908   12.3688  -24.7297 N.am    1  UNL1       -0.2686
      2 C          48.5205   12.5017  -25.2647 C.2     1  UNL1        0.2690
      3 O          49.0821   11.4972  -25.7809 O.2     1  UNL1       -0.2682
      4 C          49.2189   13.8044  -25.2424 C.ar    1  UNL1        0.1562
      5 C          48.8799   14.8269  -26.1397 C.ar    1  UNL1        0.0271
      6 C          49.5493   16.0516  -26.0654 C.ar    1  UNL1        0.0211
      7 C          49.2485   17.1049  -26.9424 C.ar    1  UNL1        0.0016
      8 C          49.9382   18.3177  -26.8387 C.ar    1  UNL1        0.0001
      9 C          50.9270   18.4841  -25.8629 C.ar    1  UNL1        0.0016
     10 C          51.2314   17.4384  -24.9853 C.ar    1  UNL1        0.0209
     11 C          50.5453   16.2229  -25.0841 C.ar    1  UNL1        0.1029
     12 N          50.8304   15.2008  -24.2373 N.ar    1  UNL1       -0.1479
     13 N          50.1874   14.0346  -24.3144 N.ar    1  UNL1       -0.1434
     14 C          47.1538   14.0954  -22.9625 C.3     1  UNL1        0.0264
     15 C          46.9762   12.6052  -23.2871 C.3     1  UNL1        0.0986
     16 C          47.8320   11.6803  -22.4315 C.ar    1  UNL1       -0.0041
     17 C          47.6048   10.2892  -22.3623 C.ar    1  UNL1       -0.0004
     18 C          48.3733    9.4868  -21.5134 C.ar    1  UNL1        0.0294
     19 C          49.3655   10.0585  -20.7145 C.ar    1  UNL1        0.1401
     20 F          50.1005    9.2791  -19.8838 F       1  UNL1       -0.2042
     21 C          49.5937   11.4348  -20.7651 C.ar    1  UNL1        0.0294
     22 C          48.8330   12.2409  -21.6163 C.ar    1  UNL1       -0.0004
     23 C          46.1501   11.7558  -25.5743 C.3     1  UNL1        0.1207
     24 C          46.0776   12.4441  -26.9148 C.ar    1  UNL1       -0.0021
     25 C          45.9004   13.8341  -26.9888 C.ar    1  UNL1       -0.0026
     26 C          45.8877   14.4768  -28.2270 C.ar    1  UNL1       -0.0001
     27 C          46.0321   13.7387  -29.4031 C.ar    1  UNL1        0.0064
     28 C          46.1709   12.3402  -29.3558 C.ar    1  UNL1        0.0752
     29 C          46.1881   11.7009  -28.1026 C.ar    1  UNL1        0.0038
     30 C          46.3275   11.5687  -30.6137 C.2     1  UNL1        0.3380
     31 O          46.4404   12.1791  -31.7100 O.2     1  UNL1       -0.2451
     32 O          46.3425   10.1742  -30.6260 O.3     1  UNL1       -0.4771
     33 H          46.1537    9.6172  -29.8031 H       1  UNL1        0.2954
@<TRIPOS>BOND
     1    14    15    1
     2    15    16    1
     3    16    17   ar
     4    17    18   ar
     5    18    19   ar
     6    19    20    1
     7    19    21   ar
     8    21    22   ar
     9    15     1    1
    10     1    23    1
    11    23    24    1
    12    24    25   ar
    13    25    26   ar
    14    26    27   ar
    15    27    28   ar
    16    28    30    1
    17    30    31    2
    18    30    32    1
    19    28    29   ar
    20     1     2   am
    21     2     3    2
    22     2     4    1
    23     4     5   ar
    24     5     6   ar
    25     6     7   ar
    26     7     8   ar
    27     8     9   ar
    28     9    10   ar
    29    10    11   ar
    30    11    12   ar
    31    12    13   ar
    32    22    16   ar
    33    29    24   ar
    34    13     4   ar
    35    11     6   ar
    36    32    33    1
