@<TRIPOS>MOLECULE
*****
 59 63 0 0 0
SMALL
GASTEIGER

@<TRIPOS>ATOM
      1 O         -19.1914   -9.2306  -11.1141 O.3     1  UNL1       -0.4513
      2 C         -23.5388  -11.4658  -12.0707 C.3     1  UNL1        0.0318
      3 C         -22.5368  -10.3650  -12.3472 C.ar    1  UNL1       -0.0096
      4 C         -21.3404  -10.3163  -11.5904 C.ar    1  UNL1        0.0880
      5 CL        -21.0578  -11.4638  -10.2740 Cl      1  UNL1       -0.0794
      6 C         -20.4001   -9.2929  -11.8190 C.ar    1  UNL1        0.1577
      7 C         -20.6840   -8.2821  -12.7328 C.ar    1  UNL1        0.0676
      8 C         -21.8744   -8.2888  -13.4536 C.ar    1  UNL1        0.1395
      9 F         -22.1110   -7.2680  -14.3171 F       1  UNL1       -0.2044
     10 C         -22.8112   -9.3272  -13.2844 C.ar    1  UNL1        0.0135
     11 C         -24.1063   -9.2759  -14.0721 C.3     1  UNL1        0.1379
     12 C         -23.9025   -9.7885  -15.4631 C.2     1  UNL1        0.3234
     13 O         -23.3822   -9.0405  -16.3348 O.2     1  UNL1       -0.2497
     14 O         -24.3251  -11.0824  -15.7884 O.3     1  UNL1       -0.4215
     15 C         -23.4785  -12.0675  -16.3826 C.3     1  UNL1        0.3207
     16 O         -24.2691  -13.1744  -16.8074 O.3     1  UNL1       -0.3070
     17 C         -24.4987  -14.1383  -15.7891 C.3     1  UNL1        0.2456
     18 C         -23.1757  -14.8265  -15.3337 C.3     1  UNL1        0.1781
     19 O         -22.9993  -16.0363  -16.0273 O.3     1  UNL1       -0.3790
     20 C         -21.9525  -13.9271  -15.6076 C.3     1  UNL1        0.1733
     21 O         -20.8691  -14.2951  -14.7891 O.3     1  UNL1       -0.3793
     22 C         -22.3154  -12.4456  -15.4251 C.3     1  UNL1        0.2106
     23 O         -21.1975  -11.6405  -15.7020 O.3     1  UNL1       -0.3766
     24 H         -23.6086  -16.7005  -15.6099 H       1  UNL1        0.2106
     25 H         -21.1190  -14.0955  -13.8488 H       1  UNL1        0.2105
     26 H         -20.6453  -11.6161  -14.8773 H       1  UNL1        0.2107
     27 C         -25.3327  -13.5734  -14.6587 C.2     1  UNL1        0.3439
     28 O         -25.2024  -14.0475  -13.4984 O.2     1  UNL1       -0.2475
     29 O         -26.2566  -12.5561  -14.8823 O.3     1  UNL1       -0.4785
     30 H         -26.7988  -12.1698  -14.1201 H       1  UNL1        0.2951
     31 C         -19.0875   -9.1767   -9.7152 C.ar    1  UNL1        0.1598
     32 C         -18.2469  -10.0603   -9.0141 C.ar    1  UNL1        0.0390
     33 C         -18.1927  -10.0311   -7.6202 C.ar    1  UNL1        0.0077
     34 C         -18.9593   -9.1037   -6.9018 C.ar    1  UNL1        0.0548
     35 C         -19.7329   -8.1676   -7.6037 C.ar    1  UNL1        0.0235
     36 C         -19.8354   -8.2170   -9.0065 C.ar    1  UNL1        0.0993
     37 C         -18.9730   -9.1307   -5.4224 C.2     1  UNL1        0.2458
     38 O         -18.6395  -10.1884   -4.8233 O.2     1  UNL1       -0.2701
     39 N         -19.4048   -7.9734   -4.6780 N.am    1  UNL1       -0.3040
     40 H         -19.8479   -7.1979   -5.2210 H       1  UNL1        0.1496
     41 C         -19.3017   -7.8175   -3.2143 C.3     1  UNL1        0.0572
     42 C         -19.1893   -6.3162   -2.8763 C.3     1  UNL1        0.0196
     43 C         -20.5627   -8.3789   -2.5297 C.3     1  UNL1        0.0196
     44 C         -18.0410   -8.5317   -2.6899 C.3     1  UNL1        0.0196
     45 N         -20.7393   -7.3462   -9.7168 N.pl3   1  UNL1       -0.2120
     46 H         -20.4943   -7.0199  -10.6779 H       1  UNL1        0.1738
     47 S         -22.3162   -6.9103   -9.1285 S.O2    1  UNL1        0.0745
     48 O         -22.7193   -7.9228   -8.0936 O.2     1  UNL1       -0.1499
     49 O         -22.2480   -5.5514   -8.4915 O.2     1  UNL1       -0.1499
     50 C         -23.4822   -6.8536  -10.4639 C.ar    1  UNL1        0.1356
     51 C         -24.5282   -7.7866  -10.4823 C.ar    1  UNL1        0.0207
     52 C         -25.5431   -7.7038  -11.4364 C.ar    1  UNL1       -0.0028
     53 C         -25.5171   -6.6969  -12.4220 C.ar    1  UNL1       -0.0216
     54 C         -24.4379   -5.8010  -12.4371 C.ar    1  UNL1        0.0085
     55 C         -23.4235   -5.8721  -11.4752 C.ar    1  UNL1        0.0762
     56 CL        -22.1028   -4.7151  -11.5935 Cl      1  UNL1       -0.0809
     57 C         -26.6085   -6.5034  -13.4609 C.3     1  UNL1        0.0224
     58 C         -26.1683   -5.8625  -14.7700 C.3     1  UNL1        0.0047
     59 C         -27.0542   -5.0878  -13.8019 C.3     1  UNL1        0.0047
@<TRIPOS>BOND
     1     2     3    1
     2     3     4   ar
     3     4     5    1
     4     4     6   ar
     5     6     1    1
     6     1    31    1
     7    31    32   ar
     8    32    33   ar
     9    33    34   ar
    10    34    37    1
    11    37    38    2
    12    37    39   am
    13    39    41    1
    14    41    42    1
    15    41    43    1
    16    41    44    1
    17    34    35   ar
    18    35    36   ar
    19    36    45    1
    20    45    47    1
    21    47    48    2
    22    47    49    2
    23    47    50    1
    24    50    51   ar
    25    51    52   ar
    26    52    53   ar
    27    53    57    1
    28    57    58    1
    29    58    59    1
    30    53    54   ar
    31    54    55   ar
    32    55    56    1
    33     6     7   ar
    34     7     8   ar
    35     8     9    1
    36     8    10   ar
    37    10    11    1
    38    11    12    1
    39    12    13    2
    40    12    14    1
    41    14    15    1
    42    15    16    1
    43    16    17    1
    44    17    27    1
    45    27    28    2
    46    27    29    1
    47    17    18    1
    48    18    19    1
    49    18    20    1
    50    20    21    1
    51    20    22    1
    52    22    23    1
    53    10     3   ar
    54    22    15    1
    55    36    31   ar
    56    55    50   ar
    57    59    57    1
    58    39    40    1
    59    45    46    1
    60    29    30    1
    61    19    24    1
    62    21    25    1
    63    23    26    1
@<TRIPOS>MOLECULE
*****
 59 63 0 0 0
SMALL
GASTEIGER

@<TRIPOS>ATOM
      1 O         -24.4642   -9.2693  -12.7499 O.3     1  UNL1       -0.4513
      2 C         -20.2556  -10.9083  -10.6492 C.3     1  UNL1        0.0318
      3 C         -21.3396   -9.8591  -10.7782 C.ar    1  UNL1       -0.0096
      4 C         -22.3853  -10.0600  -11.7122 C.ar    1  UNL1        0.0880
      5 CL        -22.3798  -11.4672  -12.7844 Cl      1  UNL1       -0.0794
      6 C         -23.3966   -9.0910  -11.8609 C.ar    1  UNL1        0.1577
      7 C         -23.3239   -7.8981  -11.1477 C.ar    1  UNL1        0.0676
      8 C         -22.2796   -7.6637  -10.2583 C.ar    1  UNL1        0.1395
      9 F         -22.2450   -6.4749   -9.6033 F       1  UNL1       -0.2044
     10 C         -21.2814   -8.6357  -10.0497 C.ar    1  UNL1        0.0135
     11 C         -20.1486   -8.3230   -9.0908 C.3     1  UNL1        0.1379
     12 C         -20.5521   -8.6131   -7.6794 C.2     1  UNL1        0.3234
     13 O         -21.7752   -8.6614   -7.3765 O.2     1  UNL1       -0.2497
     14 O         -19.5643   -8.7925   -6.7044 O.3     1  UNL1       -0.4215
     15 C         -19.4647   -7.9993   -5.5208 C.3     1  UNL1        0.3207
     16 O         -18.0952   -7.6945   -5.2713 O.3     1  UNL1       -0.3070
     17 C         -17.4115   -8.6961   -4.5308 C.3     1  UNL1        0.2456
     18 C         -17.9889   -8.8474   -3.0903 C.3     1  UNL1        0.1781
     19 O         -17.2331   -8.0815   -2.1860 O.3     1  UNL1       -0.3790
     20 C         -19.4553   -8.3728   -3.0211 C.3     1  UNL1        0.1733
     21 O         -20.1122   -8.9413   -1.9146 O.3     1  UNL1       -0.3793
     22 C         -20.1909   -8.6874   -4.3326 C.3     1  UNL1        0.2106
     23 O         -21.5166   -8.2269   -4.2612 O.3     1  UNL1       -0.3766
     24 H         -16.3938   -8.5837   -2.0126 H       1  UNL1        0.2106
     25 H         -20.1748   -9.9202   -2.0702 H       1  UNL1        0.2105
     26 H         -22.0417   -8.9246   -3.7887 H       1  UNL1        0.2107
     27 C         -17.3076   -9.9937   -5.3040 C.2     1  UNL1        0.3439
     28 O         -17.2225  -11.0823   -4.6751 O.2     1  UNL1       -0.2475
     29 O         -17.2813  -10.0040   -6.6961 O.3     1  UNL1       -0.4785
     30 H         -17.2297  -10.8752   -7.2083 H       1  UNL1        0.2951
     31 C         -25.3001   -8.2384  -13.2071 C.ar    1  UNL1        0.1598
     32 C         -26.6461   -8.1617  -12.8055 C.ar    1  UNL1        0.0390
     33 C         -27.4800   -7.1625  -13.3084 C.ar    1  UNL1        0.0077
     34 C         -26.9794   -6.2077  -14.2036 C.ar    1  UNL1        0.0548
     35 C         -25.6176   -6.2336  -14.5388 C.ar    1  UNL1        0.0235
     36 C         -24.7766   -7.2639  -14.0783 C.ar    1  UNL1        0.0993
     37 C         -27.8823   -5.2031  -14.8080 C.2     1  UNL1        0.2458
     38 O         -27.3910   -4.2726  -15.5019 O.2     1  UNL1       -0.2701
     39 N         -29.3032   -5.2651  -14.5684 N.am    1  UNL1       -0.3040
     40 H         -29.6326   -5.9364  -13.8380 H       1  UNL1        0.1496
     41 C         -30.3162   -4.4333  -15.2461 C.3     1  UNL1        0.0572
     42 C         -31.6858   -5.1384  -15.1567 C.3     1  UNL1        0.0196
     43 C         -30.4273   -3.0614  -14.5538 C.3     1  UNL1        0.0196
     44 C         -29.9535   -4.2582  -16.7335 C.3     1  UNL1        0.0196
     45 N         -23.4129   -7.3702  -14.5352 N.pl3   1  UNL1       -0.2120
     46 H         -22.6316   -7.1003  -13.8974 H       1  UNL1        0.1738
     47 S         -22.9615   -8.0740  -16.0596 S.O2    1  UNL1        0.0745
     48 O         -23.8953   -7.5407  -17.1094 O.2     1  UNL1       -0.1499
     49 O         -21.5548   -7.6667  -16.3949 O.2     1  UNL1       -0.1499
     50 C         -23.0342   -9.8440  -15.9709 C.ar    1  UNL1        0.1356
     51 C         -24.2635  -10.4521  -15.6809 C.ar    1  UNL1        0.0207
     52 C         -24.4030  -11.8397  -15.7272 C.ar    1  UNL1       -0.0028
     53 C         -23.2988  -12.6592  -16.0354 C.ar    1  UNL1       -0.0216
     54 C         -22.0562  -12.0510  -16.2668 C.ar    1  UNL1        0.0085
     55 C         -21.9133  -10.6590  -16.2335 C.ar    1  UNL1        0.0762
     56 CL        -20.3082   -9.9954  -16.5169 Cl      1  UNL1       -0.0809
     57 C         -23.3777  -14.1713  -16.1601 C.3     1  UNL1        0.0224
     58 C         -24.7693  -14.7737  -16.0235 C.3     1  UNL1        0.0047
     59 C         -23.7333  -14.9916  -14.9275 C.3     1  UNL1        0.0047
@<TRIPOS>BOND
     1     2     3    1
     2     3     4   ar
     3     4     5    1
     4     4     6   ar
     5     6     1    1
     6     1    31    1
     7    31    32   ar
     8    32    33   ar
     9    33    34   ar
    10    34    37    1
    11    37    38    2
    12    37    39   am
    13    39    41    1
    14    41    42    1
    15    41    43    1
    16    41    44    1
    17    34    35   ar
    18    35    36   ar
    19    36    45    1
    20    45    47    1
    21    47    48    2
    22    47    49    2
    23    47    50    1
    24    50    51   ar
    25    51    52   ar
    26    52    53   ar
    27    53    57    1
    28    57    58    1
    29    58    59    1
    30    53    54   ar
    31    54    55   ar
    32    55    56    1
    33     6     7   ar
    34     7     8   ar
    35     8     9    1
    36     8    10   ar
    37    10    11    1
    38    11    12    1
    39    12    13    2
    40    12    14    1
    41    14    15    1
    42    15    16    1
    43    16    17    1
    44    17    27    1
    45    27    28    2
    46    27    29    1
    47    17    18    1
    48    18    19    1
    49    18    20    1
    50    20    21    1
    51    20    22    1
    52    22    23    1
    53    10     3   ar
    54    22    15    1
    55    36    31   ar
    56    55    50   ar
    57    59    57    1
    58    39    40    1
    59    45    46    1
    60    29    30    1
    61    19    24    1
    62    21    25    1
    63    23    26    1
@<TRIPOS>MOLECULE
*****
 59 63 0 0 0
SMALL
GASTEIGER

@<TRIPOS>ATOM
      1 O         -24.5375   -9.1142  -13.0274 O.3     1  UNL1       -0.4513
      2 C         -20.5010  -10.8456  -10.6779 C.3     1  UNL1        0.0318
      3 C         -21.5220   -9.7513  -10.9060 C.ar    1  UNL1       -0.0096
      4 C         -22.5426   -9.9506  -11.8679 C.ar    1  UNL1        0.0880
      5 CL        -22.5735  -11.4145  -12.8607 Cl      1  UNL1       -0.0794
      6 C         -23.4947   -8.9410  -12.1085 C.ar    1  UNL1        0.1577
      7 C         -23.3842   -7.7150  -11.4591 C.ar    1  UNL1        0.0676
      8 C         -22.3617   -7.4847  -10.5436 C.ar    1  UNL1        0.1395
      9 F         -22.2874   -6.2641   -9.9536 F       1  UNL1       -0.2044
     10 C         -21.4250   -8.4933  -10.2436 C.ar    1  UNL1        0.0135
     11 C         -20.3125   -8.1854   -9.2597 C.3     1  UNL1        0.1379
     12 C         -20.8323   -8.1749   -7.8566 C.2     1  UNL1        0.3234
     13 O         -22.0071   -8.5685   -7.6223 O.2     1  UNL1       -0.2497
     14 O         -20.0181   -7.6941   -6.8248 O.3     1  UNL1       -0.4215
     15 C         -18.7510   -8.2593   -6.4854 C.3     1  UNL1        0.3207
     16 O         -18.9522   -9.5087   -5.8303 O.3     1  UNL1       -0.3070
     17 C         -19.1578   -9.3939   -4.4291 C.3     1  UNL1        0.2456
     18 C         -17.8972   -8.8337   -3.7023 C.3     1  UNL1        0.1781
     19 O         -17.1198   -9.8926   -3.2022 O.3     1  UNL1       -0.3790
     20 C         -17.0219   -7.9993   -4.6605 C.3     1  UNL1        0.1733
     21 O         -16.1952   -7.1173   -3.9409 O.3     1  UNL1       -0.3793
     22 C         -17.8939   -7.2470   -5.6771 C.3     1  UNL1        0.2106
     23 O         -17.0800   -6.5125   -6.5562 O.3     1  UNL1       -0.3766
     24 H         -17.5727  -10.2214   -2.3817 H       1  UNL1        0.2106
     25 H         -16.7804   -6.4505   -3.4944 H       1  UNL1        0.2105
     26 H         -16.8576   -5.6584   -6.1014 H       1  UNL1        0.2107
     27 C         -20.4436   -8.6615   -4.1082 C.2     1  UNL1        0.3439
     28 O         -20.4723   -7.8615   -3.1350 O.2     1  UNL1       -0.2475
     29 O         -21.6000   -8.8730   -4.8543 O.3     1  UNL1       -0.4785
     30 H         -22.4518   -8.3677   -4.6468 H       1  UNL1        0.2951
     31 C         -25.4028   -8.0933  -13.4512 C.ar    1  UNL1        0.1598
     32 C         -26.7503   -8.0684  -13.0479 C.ar    1  UNL1        0.0390
     33 C         -27.6128   -7.0778  -13.5185 C.ar    1  UNL1        0.0077
     34 C         -27.1402   -6.0803  -14.3819 C.ar    1  UNL1        0.0548
     35 C         -25.7784   -6.0562  -14.7171 C.ar    1  UNL1        0.0235
     36 C         -24.9080   -7.0764  -14.2900 C.ar    1  UNL1        0.0993
     37 C         -28.0719   -5.0830  -14.9536 C.2     1  UNL1        0.2458
     38 O         -27.6156   -4.1624  -15.6837 O.2     1  UNL1       -0.2701
     39 N         -29.4790   -5.1402  -14.6423 N.am    1  UNL1       -0.3040
     40 H         -29.7717   -5.8013  -13.8874 H       1  UNL1        0.1496
     41 C         -30.5244   -4.3165  -15.2795 C.3     1  UNL1        0.0572
     42 C         -31.8980   -4.9791  -15.0444 C.3     1  UNL1        0.0196
     43 C         -30.5477   -2.9091  -14.6530 C.3     1  UNL1        0.0196
     44 C         -30.2796   -4.2261  -16.7981 C.3     1  UNL1        0.0196
     45 N         -23.5419   -7.1285  -14.7495 N.pl3   1  UNL1       -0.2120
     46 H         -22.7727   -6.8065  -14.1213 H       1  UNL1        0.1738
     47 S         -23.0616   -7.8465  -16.2583 S.O2    1  UNL1        0.0745
     48 O         -24.0039   -7.3590  -17.3227 O.2     1  UNL1       -0.1499
     49 O         -21.6651   -7.4053  -16.5933 O.2     1  UNL1       -0.1499
     50 C         -23.0845   -9.6160  -16.1379 C.ar    1  UNL1        0.1356
     51 C         -24.3167  -10.2616  -15.9652 C.ar    1  UNL1        0.0207
     52 C         -24.4044  -11.6539  -15.9946 C.ar    1  UNL1       -0.0028
     53 C         -23.2472  -12.4395  -16.1664 C.ar    1  UNL1       -0.0216
     54 C         -22.0079  -11.7922  -16.2794 C.ar    1  UNL1        0.0085
     55 C         -21.9156  -10.3956  -16.2626 C.ar    1  UNL1        0.0762
     56 CL        -20.3125   -9.6811  -16.3905 Cl      1  UNL1       -0.0809
     57 C         -23.2621  -13.9555  -16.2646 C.3     1  UNL1        0.0224
     58 C         -24.2814  -14.6646  -15.3833 C.3     1  UNL1        0.0047
     59 C         -22.7944  -14.7729  -15.0680 C.3     1  UNL1        0.0047
@<TRIPOS>BOND
     1     2     3    1
     2     3     4   ar
     3     4     5    1
     4     4     6   ar
     5     6     1    1
     6     1    31    1
     7    31    32   ar
     8    32    33   ar
     9    33    34   ar
    10    34    37    1
    11    37    38    2
    12    37    39   am
    13    39    41    1
    14    41    42    1
    15    41    43    1
    16    41    44    1
    17    34    35   ar
    18    35    36   ar
    19    36    45    1
    20    45    47    1
    21    47    48    2
    22    47    49    2
    23    47    50    1
    24    50    51   ar
    25    51    52   ar
    26    52    53   ar
    27    53    57    1
    28    57    58    1
    29    58    59    1
    30    53    54   ar
    31    54    55   ar
    32    55    56    1
    33     6     7   ar
    34     7     8   ar
    35     8     9    1
    36     8    10   ar
    37    10    11    1
    38    11    12    1
    39    12    13    2
    40    12    14    1
    41    14    15    1
    42    15    16    1
    43    16    17    1
    44    17    27    1
    45    27    28    2
    46    27    29    1
    47    17    18    1
    48    18    19    1
    49    18    20    1
    50    20    21    1
    51    20    22    1
    52    22    23    1
    53    10     3   ar
    54    22    15    1
    55    36    31   ar
    56    55    50   ar
    57    59    57    1
    58    39    40    1
    59    45    46    1
    60    29    30    1
    61    19    24    1
    62    21    25    1
    63    23    26    1
@<TRIPOS>MOLECULE
*****
 59 63 0 0 0
SMALL
GASTEIGER

@<TRIPOS>ATOM
      1 O         -25.9525   -8.8967  -10.3498 O.3     1  UNL1       -0.4513
      2 C         -21.6577  -10.9968  -11.7483 C.3     1  UNL1        0.0318
      3 C         -22.4749  -10.2219  -10.7364 C.ar    1  UNL1       -0.0096
      4 C         -23.8273   -9.9193  -11.0294 C.ar    1  UNL1        0.0880
      5 CL        -24.5307  -10.3529  -12.5936 Cl      1  UNL1       -0.0794
      6 C         -24.6032   -9.1865  -10.1103 C.ar    1  UNL1        0.1577
      7 C         -24.0174   -8.6894   -8.9498 C.ar    1  UNL1        0.0676
      8 C         -22.6779   -8.9385   -8.6663 C.ar    1  UNL1        0.1395
      9 F         -22.1506   -8.4129   -7.5309 F       1  UNL1       -0.2044
     10 C         -21.8900   -9.7121   -9.5411 C.ar    1  UNL1        0.0135
     11 C         -20.4280   -9.9330   -9.2027 C.3     1  UNL1        0.1379
     12 C         -19.9356   -8.8789   -8.2618 C.2     1  UNL1        0.3234
     13 O         -19.8101   -7.6906   -8.6648 O.2     1  UNL1       -0.2497
     14 O         -19.5862   -9.2330   -6.9537 O.3     1  UNL1       -0.4215
     15 C         -19.5378   -8.3069   -5.8673 C.3     1  UNL1        0.3207
     16 O         -18.1855   -7.9210   -5.6368 O.3     1  UNL1       -0.3070
     17 C         -17.4767   -8.8034   -4.7779 C.3     1  UNL1        0.2456
     18 C         -18.0727   -8.8131   -3.3372 C.3     1  UNL1        0.1781
     19 O         -17.3627   -7.9196   -2.5167 O.3     1  UNL1       -0.3790
     20 C         -19.5573   -8.3930   -3.3415 C.3     1  UNL1        0.1733
     21 O         -20.2109   -8.8580   -2.1857 O.3     1  UNL1       -0.3793
     22 C         -20.2573   -8.8841   -4.6176 C.3     1  UNL1        0.2106
     23 O         -21.6008   -8.4721   -4.6163 O.3     1  UNL1       -0.3766
     24 H         -16.5079   -8.3645   -2.2763 H       1  UNL1        0.2106
     25 H         -20.2330   -9.8500   -2.2291 H       1  UNL1        0.2105
     26 H         -22.1068   -9.1322   -4.0740 H       1  UNL1        0.2107
     27 C         -17.3096  -10.1753   -5.3964 C.2     1  UNL1        0.3439
     28 O         -17.2146  -11.1835   -4.6464 O.2     1  UNL1       -0.2475
     29 O         -17.2359  -10.3403   -6.7770 O.3     1  UNL1       -0.4785
     30 H         -17.1421  -11.2612   -7.1858 H       1  UNL1        0.2951
     31 C         -26.4138   -8.0175  -11.3422 C.ar    1  UNL1        0.1598
     32 C         -27.5148   -8.3492  -12.1526 C.ar    1  UNL1        0.0390
     33 C         -27.9305   -7.4897  -13.1700 C.ar    1  UNL1        0.0077
     34 C         -27.2691   -6.2726  -13.3820 C.ar    1  UNL1        0.0548
     35 C         -26.2252   -5.9036  -12.5208 C.ar    1  UNL1        0.0235
     36 C         -25.7636   -6.7816  -11.5224 C.ar    1  UNL1        0.0993
     37 C         -27.6496   -5.4022  -14.5166 C.2     1  UNL1        0.2458
     38 O         -28.8603   -5.0878  -14.6718 O.2     1  UNL1       -0.2701
     39 N         -26.6516   -4.9560  -15.4573 N.am    1  UNL1       -0.3040
     40 H         -25.7064   -5.3976  -15.3918 H       1  UNL1        0.1496
     41 C         -26.8723   -3.9565  -16.5201 C.3     1  UNL1        0.0572
     42 C         -26.1677   -2.6415  -16.1264 C.3     1  UNL1        0.0196
     43 C         -26.2723   -4.4527  -17.8496 C.3     1  UNL1        0.0196
     44 C         -28.3785   -3.6739  -16.6812 C.3     1  UNL1        0.0196
     45 N         -24.6013   -6.4617  -10.7308 N.pl3   1  UNL1       -0.2120
     46 H         -24.6431   -6.5521   -9.6915 H       1  UNL1        0.1738
     47 S         -23.0514   -6.0686  -11.4133 S.O2    1  UNL1        0.0745
     48 O         -23.0676   -4.6136  -11.7891 O.2     1  UNL1       -0.1499
     49 O         -21.9837   -6.3019  -10.3824 O.2     1  UNL1       -0.1499
     50 C         -22.7156   -7.0945  -12.8208 C.ar    1  UNL1        0.1356
     51 C         -23.7373   -7.3059  -13.7569 C.ar    1  UNL1        0.0207
     52 C         -23.4876   -7.9958  -14.9438 C.ar    1  UNL1       -0.0028
     53 C         -22.2077   -8.5226  -15.2087 C.ar    1  UNL1       -0.0216
     54 C         -21.2030   -8.3608  -14.2432 C.ar    1  UNL1        0.0085
     55 C         -21.4447   -7.6593  -13.0564 C.ar    1  UNL1        0.0762
     56 CL        -20.1242   -7.5298  -11.9004 Cl      1  UNL1       -0.0809
     57 C         -21.8383   -9.2371  -16.4975 C.3     1  UNL1        0.0224
     58 C         -22.9009  -10.1687  -17.0643 C.3     1  UNL1        0.0047
     59 C         -21.6234  -10.7443  -16.4652 C.3     1  UNL1        0.0047
@<TRIPOS>BOND
     1     2     3    1
     2     3     4   ar
     3     4     5    1
     4     4     6   ar
     5     6     1    1
     6     1    31    1
     7    31    32   ar
     8    32    33   ar
     9    33    34   ar
    10    34    37    1
    11    37    38    2
    12    37    39   am
    13    39    41    1
    14    41    42    1
    15    41    43    1
    16    41    44    1
    17    34    35   ar
    18    35    36   ar
    19    36    45    1
    20    45    47    1
    21    47    48    2
    22    47    49    2
    23    47    50    1
    24    50    51   ar
    25    51    52   ar
    26    52    53   ar
    27    53    57    1
    28    57    58    1
    29    58    59    1
    30    53    54   ar
    31    54    55   ar
    32    55    56    1
    33     6     7   ar
    34     7     8   ar
    35     8     9    1
    36     8    10   ar
    37    10    11    1
    38    11    12    1
    39    12    13    2
    40    12    14    1
    41    14    15    1
    42    15    16    1
    43    16    17    1
    44    17    27    1
    45    27    28    2
    46    27    29    1
    47    17    18    1
    48    18    19    1
    49    18    20    1
    50    20    21    1
    51    20    22    1
    52    22    23    1
    53    10     3   ar
    54    22    15    1
    55    36    31   ar
    56    55    50   ar
    57    59    57    1
    58    39    40    1
    59    45    46    1
    60    29    30    1
    61    19    24    1
    62    21    25    1
    63    23    26    1
@<TRIPOS>MOLECULE
*****
 59 63 0 0 0
SMALL
GASTEIGER

@<TRIPOS>ATOM
      1 O         -20.7946   -7.9996  -12.1326 O.3     1  UNL1       -0.4513
      2 C         -23.8010   -7.5007  -16.0727 C.3     1  UNL1        0.0318
      3 C         -23.5819   -7.4836  -14.5747 C.ar    1  UNL1       -0.0096
      4 C         -22.2898   -7.7593  -14.0641 C.ar    1  UNL1        0.0880
      5 CL        -20.9684   -8.2128  -15.1494 Cl      1  UNL1       -0.0794
      6 C         -22.0649   -7.7641  -12.6738 C.ar    1  UNL1        0.1577
      7 C         -23.1309   -7.5779  -11.7985 C.ar    1  UNL1        0.0676
      8 C         -24.4160   -7.3501  -12.2812 C.ar    1  UNL1        0.1395
      9 F         -25.4237   -7.1955  -11.3844 F       1  UNL1       -0.2044
     10 C         -24.6628   -7.2881  -13.6668 C.ar    1  UNL1        0.0135
     11 C         -26.0849   -7.0649  -14.1447 C.3     1  UNL1        0.1379
     12 C         -26.4313   -5.6094  -14.1194 C.2     1  UNL1        0.3234
     13 O         -26.0558   -4.8943  -13.1511 O.2     1  UNL1       -0.2497
     14 O         -27.1996   -5.0669  -15.1558 O.3     1  UNL1       -0.4215
     15 C         -26.7112   -4.0927  -16.0791 C.3     1  UNL1        0.3207
     16 O         -27.5329   -2.9301  -16.0166 O.3     1  UNL1       -0.3070
     17 C         -28.6796   -2.9939  -16.8531 C.3     1  UNL1        0.2456
     18 C         -28.2933   -3.0504  -18.3627 C.3     1  UNL1        0.1781
     19 O         -28.3267   -1.7590  -18.9166 O.3     1  UNL1       -0.3790
     20 C         -26.8749   -3.6256  -18.5575 C.3     1  UNL1        0.1733
     21 O         -26.7149   -4.1277  -19.8619 O.3     1  UNL1       -0.3793
     22 C         -26.5747   -4.7005  -17.5019 C.3     1  UNL1        0.2106
     23 O         -25.2715   -5.1955  -17.6789 O.3     1  UNL1       -0.3766
     24 H         -29.2823   -1.5323  -19.0644 H       1  UNL1        0.2106
     25 H         -27.3168   -4.9116  -19.9602 H       1  UNL1        0.2105
     26 H         -25.3180   -5.8905  -18.3865 H       1  UNL1        0.2107
     27 C         -29.6382   -4.0790  -16.4103 C.2     1  UNL1        0.3439
     28 O         -30.3030   -4.7072  -17.2772 O.2     1  UNL1       -0.2475
     29 O         -29.8153   -4.3793  -15.0623 O.3     1  UNL1       -0.4785
     30 H         -30.4439   -5.1176  -14.7728 H       1  UNL1        0.2951
     31 C         -20.5114   -8.0493  -10.7586 C.ar    1  UNL1        0.1598
     32 C         -20.6981   -6.9231   -9.9366 C.ar    1  UNL1        0.0390
     33 C         -20.3631   -6.9702   -8.5831 C.ar    1  UNL1        0.0077
     34 C         -19.8573   -8.1497   -8.0202 C.ar    1  UNL1        0.0548
     35 C         -19.7501   -9.2968   -8.8202 C.ar    1  UNL1        0.0235
     36 C         -20.0374   -9.2505  -10.1972 C.ar    1  UNL1        0.0993
     37 C         -19.4166   -8.1754   -6.6079 C.2     1  UNL1        0.2458
     38 O         -20.2465   -8.4812   -5.7098 O.2     1  UNL1       -0.2701
     39 N         -18.0645   -7.8122   -6.2613 N.am    1  UNL1       -0.3040
     40 H         -17.4791   -7.3868   -7.0157 H       1  UNL1        0.1496
     41 C         -17.4609   -7.9616   -4.9232 C.3     1  UNL1        0.0572
     42 C         -16.0461   -7.3461   -4.9393 C.3     1  UNL1        0.0196
     43 C         -18.3058   -7.2159   -3.8725 C.3     1  UNL1        0.0196
     44 C         -17.3400   -9.4535   -4.5568 C.3     1  UNL1        0.0196
     45 N         -19.7930  -10.3904  -11.0462 N.pl3   1  UNL1       -0.2120
     46 H         -18.8520  -10.5199  -11.4793 H       1  UNL1        0.1738
     47 S         -20.9401  -11.6748  -11.2854 S.O2    1  UNL1        0.0745
     48 O         -20.1967  -12.9786  -11.2084 O.2     1  UNL1       -0.1499
     49 O         -21.9706  -11.6271  -10.1932 O.2     1  UNL1       -0.1499
     50 C         -21.7597  -11.4910  -12.8477 C.ar    1  UNL1        0.1356
     51 C         -21.0253  -11.7103  -14.0213 C.ar    1  UNL1        0.0207
     52 C         -21.6521  -11.7058  -15.2680 C.ar    1  UNL1       -0.0028
     53 C         -23.0334  -11.4476  -15.3726 C.ar    1  UNL1       -0.0216
     54 C         -23.7542  -11.1698  -14.2017 C.ar    1  UNL1        0.0085
     55 C         -23.1330  -11.1848  -12.9476 C.ar    1  UNL1        0.0762
     56 CL        -24.1205  -10.8029  -11.5419 Cl      1  UNL1       -0.0809
     57 C         -23.8018  -11.4782  -16.6829 C.3     1  UNL1        0.0224
     58 C         -23.0380  -12.0182  -17.8842 C.3     1  UNL1        0.0047
     59 C         -23.3810  -10.5357  -17.8024 C.3     1  UNL1        0.0047
@<TRIPOS>BOND
     1     2     3    1
     2     3     4   ar
     3     4     5    1
     4     4     6   ar
     5     6     1    1
     6     1    31    1
     7    31    32   ar
     8    32    33   ar
     9    33    34   ar
    10    34    37    1
    11    37    38    2
    12    37    39   am
    13    39    41    1
    14    41    42    1
    15    41    43    1
    16    41    44    1
    17    34    35   ar
    18    35    36   ar
    19    36    45    1
    20    45    47    1
    21    47    48    2
    22    47    49    2
    23    47    50    1
    24    50    51   ar
    25    51    52   ar
    26    52    53   ar
    27    53    57    1
    28    57    58    1
    29    58    59    1
    30    53    54   ar
    31    54    55   ar
    32    55    56    1
    33     6     7   ar
    34     7     8   ar
    35     8     9    1
    36     8    10   ar
    37    10    11    1
    38    11    12    1
    39    12    13    2
    40    12    14    1
    41    14    15    1
    42    15    16    1
    43    16    17    1
    44    17    27    1
    45    27    28    2
    46    27    29    1
    47    17    18    1
    48    18    19    1
    49    18    20    1
    50    20    21    1
    51    20    22    1
    52    22    23    1
    53    10     3   ar
    54    22    15    1
    55    36    31   ar
    56    55    50   ar
    57    59    57    1
    58    39    40    1
    59    45    46    1
    60    29    30    1
    61    19    24    1
    62    21    25    1
    63    23    26    1
@<TRIPOS>MOLECULE
*****
 59 63 0 0 0
SMALL
GASTEIGER

@<TRIPOS>ATOM
      1 O         -22.7501   -7.1300  -10.2555 O.3     1  UNL1       -0.4513
      2 C         -24.0152   -6.5654  -15.0401 C.3     1  UNL1        0.0318
      3 C         -23.2529   -7.3021  -13.9591 C.ar    1  UNL1       -0.0096
      4 C         -23.3577   -6.8586  -12.6179 C.ar    1  UNL1        0.0880
      5 CL        -24.2866   -5.4073  -12.2172 Cl      1  UNL1       -0.0794
      6 C         -22.6461   -7.5185  -11.5972 C.ar    1  UNL1        0.1577
      7 C         -21.7758   -8.5562  -11.9182 C.ar    1  UNL1        0.0676
      8 C         -21.6259   -8.9765  -13.2362 C.ar    1  UNL1        0.1395
      9 F         -20.7484   -9.9793  -13.4973 F       1  UNL1       -0.2044
     10 C         -22.3632   -8.3703  -14.2723 C.ar    1  UNL1        0.0135
     11 C         -22.1449   -8.8446  -15.6963 C.3     1  UNL1        0.1379
     12 C         -23.0579   -9.9844  -16.0223 C.2     1  UNL1        0.3234
     13 O         -23.9587   -9.8346  -16.8919 O.2     1  UNL1       -0.2497
     14 O         -22.9227  -11.1937  -15.3310 O.3     1  UNL1       -0.4215
     15 C         -22.6591  -12.4455  -15.9664 C.3     1  UNL1        0.3207
     16 O         -23.7414  -12.7707  -16.8345 O.3     1  UNL1       -0.3070
     17 C         -24.8119  -13.4446  -16.1873 C.3     1  UNL1        0.2456
     18 C         -24.3777  -14.8441  -15.6541 C.3     1  UNL1        0.1781
     19 O         -24.7087  -15.8394  -16.5899 O.3     1  UNL1       -0.3790
     20 C         -22.8566  -14.9012  -15.4022 C.3     1  UNL1        0.1733
     21 O         -22.5392  -15.9285  -14.4951 O.3     1  UNL1       -0.3793
     22 C         -22.3351  -13.5411  -14.9142 C.3     1  UNL1        0.2106
     23 O         -20.9458  -13.6043  -14.7135 O.3     1  UNL1       -0.3766
     24 H         -25.6858  -15.9984  -16.5096 H       1  UNL1        0.2106
     25 H         -22.9281  -15.6852  -13.6143 H       1  UNL1        0.2105
     26 H         -20.7997  -13.9940  -13.8120 H       1  UNL1        0.2107
     27 C         -25.4894  -12.5644  -15.1584 C.2     1  UNL1        0.3439
     28 O         -25.7647  -13.0397  -14.0243 O.2     1  UNL1       -0.2475
     29 O         -25.8343  -11.2474  -15.4504 O.3     1  UNL1       -0.4785
     30 H         -26.2709  -10.6579  -14.7533 H       1  UNL1        0.2951
     31 C         -21.8323   -7.4789   -9.2522 C.ar    1  UNL1        0.1598
     32 C         -20.4940   -7.0493   -9.3099 C.ar    1  UNL1        0.0390
     33 C         -19.5794   -7.4466   -8.3341 C.ar    1  UNL1        0.0077
     34 C         -19.9895   -8.2612   -7.2701 C.ar    1  UNL1        0.0548
     35 C         -21.3414   -8.6203   -7.1667 C.ar    1  UNL1        0.0235
     36 C         -22.2644   -8.2682   -8.1692 C.ar    1  UNL1        0.0993
     37 C         -19.0032   -8.7578   -6.2851 C.2     1  UNL1        0.2458
     38 O         -18.2146   -9.6834   -6.6171 O.2     1  UNL1       -0.2701
     39 N         -18.9757   -8.2178   -4.9480 N.am    1  UNL1       -0.3040
     40 H         -19.7683   -7.5950   -4.6712 H       1  UNL1        0.1496
     41 C         -17.9396   -8.5042   -3.9371 C.3     1  UNL1        0.0572
     42 C         -17.7588  -10.0323   -3.8231 C.3     1  UNL1        0.0196
     43 C         -16.5952   -7.8840   -4.3632 C.3     1  UNL1        0.0196
     44 C         -18.3721   -7.9599   -2.5620 C.3     1  UNL1        0.0196
     45 N         -23.6212   -8.7558   -8.1348 N.pl3   1  UNL1       -0.2120
     46 H         -24.3427   -8.2379   -7.5860 H       1  UNL1        0.1738
     47 S         -24.1858  -10.0963   -9.0872 S.O2    1  UNL1        0.0745
     48 O         -22.9847  -10.8684   -9.5559 O.2     1  UNL1       -0.1499
     49 O         -25.0426  -10.9850   -8.2310 O.2     1  UNL1       -0.1499
     50 C         -25.1559   -9.5194  -10.4555 C.ar    1  UNL1        0.1356
     51 C         -26.0781   -8.4867  -10.2370 C.ar    1  UNL1        0.0207
     52 C         -26.7707   -7.9097  -11.3021 C.ar    1  UNL1       -0.0028
     53 C         -26.5790   -8.3786  -12.6171 C.ar    1  UNL1       -0.0216
     54 C         -25.6999   -9.4517  -12.8250 C.ar    1  UNL1        0.0085
     55 C         -24.9936  -10.0262  -11.7619 C.ar    1  UNL1        0.0762
     56 CL        -23.9310  -11.3813  -12.1244 Cl      1  UNL1       -0.0809
     57 C         -27.2505   -7.7710  -13.8370 C.3     1  UNL1        0.0224
     58 C         -27.5159   -6.2733  -13.7677 C.3     1  UNL1        0.0047
     59 C         -28.6782   -7.2571  -13.7089 C.3     1  UNL1        0.0047
@<TRIPOS>BOND
     1     2     3    1
     2     3     4   ar
     3     4     5    1
     4     4     6   ar
     5     6     1    1
     6     1    31    1
     7    31    32   ar
     8    32    33   ar
     9    33    34   ar
    10    34    37    1
    11    37    38    2
    12    37    39   am
    13    39    41    1
    14    41    42    1
    15    41    43    1
    16    41    44    1
    17    34    35   ar
    18    35    36   ar
    19    36    45    1
    20    45    47    1
    21    47    48    2
    22    47    49    2
    23    47    50    1
    24    50    51   ar
    25    51    52   ar
    26    52    53   ar
    27    53    57    1
    28    57    58    1
    29    58    59    1
    30    53    54   ar
    31    54    55   ar
    32    55    56    1
    33     6     7   ar
    34     7     8   ar
    35     8     9    1
    36     8    10   ar
    37    10    11    1
    38    11    12    1
    39    12    13    2
    40    12    14    1
    41    14    15    1
    42    15    16    1
    43    16    17    1
    44    17    27    1
    45    27    28    2
    46    27    29    1
    47    17    18    1
    48    18    19    1
    49    18    20    1
    50    20    21    1
    51    20    22    1
    52    22    23    1
    53    10     3   ar
    54    22    15    1
    55    36    31   ar
    56    55    50   ar
    57    59    57    1
    58    39    40    1
    59    45    46    1
    60    29    30    1
    61    19    24    1
    62    21    25    1
    63    23    26    1
@<TRIPOS>MOLECULE
*****
 59 63 0 0 0
SMALL
GASTEIGER

@<TRIPOS>ATOM
      1 O         -19.7586   -9.7120  -11.3239 O.3     1  UNL1       -0.4513
      2 C         -23.2408   -7.9170  -14.4001 C.3     1  UNL1        0.0318
      3 C         -22.8371   -8.8209  -13.2547 C.ar    1  UNL1       -0.0096
      4 C         -21.4833   -8.8430  -12.8384 C.ar    1  UNL1        0.0880
      5 CL        -20.2582   -7.9035  -13.7022 Cl      1  UNL1       -0.0794
      6 C         -21.0809   -9.6870  -11.7851 C.ar    1  UNL1        0.1577
      7 C         -21.9981  -10.5596  -11.2070 C.ar    1  UNL1        0.0676
      8 C         -23.3226  -10.5841  -11.6331 C.ar    1  UNL1        0.1395
      9 F         -24.1714  -11.4689  -11.0499 F       1  UNL1       -0.2044
     10 C         -23.7669   -9.7151  -12.6491 C.ar    1  UNL1        0.0135
     11 C         -25.2131   -9.7983  -13.0985 C.3     1  UNL1        0.1379
     12 C         -25.3744  -10.8161  -14.1835 C.2     1  UNL1        0.3234
     13 O         -26.4971  -10.9663  -14.7376 O.2     1  UNL1       -0.2497
     14 O         -24.2835  -11.6144  -14.5456 O.3     1  UNL1       -0.4215
     15 C         -24.2571  -13.0350  -14.3997 C.3     1  UNL1        0.3207
     16 O         -22.9233  -13.5029  -14.5809 O.3     1  UNL1       -0.3070
     17 C         -22.5799  -13.7418  -15.9388 C.3     1  UNL1        0.2456
     18 C         -23.4269  -14.8961  -16.5564 C.3     1  UNL1        0.1781
     19 O         -22.7206  -16.1086  -16.4734 O.3     1  UNL1       -0.3790
     20 C         -24.7697  -15.0648  -15.8156 C.3     1  UNL1        0.1733
     21 O         -25.7090  -15.7243  -16.6291 O.3     1  UNL1       -0.3793
     22 C         -25.3000  -13.7054  -15.3354 C.3     1  UNL1        0.2106
     23 O         -26.5098  -13.8804  -14.6423 O.3     1  UNL1       -0.3766
     24 H         -22.0329  -16.0923  -17.1898 H       1  UNL1        0.2106
     25 H         -25.9201  -15.1261  -17.3934 H       1  UNL1        0.2105
     26 H         -27.2304  -13.9310  -15.3235 H       1  UNL1        0.2107
     27 C         -22.5763  -12.4635  -16.7504 C.2     1  UNL1        0.3439
     28 O         -21.5745  -11.7010  -16.6973 O.2     1  UNL1       -0.2475
     29 O         -23.6685  -12.1043  -17.5357 O.3     1  UNL1       -0.4785
     30 H         -23.6539  -11.2579  -18.0901 H       1  UNL1        0.2951
     31 C         -19.3776   -9.5108   -9.9879 C.ar    1  UNL1        0.1598
     32 C         -18.5432  -10.4283   -9.3238 C.ar    1  UNL1        0.0390
     33 C         -18.2148  -10.2439   -7.9803 C.ar    1  UNL1        0.0077
     34 C         -18.6945   -9.1279   -7.2816 C.ar    1  UNL1        0.0548
     35 C         -19.4569   -8.1698   -7.9658 C.ar    1  UNL1        0.0235
     36 C         -19.8367   -8.3673   -9.3065 C.ar    1  UNL1        0.0993
     37 C         -18.4229   -8.9778   -5.8348 C.2     1  UNL1        0.2458
     38 O         -17.2541   -9.1720   -5.4048 O.2     1  UNL1       -0.2701
     39 N         -19.4935   -8.6558   -4.9236 N.am    1  UNL1       -0.3040
     40 H         -20.4670   -8.6940   -5.3025 H       1  UNL1        0.1496
     41 C         -19.3223   -8.3139   -3.4984 C.3     1  UNL1        0.0572
     42 C         -18.3185   -9.2987   -2.8632 C.3     1  UNL1        0.0196
     43 C         -18.7607   -6.8861   -3.3580 C.3     1  UNL1        0.0196
     44 C         -20.6663   -8.4396   -2.7552 C.3     1  UNL1        0.0196
     45 N         -20.7360   -7.4533   -9.9666 N.pl3   1  UNL1       -0.2120
     46 H         -20.5836   -7.2133  -10.9712 H       1  UNL1        0.1738
     47 S         -22.1786   -6.8226   -9.2290 S.O2    1  UNL1        0.0745
     48 O         -22.6678   -7.8345   -8.2315 O.2     1  UNL1       -0.1499
     49 O         -21.8496   -5.5423   -8.5150 O.2     1  UNL1       -0.1499
     50 C         -23.4085   -6.4853  -10.4617 C.ar    1  UNL1        0.1356
     51 C         -24.5930   -7.2350  -10.4516 C.ar    1  UNL1        0.0207
     52 C         -25.6436   -6.9232  -11.3154 C.ar    1  UNL1       -0.0028
     53 C         -25.5198   -5.8663  -12.2391 C.ar    1  UNL1       -0.0216
     54 C         -24.3111   -5.1560  -12.2875 C.ar    1  UNL1        0.0085
     55 C         -23.2585   -5.4567  -11.4152 C.ar    1  UNL1        0.0762
     56 CL        -21.7763   -4.5208  -11.5702 Cl      1  UNL1       -0.0809
     57 C         -26.6333   -5.4272  -13.1748 C.3     1  UNL1        0.0224
     58 C         -27.3748   -6.5478  -13.8908 C.3     1  UNL1        0.0047
     59 C         -26.4515   -5.6225  -14.6740 C.3     1  UNL1        0.0047
@<TRIPOS>BOND
     1     2     3    1
     2     3     4   ar
     3     4     5    1
     4     4     6   ar
     5     6     1    1
     6     1    31    1
     7    31    32   ar
     8    32    33   ar
     9    33    34   ar
    10    34    37    1
    11    37    38    2
    12    37    39   am
    13    39    41    1
    14    41    42    1
    15    41    43    1
    16    41    44    1
    17    34    35   ar
    18    35    36   ar
    19    36    45    1
    20    45    47    1
    21    47    48    2
    22    47    49    2
    23    47    50    1
    24    50    51   ar
    25    51    52   ar
    26    52    53   ar
    27    53    57    1
    28    57    58    1
    29    58    59    1
    30    53    54   ar
    31    54    55   ar
    32    55    56    1
    33     6     7   ar
    34     7     8   ar
    35     8     9    1
    36     8    10   ar
    37    10    11    1
    38    11    12    1
    39    12    13    2
    40    12    14    1
    41    14    15    1
    42    15    16    1
    43    16    17    1
    44    17    27    1
    45    27    28    2
    46    27    29    1
    47    17    18    1
    48    18    19    1
    49    18    20    1
    50    20    21    1
    51    20    22    1
    52    22    23    1
    53    10     3   ar
    54    22    15    1
    55    36    31   ar
    56    55    50   ar
    57    59    57    1
    58    39    40    1
    59    45    46    1
    60    29    30    1
    61    19    24    1
    62    21    25    1
    63    23    26    1
@<TRIPOS>MOLECULE
*****
 59 63 0 0 0
SMALL
GASTEIGER

@<TRIPOS>ATOM
      1 O         -20.8610   -7.2141  -11.9722 O.3     1  UNL1       -0.4513
      2 C         -24.0463   -8.0177  -15.7164 C.3     1  UNL1        0.0318
      3 C         -23.7568   -7.4972  -14.3245 C.ar    1  UNL1       -0.0096
      4 C         -22.4438   -7.6116  -13.8053 C.ar    1  UNL1        0.0880
      5 CL        -21.1780   -8.4363  -14.7258 Cl      1  UNL1       -0.0794
      6 C         -22.1538   -7.1484  -12.5072 C.ar    1  UNL1        0.1577
      7 C         -23.1761   -6.6521  -11.7036 C.ar    1  UNL1        0.0676
      8 C         -24.4810   -6.5735  -12.1807 C.ar    1  UNL1        0.1395
      9 F         -25.4443   -6.1009  -11.3486 F       1  UNL1       -0.2044
     10 C         -24.7924   -6.9808  -13.4929 C.ar    1  UNL1        0.0135
     11 C         -26.2339   -6.9018  -13.9579 C.3     1  UNL1        0.1379
     12 C         -26.6447   -5.4794  -14.1751 C.2     1  UNL1        0.3234
     13 O         -26.4818   -4.6342  -13.2536 O.2     1  UNL1       -0.2497
     14 O         -27.2380   -5.1122  -15.3883 O.3     1  UNL1       -0.4215
     15 C         -26.6843   -4.1447  -16.2812 C.3     1  UNL1        0.3207
     16 O         -27.4544   -2.9475  -16.2157 O.3     1  UNL1       -0.3070
     17 C         -28.5824   -2.9442  -17.0797 C.3     1  UNL1        0.2456
     18 C         -28.1628   -2.9910  -18.5807 C.3     1  UNL1        0.1781
     19 O         -28.1250   -1.6897  -19.1106 O.3     1  UNL1       -0.3790
     20 C         -26.7674   -3.6262  -18.7535 C.3     1  UNL1        0.1733
     21 O         -26.5986   -4.1116  -20.0631 O.3     1  UNL1       -0.3793
     22 C         -26.5410   -4.7324  -17.7119 C.3     1  UNL1        0.2106
     23 O         -25.2574   -5.2826  -17.8680 O.3     1  UNL1       -0.3766
     24 H         -29.0657   -1.4174  -19.2762 H       1  UNL1        0.2106
     25 H         -27.2325   -4.8655  -20.1903 H       1  UNL1        0.2105
     26 H         -25.3181   -5.9619  -18.5895 H       1  UNL1        0.2107
     27 C         -29.5990   -3.9926  -16.6801 C.2     1  UNL1        0.3439
     28 O         -30.2686   -4.5761  -17.5740 O.2     1  UNL1       -0.2475
     29 O         -29.8236   -4.3070  -15.3424 O.3     1  UNL1       -0.4785
     30 H         -30.4914   -5.0211  -15.0815 H       1  UNL1        0.2951
     31 C         -20.5698   -7.4740  -10.6237 C.ar    1  UNL1        0.1598
     32 C         -20.7308   -6.4806   -9.6407 C.ar    1  UNL1        0.0390
     33 C         -20.3878   -6.7357   -8.3125 C.ar    1  UNL1        0.0077
     34 C         -19.8998   -7.9946   -7.9373 C.ar    1  UNL1        0.0548
     35 C         -19.8185   -9.0105   -8.9010 C.ar    1  UNL1        0.0235
     36 C         -20.1139   -8.7535  -10.2528 C.ar    1  UNL1        0.0993
     37 C         -19.4505   -8.2391   -6.5488 C.2     1  UNL1        0.2458
     38 O         -20.2986   -8.5690   -5.6767 O.2     1  UNL1       -0.2701
     39 N         -18.0650   -8.0591   -6.1905 N.am    1  UNL1       -0.3040
     40 H         -17.4465   -7.6045   -6.9000 H       1  UNL1        0.1496
     41 C         -17.4671   -8.4330   -4.8944 C.3     1  UNL1        0.0572
     42 C         -18.3515   -7.8822   -3.7563 C.3     1  UNL1        0.0196
     43 C         -17.4005   -9.9666   -4.7622 C.3     1  UNL1        0.0196
     44 C         -16.0601   -7.8193   -4.7599 C.3     1  UNL1        0.0196
     45 N         -19.8957   -9.7573  -11.2651 N.pl3   1  UNL1       -0.2120
     46 H         -18.9736   -9.8082  -11.7521 H       1  UNL1        0.1738
     47 S         -21.0387  -11.0138  -11.6356 S.O2    1  UNL1        0.0745
     48 O         -21.0638  -11.1903  -13.1279 O.2     1  UNL1       -0.1499
     49 O         -20.5901  -12.2955  -10.9928 O.2     1  UNL1       -0.1499
     50 C         -22.6444  -10.5957  -11.0086 C.ar    1  UNL1        0.1356
     51 C         -22.7703  -10.2631   -9.6527 C.ar    1  UNL1        0.0207
     52 C         -23.9834   -9.8024   -9.1395 C.ar    1  UNL1       -0.0028
     53 C         -25.1161   -9.6940   -9.9707 C.ar    1  UNL1       -0.0216
     54 C         -25.0024  -10.0840  -11.3134 C.ar    1  UNL1        0.0085
     55 C         -23.7850  -10.5354  -11.8363 C.ar    1  UNL1        0.0762
     56 CL        -23.7519  -11.0203  -13.5276 Cl      1  UNL1       -0.0809
     57 C         -26.4565   -9.1510   -9.5055 C.3     1  UNL1        0.0224
     58 C         -27.3072   -8.4840  -10.5777 C.3     1  UNL1        0.0047
     59 C         -26.6681   -7.6432   -9.4792 C.3     1  UNL1        0.0047
@<TRIPOS>BOND
     1     2     3    1
     2     3     4   ar
     3     4     5    1
     4     4     6   ar
     5     6     1    1
     6     1    31    1
     7    31    32   ar
     8    32    33   ar
     9    33    34   ar
    10    34    37    1
    11    37    38    2
    12    37    39   am
    13    39    41    1
    14    41    42    1
    15    41    43    1
    16    41    44    1
    17    34    35   ar
    18    35    36   ar
    19    36    45    1
    20    45    47    1
    21    47    48    2
    22    47    49    2
    23    47    50    1
    24    50    51   ar
    25    51    52   ar
    26    52    53   ar
    27    53    57    1
    28    57    58    1
    29    58    59    1
    30    53    54   ar
    31    54    55   ar
    32    55    56    1
    33     6     7   ar
    34     7     8   ar
    35     8     9    1
    36     8    10   ar
    37    10    11    1
    38    11    12    1
    39    12    13    2
    40    12    14    1
    41    14    15    1
    42    15    16    1
    43    16    17    1
    44    17    27    1
    45    27    28    2
    46    27    29    1
    47    17    18    1
    48    18    19    1
    49    18    20    1
    50    20    21    1
    51    20    22    1
    52    22    23    1
    53    10     3   ar
    54    22    15    1
    55    36    31   ar
    56    55    50   ar
    57    59    57    1
    58    39    40    1
    59    45    46    1
    60    29    30    1
    61    19    24    1
    62    21    25    1
    63    23    26    1
@<TRIPOS>MOLECULE
*****
 59 63 0 0 0
SMALL
GASTEIGER

@<TRIPOS>ATOM
      1 O         -26.0408   -7.7779  -11.4870 O.3     1  UNL1       -0.4513
      2 C         -23.0256  -10.1595   -8.3172 C.3     1  UNL1        0.0318
      3 C         -23.2540   -9.0872   -9.3613 C.ar    1  UNL1       -0.0096
      4 C         -24.5412   -8.9479   -9.9358 C.ar    1  UNL1        0.0880
      5 CL        -25.8433  -10.0694   -9.5155 Cl      1  UNL1       -0.0794
      6 C         -24.7742   -7.9676  -10.9200 C.ar    1  UNL1        0.1577
      7 C         -23.7189   -7.1893  -11.3867 C.ar    1  UNL1        0.0676
      8 C         -22.4376   -7.3426  -10.8658 C.ar    1  UNL1        0.1395
      9 F         -21.4399   -6.5726  -11.3710 F       1  UNL1       -0.2044
     10 C         -22.1843   -8.2788   -9.8441 C.ar    1  UNL1        0.0135
     11 C         -20.7659   -8.4287   -9.3280 C.3     1  UNL1        0.1379
     12 C         -20.5499   -7.5797   -8.1148 C.2     1  UNL1        0.3234
     13 O         -20.5381   -6.3236   -8.2250 O.2     1  UNL1       -0.2497
     14 O         -20.3280   -8.1930   -6.8765 O.3     1  UNL1       -0.4215
     15 C         -19.0317   -8.5232   -6.3758 C.3     1  UNL1        0.3207
     16 O         -19.1348   -9.6456   -5.5040 O.3     1  UNL1       -0.3070
     17 C         -19.4496   -9.3011   -4.1619 C.3     1  UNL1        0.2456
     18 C         -18.3147   -8.4636   -3.4972 C.3     1  UNL1        0.1781
     19 O         -17.4588   -9.3067   -2.7675 O.3     1  UNL1       -0.3790
     20 C         -17.4752   -7.7174   -4.5549 C.3     1  UNL1        0.1733
     21 O         -16.8065   -6.6217   -3.9792 O.3     1  UNL1       -0.3793
     22 C         -18.3538   -7.2803   -5.7367 C.3     1  UNL1        0.2106
     23 O         -17.5694   -6.6246   -6.7007 O.3     1  UNL1       -0.3766
     24 H         -17.9276   -9.5326   -1.9215 H       1  UNL1        0.2106
     25 H         -17.4935   -5.9625   -3.6967 H       1  UNL1        0.2105
     26 H         -17.4779   -5.6803   -6.4078 H       1  UNL1        0.2107
     27 C         -20.8295   -8.6885   -4.0482 C.2     1  UNL1        0.3439
     28 O         -21.0715   -7.8810   -3.1116 O.2     1  UNL1       -0.2475
     29 O         -21.8417   -9.0187   -4.9454 O.3     1  UNL1       -0.4785
     30 H         -22.7571   -8.5930   -4.8757 H       1  UNL1        0.2951
     31 C         -26.3214   -6.8745  -12.5242 C.ar    1  UNL1        0.1598
     32 C         -26.9258   -5.6315  -12.2620 C.ar    1  UNL1        0.0390
     33 C         -27.2472   -4.7652  -13.3073 C.ar    1  UNL1        0.0077
     34 C         -26.9502   -5.1138  -14.6317 C.ar    1  UNL1        0.0548
     35 C         -26.2721   -6.3150  -14.8859 C.ar    1  UNL1        0.0235
     36 C         -25.9859   -7.2205  -13.8472 C.ar    1  UNL1        0.0993
     37 C         -27.3715   -4.2386  -15.7480 C.2     1  UNL1        0.2458
     38 O         -26.5008   -3.5720  -16.3695 O.2     1  UNL1       -0.2701
     39 N         -28.7673   -4.1181  -16.0906 N.am    1  UNL1       -0.3040
     40 H         -29.4569   -4.5393  -15.4275 H       1  UNL1        0.1496
     41 C         -29.2932   -3.4195  -17.2791 C.3     1  UNL1        0.0572
     42 C         -30.0155   -4.4407  -18.1826 C.3     1  UNL1        0.0196
     43 C         -30.3072   -2.3395  -16.8557 C.3     1  UNL1        0.0196
     44 C         -28.1384   -2.7891  -18.0811 C.3     1  UNL1        0.0196
     45 N         -25.4166   -8.5159  -14.1262 N.pl3   1  UNL1       -0.2120
     46 H         -26.0069   -9.3716  -14.0294 H       1  UNL1        0.1738
     47 S         -23.8186   -8.7451  -14.7716 S.O2    1  UNL1        0.0745
     48 O         -23.9557   -9.3446  -16.1429 O.2     1  UNL1       -0.1499
     49 O         -23.1333   -7.4125  -14.8800 O.2     1  UNL1       -0.1499
     50 C         -22.8627   -9.7900  -13.7036 C.ar    1  UNL1        0.1356
     51 C         -21.5526   -9.4062  -13.3851 C.ar    1  UNL1        0.0207
     52 C         -20.8055  -10.1227  -12.4494 C.ar    1  UNL1       -0.0028
     53 C         -21.3445  -11.2679  -11.8300 C.ar    1  UNL1       -0.0216
     54 C         -22.6336  -11.6836  -12.1947 C.ar    1  UNL1        0.0085
     55 C         -23.3920  -10.9619  -13.1238 C.ar    1  UNL1        0.0762
     56 CL        -24.9898  -11.5780  -13.5291 Cl      1  UNL1       -0.0809
     57 C         -20.6204  -12.0710  -10.7629 C.3     1  UNL1        0.0224
     58 C         -19.1781  -11.6637  -10.4944 C.3     1  UNL1        0.0047
     59 C         -19.4805  -12.9891  -11.1829 C.3     1  UNL1        0.0047
@<TRIPOS>BOND
     1     2     3    1
     2     3     4   ar
     3     4     5    1
     4     4     6   ar
     5     6     1    1
     6     1    31    1
     7    31    32   ar
     8    32    33   ar
     9    33    34   ar
    10    34    37    1
    11    37    38    2
    12    37    39   am
    13    39    41    1
    14    41    42    1
    15    41    43    1
    16    41    44    1
    17    34    35   ar
    18    35    36   ar
    19    36    45    1
    20    45    47    1
    21    47    48    2
    22    47    49    2
    23    47    50    1
    24    50    51   ar
    25    51    52   ar
    26    52    53   ar
    27    53    57    1
    28    57    58    1
    29    58    59    1
    30    53    54   ar
    31    54    55   ar
    32    55    56    1
    33     6     7   ar
    34     7     8   ar
    35     8     9    1
    36     8    10   ar
    37    10    11    1
    38    11    12    1
    39    12    13    2
    40    12    14    1
    41    14    15    1
    42    15    16    1
    43    16    17    1
    44    17    27    1
    45    27    28    2
    46    27    29    1
    47    17    18    1
    48    18    19    1
    49    18    20    1
    50    20    21    1
    51    20    22    1
    52    22    23    1
    53    10     3   ar
    54    22    15    1
    55    36    31   ar
    56    55    50   ar
    57    59    57    1
    58    39    40    1
    59    45    46    1
    60    29    30    1
    61    19    24    1
    62    21    25    1
    63    23    26    1
