@<TRIPOS>MOLECULE
*****
 51 57 0 0 0
SMALL
GASTEIGER

@<TRIPOS>ATOM
      1 C          58.2477   81.4211    9.7575 C.ar    1  UNL1        0.0481
      2 C          58.1053   82.1526   10.9499 C.ar    1  UNL1        0.0176
      3 C          58.1324   81.5061   12.1875 C.ar    1  UNL1        0.0382
      4 C          58.3108   80.1128   12.2581 C.ar    1  UNL1        0.1388
      5 C          58.3929   79.3774   11.0708 C.ar    1  UNL1        0.0382
      6 C          58.3719   80.0238    9.8314 C.ar    1  UNL1        0.0176
      7 N          59.3694   84.4839    8.0052 N.pl3   1  UNL1       -0.3041
      8 C          57.9049   84.4902    8.1765 C.3     1  UNL1        0.1122
      9 C          57.3355   83.0666    8.0467 C.3     1  UNL1        0.1122
     10 N          58.3470   82.0923    8.4823 N.pl3   1  UNL1       -0.3041
     11 C          59.6212   82.0545    7.7419 C.3     1  UNL1        0.1122
     12 C          59.9460   83.4368    7.1487 C.3     1  UNL1        0.1122
     13 C          61.6494   86.9899   10.5975 C.ar    1  UNL1        0.0699
     14 C          62.0516   86.7845    9.2665 C.ar    1  UNL1        0.0190
     15 C          61.3299   85.9250    8.4324 C.ar    1  UNL1        0.0160
     16 C          60.1921   85.2537    8.9097 C.ar    1  UNL1        0.0480
     17 C          59.8200   85.4257   10.2542 C.ar    1  UNL1        0.0160
     18 C          60.5381   86.2866   11.0860 C.ar    1  UNL1        0.0190
     19 N          63.5165   88.9109   13.0444 N.ar    1  UNL1       -0.2024
     20 N          63.1687   89.8724   12.2014 N.ar    1  UNL1       -0.1442
     21 C          62.4398   89.2800   11.2312 C.ar    1  UNL1        0.2073
     22 N          62.3227   87.9478   11.4370 N.ar    1  UNL1       -0.2398
     23 C          63.0074   87.7553   12.5813 C.ar    1  UNL1        0.3522
     24 O          63.1362   86.6427   13.1599 O.2     1  UNL1       -0.2444
     25 C          64.3433   89.1096   14.2395 C.3     1  UNL1        0.1099
     26 C          63.4603   89.5354   15.4156 C.3     1  UNL1        0.0265
     27 C          65.7346   91.0047   15.2088 C.3     1  UNL1        0.0021
     28 C          65.4382   90.1588   13.9711 C.3     1  UNL1        0.0245
     29 O          58.4211   79.4252   13.4781 O.3     1  UNL1       -0.4727
     30 C          59.6325   79.2387   14.2152 C.3     1  UNL1        0.2374
     31 C          60.8000   79.9717   13.5355 C.3     1  UNL1        0.1909
     32 C          62.1374   79.6272   14.1390 C.3     1  UNL1        0.1783
     33 O          62.8385   80.8269   14.2707 O.3     1  UNL1       -0.3266
     34 C          61.9757   81.8507   13.8118 C.3     1  UNL1        0.2314
     35 O          60.6655   81.3477   13.6841 O.3     1  UNL1       -0.3254
     36 C          62.4779   82.3982   12.4715 C.ar    1  UNL1        0.0410
     37 C          61.6273   82.3354   11.3466 C.ar    1  UNL1        0.0022
     38 C          62.0662   82.7501   10.0885 C.ar    1  UNL1        0.0113
     39 C          63.3679   83.2187    9.9201 C.ar    1  UNL1        0.0585
     40 CL         63.9207   83.7243    8.3342 Cl      1  UNL1       -0.0822
     41 C          64.2363   83.2668   11.0107 C.ar    1  UNL1        0.0226
     42 C          63.8123   82.8533   12.2798 C.ar    1  UNL1        0.0591
     43 CL         65.0144   82.8975   13.5685 Cl      1  UNL1       -0.0824
     44 C          61.9770   83.0012   14.8392 C.3     1  UNL1        0.1893
     45 N          60.9059   83.9680   14.5775 N.ar    1  UNL1       -0.2313
     46 N          59.8150   83.7048   13.8809 N.ar    1  UNL1       -0.1532
     47 C          59.0691   84.8243   13.9341 C.ar    1  UNL1        0.1604
     48 C          57.7249   84.9459   13.3022 C.3     1  UNL1        0.0756
     49 N          59.6301   85.7943   14.6887 N.ar    1  UNL1       -0.2146
     50 C          60.7855   85.2164   15.0729 C.ar    1  UNL1        0.1381
     51 C          61.7670   85.8740   15.9875 C.3     1  UNL1        0.0734
@<TRIPOS>BOND
     1    27    28    1
     2    28    25    1
     3    25    26    1
     4    25    19    1
     5    19    20   ar
     6    20    21   ar
     7    21    22   ar
     8    22    13    1
     9    13    14   ar
    10    14    15   ar
    11    15    16   ar
    12    16     7    1
    13     7     8    1
    14     8     9    1
    15     9    10    1
    16    10     1    1
    17     1     2   ar
    18     2     3   ar
    19     3     4   ar
    20     4    29    1
    21    29    30    1
    22    30    31    1
    23    31    32    1
    24    32    33    1
    25    33    34    1
    26    34    44    1
    27    44    45    1
    28    45    46   ar
    29    46    47   ar
    30    47    48    1
    31    47    49   ar
    32    49    50   ar
    33    50    51    1
    34    34    36    1
    35    36    37   ar
    36    37    38   ar
    37    38    39   ar
    38    39    40    1
    39    39    41   ar
    40    41    42   ar
    41    42    43    1
    42    34    35    1
    43     4     5   ar
    44     5     6   ar
    45    10    11    1
    46    11    12    1
    47    16    17   ar
    48    17    18   ar
    49    22    23   ar
    50    23    24    2
    51    23    19   ar
    52    18    13   ar
    53    12     7    1
    54     6     1   ar
    55    35    31    1
    56    50    45   ar
    57    42    36   ar
@<TRIPOS>MOLECULE
*****
 51 57 0 0 0
SMALL
GASTEIGER

@<TRIPOS>ATOM
      1 C          62.0526   83.7297   14.2097 C.ar    1  UNL1        0.0481
      2 C          62.7790   84.2420   13.1202 C.ar    1  UNL1        0.0176
      3 C          63.4392   83.3827   12.2393 C.ar    1  UNL1        0.0382
      4 C          63.3796   81.9899   12.4261 C.ar    1  UNL1        0.1388
      5 C          62.7072   81.4825   13.5430 C.ar    1  UNL1        0.0382
      6 C          62.0408   82.3412   14.4223 C.ar    1  UNL1        0.0176
      7 N          61.6425   87.1803   15.4880 N.pl3   1  UNL1       -0.3041
      8 C          62.2411   86.3122   16.5186 C.3     1  UNL1        0.1122
      9 C          61.6590   84.8901   16.4378 C.3     1  UNL1        0.1122
     10 N          61.2646   84.5997   15.0514 N.pl3   1  UNL1       -0.3041
     11 C          60.2357   85.4605   14.4403 C.3     1  UNL1        0.1122
     12 C          60.2715   86.8706   15.0554 C.3     1  UNL1        0.1122
     13 C          64.3727   89.5882   13.2639 C.ar    1  UNL1        0.0699
     14 C          64.2139   89.7800   14.6472 C.ar    1  UNL1        0.0190
     15 C          63.2838   89.0225   15.3659 C.ar    1  UNL1        0.0160
     16 C          62.4941   88.0580   14.7186 C.ar    1  UNL1        0.0480
     17 C          62.6228   87.9015   13.3277 C.ar    1  UNL1        0.0160
     18 C          63.5540   88.6549   12.6107 C.ar    1  UNL1        0.0190
     19 N          66.5847   91.2612   10.9248 N.ar    1  UNL1       -0.2024
     20 N          67.2302   91.4798   12.0613 N.ar    1  UNL1       -0.1442
     21 C          66.5042   90.8816   13.0302 C.ar    1  UNL1        0.2073
     22 N          65.3954   90.2888   12.5300 N.ar    1  UNL1       -0.2398
     23 C          65.4818   90.5462   11.2103 C.ar    1  UNL1        0.3522
     24 O          64.6523   90.1495   10.3478 O.2     1  UNL1       -0.2444
     25 C          67.0129   91.7611    9.6140 C.3     1  UNL1        0.1099
     26 C          68.4386   91.2873    9.3192 C.3     1  UNL1        0.0265
     27 C          67.2609   93.8469    8.1807 C.3     1  UNL1        0.0021
     28 C          66.9279   93.2981    9.5674 C.3     1  UNL1        0.0245
     29 O          63.9616   81.0806   11.5274 O.3     1  UNL1       -0.4727
     30 C          63.2793   80.4297   10.4521 C.3     1  UNL1        0.2374
     31 C          61.8224   80.9113   10.3629 C.3     1  UNL1        0.1909
     32 C          60.9457   79.9781    9.5678 C.3     1  UNL1        0.1783
     33 O          60.1568   80.7779    8.7395 O.3     1  UNL1       -0.3266
     34 C          60.5468   82.1167    8.9811 C.3     1  UNL1        0.2314
     35 O          61.7524   82.1373    9.7106 O.3     1  UNL1       -0.3254
     36 C          59.4413   82.8558    9.7427 C.ar    1  UNL1        0.0410
     37 C          59.8004   83.7178   10.8014 C.ar    1  UNL1        0.0022
     38 C          58.8272   84.3531   11.5739 C.ar    1  UNL1        0.0113
     39 C          57.4753   84.1287   11.3206 C.ar    1  UNL1        0.0585
     40 CL         56.2552   84.9168   12.3037 Cl      1  UNL1       -0.0822
     41 C          57.0941   83.2615   10.2965 C.ar    1  UNL1        0.0226
     42 C          58.0579   82.6150    9.5127 C.ar    1  UNL1        0.0591
     43 CL         57.4608   81.4930    8.2910 Cl      1  UNL1       -0.0824
     44 C          60.7631   82.8248    7.6280 C.3     1  UNL1        0.1893
     45 N          60.9867   84.2644    7.7947 N.ar    1  UNL1       -0.2313
     46 N          60.0282   85.1730    7.8088 N.ar    1  UNL1       -0.1532
     47 C          60.6418   86.3470    8.0494 C.ar    1  UNL1        0.1604
     48 C          59.9147   87.6409    8.1839 C.3     1  UNL1        0.0756
     49 N          61.9730   86.2153    8.2379 N.ar    1  UNL1       -0.2146
     50 C          62.1497   84.8902    8.0668 C.ar    1  UNL1        0.1381
     51 C          63.4711   84.2116    8.2271 C.3     1  UNL1        0.0734
@<TRIPOS>BOND
     1    27    28    1
     2    28    25    1
     3    25    26    1
     4    25    19    1
     5    19    20   ar
     6    20    21   ar
     7    21    22   ar
     8    22    13    1
     9    13    14   ar
    10    14    15   ar
    11    15    16   ar
    12    16     7    1
    13     7     8    1
    14     8     9    1
    15     9    10    1
    16    10     1    1
    17     1     2   ar
    18     2     3   ar
    19     3     4   ar
    20     4    29    1
    21    29    30    1
    22    30    31    1
    23    31    32    1
    24    32    33    1
    25    33    34    1
    26    34    44    1
    27    44    45    1
    28    45    46   ar
    29    46    47   ar
    30    47    48    1
    31    47    49   ar
    32    49    50   ar
    33    50    51    1
    34    34    36    1
    35    36    37   ar
    36    37    38   ar
    37    38    39   ar
    38    39    40    1
    39    39    41   ar
    40    41    42   ar
    41    42    43    1
    42    34    35    1
    43     4     5   ar
    44     5     6   ar
    45    10    11    1
    46    11    12    1
    47    16    17   ar
    48    17    18   ar
    49    22    23   ar
    50    23    24    2
    51    23    19   ar
    52    18    13   ar
    53    12     7    1
    54     6     1   ar
    55    35    31    1
    56    50    45   ar
    57    42    36   ar
@<TRIPOS>MOLECULE
*****
 51 57 0 0 0
SMALL
GASTEIGER

@<TRIPOS>ATOM
      1 C          61.7087   82.6535    9.0893 C.ar    1  UNL1        0.0481
      2 C          61.1042   81.4804    9.5746 C.ar    1  UNL1        0.0176
      3 C          61.7399   80.7025   10.5446 C.ar    1  UNL1        0.0382
      4 C          62.9925   81.0872   11.0559 C.ar    1  UNL1        0.1388
      5 C          63.6212   82.2213   10.5308 C.ar    1  UNL1        0.0382
      6 C          62.9834   83.0043    9.5641 C.ar    1  UNL1        0.0176
      7 N          60.5338   86.1132    8.4900 N.pl3   1  UNL1       -0.3041
      8 C          59.4166   85.2523    8.9197 C.3     1  UNL1        0.1122
      9 C          59.5770   83.8298    8.3553 C.3     1  UNL1        0.1122
     10 N          61.0059   83.5297    8.1811 N.pl3   1  UNL1       -0.3041
     11 C          61.7757   84.3864    7.2610 C.3     1  UNL1        0.1122
     12 C          61.1723   85.8008    7.2026 C.3     1  UNL1        0.1122
     13 C          62.6475   88.5398   11.2904 C.ar    1  UNL1        0.0699
     14 C          61.9909   87.3704   11.7109 C.ar    1  UNL1        0.0190
     15 C          61.2586   86.6021   10.8004 C.ar    1  UNL1        0.0160
     16 C          61.1674   86.9852    9.4521 C.ar    1  UNL1        0.0480
     17 C          61.7867   88.1796    9.0453 C.ar    1  UNL1        0.0160
     18 C          62.5209   88.9446    9.9532 C.ar    1  UNL1        0.0190
     19 N          65.0681   90.5863   13.0556 N.ar    1  UNL1       -0.2024
     20 N          64.2771   90.2340   14.0587 N.ar    1  UNL1       -0.1442
     21 C          63.3228   89.4399   13.5275 C.ar    1  UNL1        0.2073
     22 N          63.4869   89.2852   12.1933 N.ar    1  UNL1       -0.2398
     23 C          64.5896   90.0154   11.9357 C.ar    1  UNL1        0.3522
     24 O          65.1218   90.1313   10.7988 O.2     1  UNL1       -0.2444
     25 C          66.2285   91.4745   13.1819 C.3     1  UNL1        0.1099
     26 C          67.4261   90.8708   12.4434 C.3     1  UNL1        0.0265
     27 C          67.9422   91.1612   15.0345 C.3     1  UNL1        0.0021
     28 C          66.5665   91.7147   14.6651 C.3     1  UNL1        0.0245
     29 O          63.6383   80.3823   12.0851 O.3     1  UNL1       -0.4727
     30 C          64.5290   80.9548   13.0465 C.3     1  UNL1        0.2374
     31 C          63.8162   82.0409   13.8679 C.3     1  UNL1        0.1909
     32 C          62.7212   81.4875   14.7435 C.3     1  UNL1        0.1783
     33 O          61.6314   82.3500   14.6154 O.3     1  UNL1       -0.3266
     34 C          62.0159   83.3515   13.6921 C.3     1  UNL1        0.2314
     35 O          63.1959   82.9597   13.0286 O.3     1  UNL1       -0.3254
     36 C          62.2216   84.6844   14.4195 C.ar    1  UNL1        0.0410
     37 C          63.5339   85.1791   14.5802 C.ar    1  UNL1        0.0022
     38 C          63.7790   86.3484   15.3015 C.ar    1  UNL1        0.0113
     39 C          62.7240   87.0399   15.8942 C.ar    1  UNL1        0.0585
     40 CL         63.0377   88.5005   16.8130 Cl      1  UNL1       -0.0822
     41 C          61.4206   86.5581   15.7717 C.ar    1  UNL1        0.0226
     42 C          61.1575   85.3856   15.0524 C.ar    1  UNL1        0.0591
     43 CL         59.4823   84.8374   15.0193 Cl      1  UNL1       -0.0824
     44 C          60.8891   83.5317   12.6543 C.3     1  UNL1        0.1893
     45 N          59.9660   82.3923   12.6472 N.ar    1  UNL1       -0.2313
     46 N          60.2717   81.1799   13.0732 N.ar    1  UNL1       -0.1532
     47 C          59.1412   80.4575   12.9597 C.ar    1  UNL1        0.1604
     48 C          59.0351   79.0291   13.3710 C.3     1  UNL1        0.0756
     49 N          58.0949   81.1857   12.5126 N.ar    1  UNL1       -0.2146
     50 C          58.6565   82.3966   12.3257 C.ar    1  UNL1        0.1381
     51 C          57.8879   83.5967   11.8773 C.3     1  UNL1        0.0734
@<TRIPOS>BOND
     1    27    28    1
     2    28    25    1
     3    25    26    1
     4    25    19    1
     5    19    20   ar
     6    20    21   ar
     7    21    22   ar
     8    22    13    1
     9    13    14   ar
    10    14    15   ar
    11    15    16   ar
    12    16     7    1
    13     7     8    1
    14     8     9    1
    15     9    10    1
    16    10     1    1
    17     1     2   ar
    18     2     3   ar
    19     3     4   ar
    20     4    29    1
    21    29    30    1
    22    30    31    1
    23    31    32    1
    24    32    33    1
    25    33    34    1
    26    34    44    1
    27    44    45    1
    28    45    46   ar
    29    46    47   ar
    30    47    48    1
    31    47    49   ar
    32    49    50   ar
    33    50    51    1
    34    34    36    1
    35    36    37   ar
    36    37    38   ar
    37    38    39   ar
    38    39    40    1
    39    39    41   ar
    40    41    42   ar
    41    42    43    1
    42    34    35    1
    43     4     5   ar
    44     5     6   ar
    45    10    11    1
    46    11    12    1
    47    16    17   ar
    48    17    18   ar
    49    22    23   ar
    50    23    24    2
    51    23    19   ar
    52    18    13   ar
    53    12     7    1
    54     6     1   ar
    55    35    31    1
    56    50    45   ar
    57    42    36   ar
@<TRIPOS>MOLECULE
*****
 51 57 0 0 0
SMALL
GASTEIGER

@<TRIPOS>ATOM
      1 C          59.2760   85.5593   13.5299 C.ar    1  UNL1        0.0481
      2 C          58.0762   84.8284   13.4726 C.ar    1  UNL1        0.0176
      3 C          57.5285   84.4571   12.2428 C.ar    1  UNL1        0.0382
      4 C          58.1753   84.8034   11.0428 C.ar    1  UNL1        0.1388
      5 C          59.3367   85.5813   11.0971 C.ar    1  UNL1        0.0382
      6 C          59.8894   85.9486   12.3276 C.ar    1  UNL1        0.0176
      7 N          62.2507   87.0162   15.1844 N.pl3   1  UNL1       -0.3041
      8 C          62.3225   85.5435   15.1895 C.3     1  UNL1        0.1122
      9 C          60.9218   84.9307   15.3636 C.3     1  UNL1        0.1122
     10 N          59.9151   85.8390   14.7947 N.pl3   1  UNL1       -0.3041
     11 C          59.8079   87.1891   15.3768 C.3     1  UNL1        0.1122
     12 C          61.1623   87.6432   15.9490 C.3     1  UNL1        0.1122
     13 C          64.2848   89.4228   12.3087 C.ar    1  UNL1        0.0699
     14 C          63.2609   88.5461   11.9107 C.ar    1  UNL1        0.0190
     15 C          62.6281   87.7231   12.8476 C.ar    1  UNL1        0.0160
     16 C          63.0042   87.7591   14.2005 C.ar    1  UNL1        0.0480
     17 C          64.0597   88.6031   14.5866 C.ar    1  UNL1        0.0160
     18 C          64.6889   89.4275   13.6522 C.ar    1  UNL1        0.0190
     19 N          66.2859   91.6791   10.2918 N.ar    1  UNL1       -0.2024
     20 N          65.1572   91.6762    9.5975 N.ar    1  UNL1       -0.1442
     21 C          64.3044   90.8691   10.2645 C.ar    1  UNL1        0.2073
     22 N          64.8754   90.3470   11.3747 N.ar    1  UNL1       -0.2398
     23 C          66.1136   90.8783   11.3586 C.ar    1  UNL1        0.3522
     24 O          66.9916   90.6740   12.2398 O.2     1  UNL1       -0.2444
     25 C          67.4978   92.4111    9.9086 C.3     1  UNL1        0.1099
     26 C          67.2413   93.2010    8.6224 C.3     1  UNL1        0.0265
     27 C          68.8312   90.9900    8.2748 C.3     1  UNL1        0.0021
     28 C          68.6803   91.4413    9.7270 C.3     1  UNL1        0.0245
     29 O          57.7071   84.3898    9.7846 O.3     1  UNL1       -0.4727
     30 C          58.4760   83.6816    8.8084 C.3     1  UNL1        0.2374
     31 C          59.9107   83.4517    9.3097 C.3     1  UNL1        0.1909
     32 C          60.8973   83.2529    8.1878 C.3     1  UNL1        0.1783
     33 O          61.7176   82.1867    8.5598 O.3     1  UNL1       -0.3266
     34 C          61.2449   81.7328    9.8143 C.3     1  UNL1        0.2314
     35 O          59.9800   82.2951   10.0784 O.3     1  UNL1       -0.3254
     36 C          62.2427   82.1043   10.9164 C.ar    1  UNL1        0.0410
     37 C          63.6223   82.1034   10.6170 C.ar    1  UNL1        0.0022
     38 C          64.5734   82.3595   11.6056 C.ar    1  UNL1        0.0113
     39 C          64.1718   82.6034   12.9176 C.ar    1  UNL1        0.0585
     40 CL         65.3709   82.9094   14.1604 Cl      1  UNL1       -0.0822
     41 C          62.8158   82.5847   13.2448 C.ar    1  UNL1        0.0226
     42 C          61.8485   82.3282   12.2651 C.ar    1  UNL1        0.0591
     43 CL         60.1719   82.2658   12.8065 Cl      1  UNL1       -0.0824
     44 C          61.1156   80.1964    9.7720 C.3     1  UNL1        0.1893
     45 N          60.0659   79.7117   10.6739 N.ar    1  UNL1       -0.2313
     46 N          60.2637   79.3644   11.9328 N.ar    1  UNL1       -0.1532
     47 C          59.0488   79.0475   12.4191 C.ar    1  UNL1        0.1604
     48 C          58.8124   78.6323   13.8307 C.3     1  UNL1        0.0756
     49 N          58.0590   79.2255   11.5172 N.ar    1  UNL1       -0.2146
     50 C          58.7412   79.6416   10.4318 C.ar    1  UNL1        0.1381
     51 C          58.0824   80.0325    9.1491 C.3     1  UNL1        0.0734
@<TRIPOS>BOND
     1    27    28    1
     2    28    25    1
     3    25    26    1
     4    25    19    1
     5    19    20   ar
     6    20    21   ar
     7    21    22   ar
     8    22    13    1
     9    13    14   ar
    10    14    15   ar
    11    15    16   ar
    12    16     7    1
    13     7     8    1
    14     8     9    1
    15     9    10    1
    16    10     1    1
    17     1     2   ar
    18     2     3   ar
    19     3     4   ar
    20     4    29    1
    21    29    30    1
    22    30    31    1
    23    31    32    1
    24    32    33    1
    25    33    34    1
    26    34    44    1
    27    44    45    1
    28    45    46   ar
    29    46    47   ar
    30    47    48    1
    31    47    49   ar
    32    49    50   ar
    33    50    51    1
    34    34    36    1
    35    36    37   ar
    36    37    38   ar
    37    38    39   ar
    38    39    40    1
    39    39    41   ar
    40    41    42   ar
    41    42    43    1
    42    34    35    1
    43     4     5   ar
    44     5     6   ar
    45    10    11    1
    46    11    12    1
    47    16    17   ar
    48    17    18   ar
    49    22    23   ar
    50    23    24    2
    51    23    19   ar
    52    18    13   ar
    53    12     7    1
    54     6     1   ar
    55    35    31    1
    56    50    45   ar
    57    42    36   ar
@<TRIPOS>MOLECULE
*****
 51 57 0 0 0
SMALL
GASTEIGER

@<TRIPOS>ATOM
      1 C          60.9751   84.4885    8.9080 C.ar    1  UNL1        0.0481
      2 C          60.3961   83.2197    8.7290 C.ar    1  UNL1        0.0176
      3 C          61.1015   82.0628    9.0670 C.ar    1  UNL1        0.0382
      4 C          62.4002   82.1519    9.5996 C.ar    1  UNL1        0.1388
      5 C          62.9992   83.4102    9.7223 C.ar    1  UNL1        0.0382
      6 C          62.2921   84.5696    9.3899 C.ar    1  UNL1        0.0176
      7 N          60.7050   88.1096    9.6315 N.pl3   1  UNL1       -0.3041
      8 C          59.7333   87.3454   10.4351 C.3     1  UNL1        0.1122
      9 C          59.1905   86.1465    9.6377 C.3     1  UNL1        0.1122
     10 N          60.2100   85.6923    8.6804 N.pl3   1  UNL1       -0.3041
     11 C          60.6584   86.6517    7.6549 C.3     1  UNL1        0.1122
     12 C          60.5343   88.0961    8.1710 C.3     1  UNL1        0.1122
     13 C          64.2022   89.6196   11.5517 C.ar    1  UNL1        0.0699
     14 C          63.8373   90.0731   10.2724 C.ar    1  UNL1        0.0190
     15 C          62.7176   89.5420    9.6246 C.ar    1  UNL1        0.0160
     16 C          61.9394   88.5482   10.2409 C.ar    1  UNL1        0.0480
     17 C          62.3341   88.0644   11.5001 C.ar    1  UNL1        0.0160
     18 C          63.4497   88.5971   12.1486 C.ar    1  UNL1        0.0190
     19 N          66.7823   90.7739   13.8264 N.ar    1  UNL1       -0.2024
     20 N          67.0988   91.4611   12.7384 N.ar    1  UNL1       -0.1442
     21 C          66.1859   91.1275   11.8010 C.ar    1  UNL1        0.2073
     22 N          65.2919   90.2275   12.2718 N.ar    1  UNL1       -0.2398
     23 C          65.6966   90.0326   13.5421 C.ar    1  UNL1        0.3522
     24 O          65.1212   89.2740   14.3683 O.2     1  UNL1       -0.2444
     25 C          67.5329   90.8156   15.0859 C.3     1  UNL1        0.1099
     26 C          66.7233   91.5655   16.1471 C.3     1  UNL1        0.0265
     27 C          69.0990   92.6925   15.7867 C.3     1  UNL1        0.0021
     28 C          68.9056   91.4813   14.8753 C.3     1  UNL1        0.0245
     29 O          63.1220   81.0247   10.0259 O.3     1  UNL1       -0.4727
     30 C          62.8483   80.2660   11.2070 C.3     1  UNL1        0.2374
     31 C          62.7216   81.1900   12.4287 C.3     1  UNL1        0.1909
     32 C          62.3501   80.4482   13.6869 C.3     1  UNL1        0.1783
     33 O          61.3702   81.2093   14.3262 O.3     1  UNL1       -0.3266
     34 C          61.1261   82.3306   13.4978 C.3     1  UNL1        0.2314
     35 O          61.7100   82.1236   12.2321 O.3     1  UNL1       -0.3254
     36 C          61.6874   83.5978   14.1517 C.ar    1  UNL1        0.0410
     37 C          60.8103   84.4447   14.8633 C.ar    1  UNL1        0.0022
     38 C          61.2578   85.6479   15.4105 C.ar    1  UNL1        0.0113
     39 C          62.5841   86.0425   15.2445 C.ar    1  UNL1        0.0585
     40 CL         63.1389   87.5629   15.9203 Cl      1  UNL1       -0.0822
     41 C          63.4648   85.2357   14.5236 C.ar    1  UNL1        0.0226
     42 C          63.0317   84.0259   13.9670 C.ar    1  UNL1        0.0591
     43 CL         64.2144   83.1216   13.0228 Cl      1  UNL1       -0.0824
     44 C          59.6027   82.5034   13.3290 C.3     1  UNL1        0.1893
     45 N          59.0403   81.5148   12.4034 N.ar    1  UNL1       -0.2313
     46 N          59.1827   80.2076   12.5286 N.ar    1  UNL1       -0.1532
     47 C          58.4672   79.6649   11.5256 C.ar    1  UNL1        0.1604
     48 C          58.3263   78.1957   11.3192 C.3     1  UNL1        0.0756
     49 N          57.8250   80.5890   10.7782 N.ar    1  UNL1       -0.2146
     50 C          58.2139   81.7399   11.3620 C.ar    1  UNL1        0.1381
     51 C          57.7254   83.0843   10.9304 C.3     1  UNL1        0.0734
@<TRIPOS>BOND
     1    27    28    1
     2    28    25    1
     3    25    26    1
     4    25    19    1
     5    19    20   ar
     6    20    21   ar
     7    21    22   ar
     8    22    13    1
     9    13    14   ar
    10    14    15   ar
    11    15    16   ar
    12    16     7    1
    13     7     8    1
    14     8     9    1
    15     9    10    1
    16    10     1    1
    17     1     2   ar
    18     2     3   ar
    19     3     4   ar
    20     4    29    1
    21    29    30    1
    22    30    31    1
    23    31    32    1
    24    32    33    1
    25    33    34    1
    26    34    44    1
    27    44    45    1
    28    45    46   ar
    29    46    47   ar
    30    47    48    1
    31    47    49   ar
    32    49    50   ar
    33    50    51    1
    34    34    36    1
    35    36    37   ar
    36    37    38   ar
    37    38    39   ar
    38    39    40    1
    39    39    41   ar
    40    41    42   ar
    41    42    43    1
    42    34    35    1
    43     4     5   ar
    44     5     6   ar
    45    10    11    1
    46    11    12    1
    47    16    17   ar
    48    17    18   ar
    49    22    23   ar
    50    23    24    2
    51    23    19   ar
    52    18    13   ar
    53    12     7    1
    54     6     1   ar
    55    35    31    1
    56    50    45   ar
    57    42    36   ar
@<TRIPOS>MOLECULE
*****
 51 57 0 0 0
SMALL
GASTEIGER

@<TRIPOS>ATOM
      1 C          62.2968   82.7015    9.5358 C.ar    1  UNL1        0.0481
      2 C          61.9304   81.4253    9.9984 C.ar    1  UNL1        0.0176
      3 C          62.7171   80.7579   10.9397 C.ar    1  UNL1        0.0382
      4 C          63.8848   81.3581   11.4443 C.ar    1  UNL1        0.1388
      5 C          64.2815   82.6015   10.9406 C.ar    1  UNL1        0.0382
      6 C          63.4918   83.2735   10.0028 C.ar    1  UNL1        0.0176
      7 N          60.8441   86.0270    8.8009 N.pl3   1  UNL1       -0.3041
      8 C          59.8488   85.1586    9.4561 C.3     1  UNL1        0.1122
      9 C          60.0186   83.6978    9.0032 C.3     1  UNL1        0.1122
     10 N          61.4270   83.4515    8.6598 N.pl3   1  UNL1       -0.3041
     11 C          62.0133   84.2519    7.5695 C.3     1  UNL1        0.1122
     12 C          61.3226   85.6234    7.4702 C.3     1  UNL1        0.1122
     13 C          63.1569   88.7950   11.0785 C.ar    1  UNL1        0.0699
     14 C          62.5313   87.7024   11.7033 C.ar    1  UNL1        0.0190
     15 C          61.7344   86.8234   10.9632 C.ar    1  UNL1        0.0160
     16 C          61.5464   87.0169    9.5847 C.ar    1  UNL1        0.0480
     17 C          62.1358   88.1365    8.9726 C.ar    1  UNL1        0.0160
     18 C          62.9344   89.0120    9.7105 C.ar    1  UNL1        0.0190
     19 N          65.4371   90.4932   13.3325 N.ar    1  UNL1       -0.2024
     20 N          65.4203   91.3491   12.3209 N.ar    1  UNL1       -0.1442
     21 C          64.5779   90.8316   11.4011 C.ar    1  UNL1        0.2073
     22 N          64.0601   89.6491   11.8067 N.ar    1  UNL1       -0.2398
     23 C          64.6194   89.4721   13.0197 C.ar    1  UNL1        0.3522
     24 O          64.3903   88.4909   13.7772 O.2     1  UNL1       -0.2444
     25 C          66.2476   90.6518   14.5446 C.3     1  UNL1        0.1099
     26 C          65.3819   91.2093   15.6777 C.3     1  UNL1        0.0265
     27 C          68.5474   91.4060   15.3248 C.3     1  UNL1        0.0021
     28 C          67.4513   91.5734   14.2733 C.3     1  UNL1        0.0245
     29 O          64.6688   80.7629   12.4465 O.3     1  UNL1       -0.4727
     30 C          64.2088   80.4055   13.7527 C.3     1  UNL1        0.2374
     31 C          63.5524   81.6101   14.4457 C.3     1  UNL1        0.1909
     32 C          62.2743   81.2497   15.1586 C.3     1  UNL1        0.1783
     33 O          61.3522   82.2540   14.8603 O.3     1  UNL1       -0.3266
     34 C          62.0072   83.1574   13.9897 C.3     1  UNL1        0.2314
     35 O          63.1999   82.5783   13.5120 O.3     1  UNL1       -0.3254
     36 C          62.2995   84.4719   14.7211 C.ar    1  UNL1        0.0410
     37 C          61.2169   85.2530   15.1802 C.ar    1  UNL1        0.0022
     38 C          61.4293   86.4937   15.7830 C.ar    1  UNL1        0.0113
     39 C          62.7234   86.9914   15.9245 C.ar    1  UNL1        0.0585
     40 CL         62.9851   88.5579   16.6685 Cl      1  UNL1       -0.0822
     41 C          63.8086   86.2504   15.4561 C.ar    1  UNL1        0.0226
     42 C          63.6130   85.0043   14.8477 C.ar    1  UNL1        0.0591
     43 CL         65.0512   84.1881   14.2368 Cl      1  UNL1       -0.0824
     44 C          61.0793   83.4604   12.7955 C.3     1  UNL1        0.1893
     45 N          60.0275   82.4488   12.6510 N.ar    1  UNL1       -0.2313
     46 N          60.2404   81.1452   12.6416 N.ar    1  UNL1       -0.1532
     47 C          59.0225   80.5773   12.5585 C.ar    1  UNL1        0.1604
     48 C          58.8025   79.1033   12.5574 C.3     1  UNL1        0.0756
     49 N          58.0194   81.4821   12.5602 N.ar    1  UNL1       -0.2146
     50 C          58.6942   82.6474   12.6169 C.ar    1  UNL1        0.1381
     51 C          58.0239   83.9804   12.6959 C.3     1  UNL1        0.0734
@<TRIPOS>BOND
     1    27    28    1
     2    28    25    1
     3    25    26    1
     4    25    19    1
     5    19    20   ar
     6    20    21   ar
     7    21    22   ar
     8    22    13    1
     9    13    14   ar
    10    14    15   ar
    11    15    16   ar
    12    16     7    1
    13     7     8    1
    14     8     9    1
    15     9    10    1
    16    10     1    1
    17     1     2   ar
    18     2     3   ar
    19     3     4   ar
    20     4    29    1
    21    29    30    1
    22    30    31    1
    23    31    32    1
    24    32    33    1
    25    33    34    1
    26    34    44    1
    27    44    45    1
    28    45    46   ar
    29    46    47   ar
    30    47    48    1
    31    47    49   ar
    32    49    50   ar
    33    50    51    1
    34    34    36    1
    35    36    37   ar
    36    37    38   ar
    37    38    39   ar
    38    39    40    1
    39    39    41   ar
    40    41    42   ar
    41    42    43    1
    42    34    35    1
    43     4     5   ar
    44     5     6   ar
    45    10    11    1
    46    11    12    1
    47    16    17   ar
    48    17    18   ar
    49    22    23   ar
    50    23    24    2
    51    23    19   ar
    52    18    13   ar
    53    12     7    1
    54     6     1   ar
    55    35    31    1
    56    50    45   ar
    57    42    36   ar
@<TRIPOS>MOLECULE
*****
 51 57 0 0 0
SMALL
GASTEIGER

@<TRIPOS>ATOM
      1 C          59.2833   79.8353    9.8762 C.ar    1  UNL1        0.0481
      2 C          60.5197   80.3195    9.4138 C.ar    1  UNL1        0.0176
      3 C          60.5795   81.1847    8.3192 C.ar    1  UNL1        0.0382
      4 C          59.4004   81.5904    7.6684 C.ar    1  UNL1        0.1388
      5 C          58.1755   81.0626    8.0903 C.ar    1  UNL1        0.0382
      6 C          58.1136   80.2010    9.1896 C.ar    1  UNL1        0.0176
      7 N          60.4115   79.4997   13.3867 N.pl3   1  UNL1       -0.3041
      8 C          61.1340   78.5540   12.5161 C.3     1  UNL1        0.1122
      9 C          60.2125   78.0261   11.4026 C.3     1  UNL1        0.1122
     10 N          59.2000   79.0428   11.0810 N.pl3   1  UNL1       -0.3041
     11 C          58.2843   79.4586   12.1588 C.3     1  UNL1        0.1122
     12 C          58.9605   79.3112   13.5332 C.3     1  UNL1        0.1122
     13 C          62.4787   83.1123   14.3217 C.ar    1  UNL1        0.0699
     14 C          62.9340   81.8792   14.8194 C.ar    1  UNL1        0.0190
     15 C          62.2280   80.7022   14.5516 C.ar    1  UNL1        0.0160
     16 C          61.0539   80.7323   13.7812 C.ar    1  UNL1        0.0480
     17 C          60.5766   81.9729   13.3243 C.ar    1  UNL1        0.0160
     18 C          61.2833   83.1474   13.5884 C.ar    1  UNL1        0.0190
     19 N          63.8732   86.4348   14.7458 N.ar    1  UNL1       -0.2024
     20 N          64.9627   85.6970   14.9033 N.ar    1  UNL1       -0.1442
     21 C          64.5756   84.4124   14.7500 C.ar    1  UNL1        0.2073
     22 N          63.2484   84.3163   14.5045 N.ar    1  UNL1       -0.2398
     23 C          62.8445   85.6017   14.5075 C.ar    1  UNL1        0.3522
     24 O          61.6619   85.9809   14.2910 O.2     1  UNL1       -0.2444
     25 C          63.8337   87.8968   14.8571 C.3     1  UNL1        0.1099
     26 C          62.7474   88.3115   15.8530 C.3     1  UNL1        0.0265
     27 C          64.5668   89.6714   13.1898 C.3     1  UNL1        0.0021
     28 C          63.5842   88.5373   13.4790 C.3     1  UNL1        0.0245
     29 O          59.3998   82.5170    6.6126 O.3     1  UNL1       -0.4727
     30 C          59.8513   83.8713    6.7011 C.3     1  UNL1        0.2374
     31 C          59.4096   84.5051    8.0298 C.3     1  UNL1        0.1909
     32 C          59.3649   86.0106    7.9732 C.3     1  UNL1        0.1783
     33 O          59.9444   86.4734    9.1555 O.3     1  UNL1       -0.3266
     34 C          60.3537   85.3281    9.8794 C.3     1  UNL1        0.2314
     35 O          60.3110   84.1953    9.0422 O.3     1  UNL1       -0.3254
     36 C          59.4520   85.1309   11.1026 C.ar    1  UNL1        0.0410
     37 C          58.5916   84.0124   11.1433 C.ar    1  UNL1        0.0022
     38 C          57.6971   83.8306   12.1990 C.ar    1  UNL1        0.0113
     39 C          57.6271   84.7687   13.2272 C.ar    1  UNL1        0.0585
     40 CL         56.4906   84.5447   14.5442 Cl      1  UNL1       -0.0822
     41 C          58.4486   85.8958   13.1975 C.ar    1  UNL1        0.0226
     42 C          59.3509   86.0941   12.1450 C.ar    1  UNL1        0.0591
     43 CL         60.2909   87.5850   12.1796 Cl      1  UNL1       -0.0824
     44 C          61.8007   85.5393   10.3699 C.3     1  UNL1        0.1893
     45 N          62.6130   84.3287   10.2117 N.ar    1  UNL1       -0.2313
     46 N          62.7591   83.4000   11.1395 N.ar    1  UNL1       -0.1532
     47 C          63.5163   82.4389   10.5777 C.ar    1  UNL1        0.1604
     48 C          63.8933   81.1776   11.2763 C.3     1  UNL1        0.0756
     49 N          63.8274   82.7008    9.2895 N.ar    1  UNL1       -0.2146
     50 C          63.2422   83.8999    9.0988 C.ar    1  UNL1        0.1381
     51 C          63.2493   84.6169    7.7880 C.3     1  UNL1        0.0734
@<TRIPOS>BOND
     1    27    28    1
     2    28    25    1
     3    25    26    1
     4    25    19    1
     5    19    20   ar
     6    20    21   ar
     7    21    22   ar
     8    22    13    1
     9    13    14   ar
    10    14    15   ar
    11    15    16   ar
    12    16     7    1
    13     7     8    1
    14     8     9    1
    15     9    10    1
    16    10     1    1
    17     1     2   ar
    18     2     3   ar
    19     3     4   ar
    20     4    29    1
    21    29    30    1
    22    30    31    1
    23    31    32    1
    24    32    33    1
    25    33    34    1
    26    34    44    1
    27    44    45    1
    28    45    46   ar
    29    46    47   ar
    30    47    48    1
    31    47    49   ar
    32    49    50   ar
    33    50    51    1
    34    34    36    1
    35    36    37   ar
    36    37    38   ar
    37    38    39   ar
    38    39    40    1
    39    39    41   ar
    40    41    42   ar
    41    42    43    1
    42    34    35    1
    43     4     5   ar
    44     5     6   ar
    45    10    11    1
    46    11    12    1
    47    16    17   ar
    48    17    18   ar
    49    22    23   ar
    50    23    24    2
    51    23    19   ar
    52    18    13   ar
    53    12     7    1
    54     6     1   ar
    55    35    31    1
    56    50    45   ar
    57    42    36   ar
@<TRIPOS>MOLECULE
*****
 51 57 0 0 0
SMALL
GASTEIGER

@<TRIPOS>ATOM
      1 C          61.1375   81.9560    9.4932 C.ar    1  UNL1        0.0481
      2 C          60.5379   81.0982   10.4323 C.ar    1  UNL1        0.0176
      3 C          61.2780   80.5842   11.4992 C.ar    1  UNL1        0.0382
      4 C          62.6339   80.9247   11.6533 C.ar    1  UNL1        0.1388
      5 C          63.2462   81.7298   10.6869 C.ar    1  UNL1        0.0382
      6 C          62.5051   82.2499    9.6216 C.ar    1  UNL1        0.0176
      7 N          59.9330   85.1816    8.1318 N.pl3   1  UNL1       -0.3041
      8 C          58.8591   84.4985    8.8763 C.3     1  UNL1        0.1122
      9 C          58.9508   82.9740    8.6881 C.3     1  UNL1        0.1122
     10 N          60.3523   82.5915    8.4608 N.pl3   1  UNL1       -0.3041
     11 C          61.0306   83.1558    7.2798 C.3     1  UNL1        0.1122
     12 C          60.4347   84.5267    6.9145 C.3     1  UNL1        0.1122
     13 C          62.1163   88.1738   10.2479 C.ar    1  UNL1        0.0699
     14 C          60.7120   88.1447   10.2977 C.ar    1  UNL1        0.0190
     15 C          59.9962   87.1927    9.5651 C.ar    1  UNL1        0.0160
     16 C          60.6676   86.2504    8.7686 C.ar    1  UNL1        0.0480
     17 C          62.0693   86.3120    8.6850 C.ar    1  UNL1        0.0160
     18 C          62.7843   87.2599    9.4193 C.ar    1  UNL1        0.0190
     19 N          64.3897   90.5098   11.8411 N.ar    1  UNL1       -0.2024
     20 N          63.4622   90.4010   12.7813 N.ar    1  UNL1       -0.1442
     21 C          62.5457   89.5285   12.3098 C.ar    1  UNL1        0.2073
     22 N          62.8696   89.0824   11.0741 N.ar    1  UNL1       -0.2398
     23 C          64.0298   89.7170   10.8159 C.ar    1  UNL1        0.3522
     24 O          64.7065   89.5711    9.7624 O.2     1  UNL1       -0.2444
     25 C          65.5661   91.3815   11.9283 C.3     1  UNL1        0.1099
     26 C          66.1689   91.5794   10.5349 C.3     1  UNL1        0.0265
     27 C          66.3249   91.1722   14.3464 C.3     1  UNL1        0.0021
     28 C          66.6082   90.7882   12.8946 C.3     1  UNL1        0.0245
     29 O          63.4015   80.4963   12.7490 O.3     1  UNL1       -0.4727
     30 C          64.3428   81.3015   13.4641 C.3     1  UNL1        0.2374
     31 C          63.6515   82.5300   14.0768 C.3     1  UNL1        0.1909
     32 C          62.3588   82.1875   14.7720 C.3     1  UNL1        0.1783
     33 O          61.4323   83.1620   14.3978 O.3     1  UNL1       -0.3266
     34 C          62.0996   84.0297   13.5007 C.3     1  UNL1        0.2314
     35 O          63.3126   83.4446   13.0858 O.3     1  UNL1       -0.3254
     36 C          62.3540   85.3836   14.1720 C.ar    1  UNL1        0.0410
     37 C          63.4705   86.1470   13.7676 C.ar    1  UNL1        0.0022
     38 C          63.7879   87.3492   14.4012 C.ar    1  UNL1        0.0113
     39 C          63.0111   87.8074   15.4638 C.ar    1  UNL1        0.0585
     40 CL         63.4224   89.3109   16.2678 Cl      1  UNL1       -0.0822
     41 C          61.9174   87.0588   15.8993 C.ar    1  UNL1        0.0226
     42 C          61.5859   85.8497   15.2753 C.ar    1  UNL1        0.0591
     43 CL         60.2236   84.9583   15.9517 Cl      1  UNL1       -0.0824
     44 C          61.2015   84.2585   12.2677 C.3     1  UNL1        0.1893
     45 N          59.8622   84.7205   12.6460 N.ar    1  UNL1       -0.2313
     46 N          59.5336   85.9857   12.8351 N.ar    1  UNL1       -0.1532
     47 C          58.2133   85.9843   13.0990 C.ar    1  UNL1        0.1604
     48 C          57.4230   87.2246   13.3399 C.3     1  UNL1        0.0756
     49 N          57.6670   84.7502   13.0402 N.ar    1  UNL1       -0.2146
     50 C          58.7382   83.9836   12.7550 C.ar    1  UNL1        0.1381
     51 C          58.6547   82.5090   12.5291 C.3     1  UNL1        0.0734
@<TRIPOS>BOND
     1    27    28    1
     2    28    25    1
     3    25    26    1
     4    25    19    1
     5    19    20   ar
     6    20    21   ar
     7    21    22   ar
     8    22    13    1
     9    13    14   ar
    10    14    15   ar
    11    15    16   ar
    12    16     7    1
    13     7     8    1
    14     8     9    1
    15     9    10    1
    16    10     1    1
    17     1     2   ar
    18     2     3   ar
    19     3     4   ar
    20     4    29    1
    21    29    30    1
    22    30    31    1
    23    31    32    1
    24    32    33    1
    25    33    34    1
    26    34    44    1
    27    44    45    1
    28    45    46   ar
    29    46    47   ar
    30    47    48    1
    31    47    49   ar
    32    49    50   ar
    33    50    51    1
    34    34    36    1
    35    36    37   ar
    36    37    38   ar
    37    38    39   ar
    38    39    40    1
    39    39    41   ar
    40    41    42   ar
    41    42    43    1
    42    34    35    1
    43     4     5   ar
    44     5     6   ar
    45    10    11    1
    46    11    12    1
    47    16    17   ar
    48    17    18   ar
    49    22    23   ar
    50    23    24    2
    51    23    19   ar
    52    18    13   ar
    53    12     7    1
    54     6     1   ar
    55    35    31    1
    56    50    45   ar
    57    42    36   ar
@<TRIPOS>MOLECULE
*****
 51 57 0 0 0
SMALL
GASTEIGER

@<TRIPOS>ATOM
      1 C          61.1307   83.7671    8.5738 C.ar    1  UNL1        0.0481
      2 C          60.5731   82.4856    8.7289 C.ar    1  UNL1        0.0176
      3 C          61.3048   81.4607    9.3325 C.ar    1  UNL1        0.0382
      4 C          62.6092   81.6993    9.8015 C.ar    1  UNL1        0.1388
      5 C          63.1862   82.9567    9.5942 C.ar    1  UNL1        0.0382
      6 C          62.4528   83.9854    8.9954 C.ar    1  UNL1        0.0176
      7 N          60.1919   87.3180    9.0411 N.pl3   1  UNL1       -0.3041
      8 C          59.1127   86.4293    9.5098 C.3     1  UNL1        0.1122
      9 C          59.0147   85.1765    8.6217 C.3     1  UNL1        0.1122
     10 N          60.3400   84.8642    8.0665 N.pl3   1  UNL1       -0.3041
     11 C          60.9779   85.8809    7.2105 C.3     1  UNL1        0.1122
     12 C          60.5134   87.2935    7.6064 C.3     1  UNL1        0.1122
     13 C          63.0559   88.8755   11.7925 C.ar    1  UNL1        0.0699
     14 C          62.2324   87.7952   12.1535 C.ar    1  UNL1        0.0190
     15 C          61.2614   87.3170   11.2680 C.ar    1  UNL1        0.0160
     16 C          61.0934   87.9071   10.0044 C.ar    1  UNL1        0.0480
     17 C          61.8870   89.0165    9.6653 C.ar    1  UNL1        0.0160
     18 C          62.8589   89.4915   10.5476 C.ar    1  UNL1        0.0190
     19 N          65.8809   90.3757   13.5049 N.ar    1  UNL1       -0.2024
     20 N          65.4455   89.5477   14.4435 N.ar    1  UNL1       -0.1442
     21 C          64.3828   88.9026   13.9161 C.ar    1  UNL1        0.2073
     22 N          64.1255   89.3132   12.6526 N.ar    1  UNL1       -0.2398
     23 C          65.0846   90.2331   12.4303 C.ar    1  UNL1        0.3522
     24 O          65.2353   90.8630   11.3488 O.2     1  UNL1       -0.2444
     25 C          67.0123   91.2953   13.6647 C.3     1  UNL1        0.1099
     26 C          68.2626   90.6965   13.0149 C.3     1  UNL1        0.0265
     27 C          68.7447   91.5175   15.5130 C.3     1  UNL1        0.0021
     28 C          67.2609   91.5926   15.1552 C.3     1  UNL1        0.0245
     29 O          63.3580   80.7254   10.4828 O.3     1  UNL1       -0.4727
     30 C          62.9375   80.0353   11.6628 C.3     1  UNL1        0.2374
     31 C          62.7020   81.0243   12.8155 C.3     1  UNL1        0.1909
     32 C          62.0257   80.3883   14.0028 C.3     1  UNL1        0.1783
     33 O          61.0428   81.2823   14.4303 O.3     1  UNL1       -0.3266
     34 C          61.0849   82.3833   13.5420 C.3     1  UNL1        0.2314
     35 O          61.8589   82.0535   12.4114 O.3     1  UNL1       -0.3254
     36 C          61.6638   83.6102   14.2545 C.ar    1  UNL1        0.0410
     37 C          60.8165   84.3865   15.0744 C.ar    1  UNL1        0.0022
     38 C          61.2768   85.5553   15.6825 C.ar    1  UNL1        0.0113
     39 C          62.5853   85.9861   15.4717 C.ar    1  UNL1        0.0585
     40 CL         63.1553   87.4638   16.2251 Cl      1  UNL1       -0.0822
     41 C          63.4351   85.2505   14.6453 C.ar    1  UNL1        0.0226
     42 C          62.9888   84.0761   14.0265 C.ar    1  UNL1        0.0591
     43 CL         64.1287   83.2653   12.9537 Cl      1  UNL1       -0.0824
     44 C          59.6477   82.7150   13.0909 C.3     1  UNL1        0.1893
     45 N          59.0762   81.6493   12.2613 N.ar    1  UNL1       -0.2313
     46 N          59.2702   80.3587   12.4643 N.ar    1  UNL1       -0.1532
     47 C          58.5264   79.7276   11.5362 C.ar    1  UNL1        0.1604
     48 C          58.4272   78.2441   11.4336 C.3     1  UNL1        0.0756
     49 N          57.8169   80.5788   10.7636 N.ar    1  UNL1       -0.2146
     50 C          58.1930   81.7779   11.2506 C.ar    1  UNL1        0.1381
     51 C          57.6374   83.0742   10.7574 C.3     1  UNL1        0.0734
@<TRIPOS>BOND
     1    27    28    1
     2    28    25    1
     3    25    26    1
     4    25    19    1
     5    19    20   ar
     6    20    21   ar
     7    21    22   ar
     8    22    13    1
     9    13    14   ar
    10    14    15   ar
    11    15    16   ar
    12    16     7    1
    13     7     8    1
    14     8     9    1
    15     9    10    1
    16    10     1    1
    17     1     2   ar
    18     2     3   ar
    19     3     4   ar
    20     4    29    1
    21    29    30    1
    22    30    31    1
    23    31    32    1
    24    32    33    1
    25    33    34    1
    26    34    44    1
    27    44    45    1
    28    45    46   ar
    29    46    47   ar
    30    47    48    1
    31    47    49   ar
    32    49    50   ar
    33    50    51    1
    34    34    36    1
    35    36    37   ar
    36    37    38   ar
    37    38    39   ar
    38    39    40    1
    39    39    41   ar
    40    41    42   ar
    41    42    43    1
    42    34    35    1
    43     4     5   ar
    44     5     6   ar
    45    10    11    1
    46    11    12    1
    47    16    17   ar
    48    17    18   ar
    49    22    23   ar
    50    23    24    2
    51    23    19   ar
    52    18    13   ar
    53    12     7    1
    54     6     1   ar
    55    35    31    1
    56    50    45   ar
    57    42    36   ar
