@<TRIPOS>MOLECULE
*****
 36 40 0 0 0
SMALL
GASTEIGER

@<TRIPOS>ATOM
      1 C         -26.0021   -5.4313  -14.7712 C.2     1  UNL1        0.2492
      2 O         -24.9735   -5.6744  -15.4600 O.2     1  UNL1       -0.2699
      3 N         -26.0283   -5.8017  -13.3781 N.am    1  UNL1       -0.2760
      4 C         -27.2545   -6.3559  -12.7822 C.3     1  UNL1        0.0954
      5 C         -26.9275   -7.3554  -11.6582 C.3     1  UNL1        0.0399
      6 C         -25.6880   -8.2263  -11.9976 C.3     1  UNL1        0.0645
      7 C         -24.4381   -7.3167  -12.2441 C.3     1  UNL1        0.0399
      8 C         -24.7828   -5.8614  -12.6062 C.3     1  UNL1        0.0954
      9 C         -25.9928   -9.0825  -13.2824 C.3     1  UNL1        0.0477
     10 C         -25.0384  -10.2308  -13.4028 C.ar    1  UNL1        0.0220
     11 C         -24.7172  -11.0242  -14.4792 C.ar    1  UNL1        0.0923
     12 N         -23.9368  -12.0389  -14.0294 N.ar    1  UNL1       -0.2534
     13 N         -23.7856  -11.9356  -12.7116 N.ar    1  UNL1       -0.1651
     14 C         -24.4565  -10.8346  -12.3321 C.ar    1  UNL1        0.1515
     15 C         -24.6495  -10.3215  -10.9859 C.2     1  UNL1        0.2650
     16 O         -24.1923  -10.9276   -9.9813 O.2     1  UNL1       -0.2684
     17 N         -25.4037   -9.1083  -10.8385 N.am    1  UNL1       -0.3023
     18 H         -25.5846   -8.7584   -9.8700 H       1  UNL1        0.1497
     19 C         -28.9247   -2.0608  -18.9695 C.ar    1  UNL1        0.2249
     20 C         -30.2235   -2.1866  -18.4719 C.ar    1  UNL1        0.0578
     21 C         -30.4512   -2.9371  -17.3170 C.ar    1  UNL1        0.0093
     22 C         -29.3779   -3.5620  -16.6604 C.ar    1  UNL1        0.0519
     23 C         -29.5687   -4.3236  -15.4905 C.ar    1  UNL1        0.1402
     24 C         -28.4536   -4.9277  -14.8762 C.ar    1  UNL1        0.0415
     25 C         -27.1672   -4.7921  -15.4223 C.ar    1  UNL1        0.0581
     26 C         -26.9866   -4.0170  -16.5766 C.ar    1  UNL1        0.0239
     27 C         -28.0798   -3.4091  -17.1980 C.ar    1  UNL1        0.0874
     28 N         -27.8916   -2.6710  -18.3249 N.ar    1  UNL1       -0.2116
     29 C         -27.6975   -1.6382  -21.0776 C.3     1  UNL1        0.2542
     30 O         -28.7024   -1.3080  -20.1262 O.3     1  UNL1       -0.4561
     31 O         -30.8651   -4.4596  -14.9641 O.3     1  UNL1       -0.4714
     32 C         -31.5876   -3.4198  -14.3125 C.3     1  UNL1        0.2525
     33 C         -23.3962  -13.1435  -14.8468 C.3     1  UNL1        0.0867
     34 C         -23.3906  -12.7342  -16.3326 C.3     1  UNL1        0.0244
     35 C         -21.9494  -13.4758  -14.4218 C.3     1  UNL1        0.0244
     36 C         -24.2720  -14.3951  -14.6557 C.3     1  UNL1        0.0244
@<TRIPOS>BOND
     1    29    30    1
     2    30    19    1
     3    19    20   ar
     4    20    21   ar
     5    21    22   ar
     6    22    23   ar
     7    23    31    1
     8    31    32    1
     9    23    24   ar
    10    24    25   ar
    11    25     1    1
    12     1     2    2
    13     1     3   am
    14     3     4    1
    15     4     5    1
    16     5     6    1
    17     6     7    1
    18     7     8    1
    19     6     9    1
    20     9    10    1
    21    10    11   ar
    22    11    12   ar
    23    12    33    1
    24    33    34    1
    25    33    35    1
    26    33    36    1
    27    12    13   ar
    28    13    14   ar
    29    14    15    1
    30    15    16    2
    31    15    17   am
    32    25    26   ar
    33    26    27   ar
    34    27    28   ar
    35    28    19   ar
    36    27    22   ar
    37     8     3    1
    38    14    10   ar
    39    17     6    1
    40    17    18    1
@<TRIPOS>MOLECULE
*****
 36 40 0 0 0
SMALL
GASTEIGER

@<TRIPOS>ATOM
      1 C         -26.1461   -5.2416  -15.0412 C.2     1  UNL1        0.2492
      2 O         -25.2781   -5.6155  -15.8770 O.2     1  UNL1       -0.2699
      3 N         -25.9561   -5.5315  -13.6417 N.am    1  UNL1       -0.2760
      4 C         -27.0989   -5.9373  -12.8080 C.3     1  UNL1        0.0954
      5 C         -26.6609   -6.9000  -11.6895 C.3     1  UNL1        0.0399
      6 C         -25.5754   -7.8983  -12.1742 C.3     1  UNL1        0.0645
      7 C         -24.3190   -7.1223  -12.6934 C.3     1  UNL1        0.0399
      8 C         -24.6031   -5.6634  -13.0918 C.3     1  UNL1        0.0954
      9 C         -26.1704   -8.7916  -13.3251 C.3     1  UNL1        0.0477
     10 C         -25.3484  -10.0277  -13.5265 C.ar    1  UNL1        0.0220
     11 C         -25.2874  -10.9047  -14.5841 C.ar    1  UNL1        0.0923
     12 N         -24.5248  -11.9608  -14.2046 N.ar    1  UNL1       -0.2534
     13 N         -24.1358  -11.8002  -12.9425 N.ar    1  UNL1       -0.1651
     14 C         -24.6378  -10.6232  -12.5316 C.ar    1  UNL1        0.1515
     15 C         -24.5482  -10.0218  -11.2113 C.2     1  UNL1        0.2650
     16 O         -23.9716  -10.6117  -10.2598 O.2     1  UNL1       -0.2684
     17 N         -25.1637   -8.7382  -11.0221 N.am    1  UNL1       -0.3023
     18 H         -25.1421   -8.3209  -10.0637 H       1  UNL1        0.1497
     19 C         -32.0730   -3.6966  -15.1509 C.ar    1  UNL1        0.2249
     20 C         -32.0362   -2.8014  -16.2223 C.ar    1  UNL1        0.0578
     21 C         -30.8269   -2.5532  -16.8739 C.ar    1  UNL1        0.0093
     22 C         -29.6540   -3.2015  -16.4525 C.ar    1  UNL1        0.0519
     23 C         -28.4165   -2.9792  -17.0885 C.ar    1  UNL1        0.1402
     24 C         -27.2736   -3.6579  -16.6207 C.ar    1  UNL1        0.0415
     25 C         -27.3520   -4.5344  -15.5266 C.ar    1  UNL1        0.0581
     26 C         -28.5920   -4.7616  -14.9129 C.ar    1  UNL1        0.0239
     27 C         -29.7358   -4.0995  -15.3642 C.ar    1  UNL1        0.0874
     28 N         -30.9298   -4.3194  -14.7507 N.ar    1  UNL1       -0.2116
     29 C         -33.5461   -3.5160  -13.1695 C.3     1  UNL1        0.2542
     30 O         -33.2867   -3.9415  -14.5020 O.3     1  UNL1       -0.4561
     31 O         -28.3534   -2.0889  -18.1746 O.3     1  UNL1       -0.4714
     32 C         -28.2455   -2.4824  -19.5389 C.3     1  UNL1        0.2525
     33 C         -24.2281  -13.1534  -15.0233 C.3     1  UNL1        0.0867
     34 C         -24.2953  -12.7854  -16.5185 C.3     1  UNL1        0.0244
     35 C         -22.8139  -13.6886  -14.7107 C.3     1  UNL1        0.0244
     36 C         -25.2581  -14.2545  -14.7123 C.3     1  UNL1        0.0244
@<TRIPOS>BOND
     1    29    30    1
     2    30    19    1
     3    19    20   ar
     4    20    21   ar
     5    21    22   ar
     6    22    23   ar
     7    23    31    1
     8    31    32    1
     9    23    24   ar
    10    24    25   ar
    11    25     1    1
    12     1     2    2
    13     1     3   am
    14     3     4    1
    15     4     5    1
    16     5     6    1
    17     6     7    1
    18     7     8    1
    19     6     9    1
    20     9    10    1
    21    10    11   ar
    22    11    12   ar
    23    12    33    1
    24    33    34    1
    25    33    35    1
    26    33    36    1
    27    12    13   ar
    28    13    14   ar
    29    14    15    1
    30    15    16    2
    31    15    17   am
    32    25    26   ar
    33    26    27   ar
    34    27    28   ar
    35    28    19   ar
    36    27    22   ar
    37     8     3    1
    38    14    10   ar
    39    17     6    1
    40    17    18    1
@<TRIPOS>MOLECULE
*****
 36 40 0 0 0
SMALL
GASTEIGER

@<TRIPOS>ATOM
      1 C         -21.5187   -8.8311   -8.9864 C.2     1  UNL1        0.2492
      2 O         -22.5803   -9.4726   -8.7558 O.2     1  UNL1       -0.2699
      3 N         -21.4320   -7.9996  -10.1610 N.am    1  UNL1       -0.2760
      4 C         -20.1850   -7.9475  -10.9408 C.3     1  UNL1        0.0954
      5 C         -20.4694   -7.7103  -12.4349 C.3     1  UNL1        0.0399
      6 C         -21.7315   -8.4763  -12.9148 C.3     1  UNL1        0.0645
      7 C         -22.9827   -8.0319  -12.0857 C.3     1  UNL1        0.0399
      8 C         -22.6411   -7.3935  -10.7279 C.3     1  UNL1        0.0954
      9 C         -21.4944  -10.0227  -12.7450 C.3     1  UNL1        0.0477
     10 C         -22.4642  -10.8099  -13.5720 C.ar    1  UNL1        0.0220
     11 C         -22.8422  -12.1303  -13.5009 C.ar    1  UNL1        0.0923
     12 N         -23.6107  -12.4015  -14.5857 N.ar    1  UNL1       -0.2534
     13 N         -23.7000  -11.3175  -15.3520 N.ar    1  UNL1       -0.1651
     14 C         -23.0019  -10.3500  -14.7334 C.ar    1  UNL1        0.1515
     15 C         -22.7422   -8.9964  -15.1951 C.2     1  UNL1        0.2650
     16 O         -23.1584   -8.5937  -16.3133 O.2     1  UNL1       -0.2684
     17 N         -21.9705   -8.1387  -14.3399 N.am    1  UNL1       -0.3023
     18 H         -21.7418   -7.1789  -14.6861 H       1  UNL1        0.1497
     19 C         -18.2219   -7.6733   -3.9548 C.ar    1  UNL1        0.2249
     20 C         -17.1573   -8.5443   -4.1970 C.ar    1  UNL1        0.0578
     21 C         -17.1488   -9.3187   -5.3584 C.ar    1  UNL1        0.0093
     22 C         -18.2068   -9.2211   -6.2775 C.ar    1  UNL1        0.0519
     23 C         -18.2304   -9.9836   -7.4621 C.ar    1  UNL1        0.1402
     24 C         -19.3190   -9.8436   -8.3460 C.ar    1  UNL1        0.0415
     25 C         -20.3789   -8.9705   -8.0530 C.ar    1  UNL1        0.0581
     26 C         -20.3360   -8.2035   -6.8802 C.ar    1  UNL1        0.0239
     27 C         -19.2642   -8.3275   -5.9933 C.ar    1  UNL1        0.0874
     28 N         -19.2424   -7.5869   -4.8526 N.ar    1  UNL1       -0.2116
     29 C         -19.3101   -6.0519   -2.4332 C.3     1  UNL1        0.2542
     30 O         -18.2252   -6.9001   -2.7902 O.3     1  UNL1       -0.4561
     31 O         -17.1672  -10.8621   -7.7339 O.3     1  UNL1       -0.4714
     32 C         -17.1538  -11.8138   -8.7932 C.3     1  UNL1        0.2525
     33 C         -24.1989  -13.7129  -14.9244 C.3     1  UNL1        0.0867
     34 C         -24.6958  -13.6968  -16.3832 C.3     1  UNL1        0.0244
     35 C         -23.1483  -14.8343  -14.7741 C.3     1  UNL1        0.0244
     36 C         -25.3772  -14.0032  -13.9771 C.3     1  UNL1        0.0244
@<TRIPOS>BOND
     1    29    30    1
     2    30    19    1
     3    19    20   ar
     4    20    21   ar
     5    21    22   ar
     6    22    23   ar
     7    23    31    1
     8    31    32    1
     9    23    24   ar
    10    24    25   ar
    11    25     1    1
    12     1     2    2
    13     1     3   am
    14     3     4    1
    15     4     5    1
    16     5     6    1
    17     6     7    1
    18     7     8    1
    19     6     9    1
    20     9    10    1
    21    10    11   ar
    22    11    12   ar
    23    12    33    1
    24    33    34    1
    25    33    35    1
    26    33    36    1
    27    12    13   ar
    28    13    14   ar
    29    14    15    1
    30    15    16    2
    31    15    17   am
    32    25    26   ar
    33    26    27   ar
    34    27    28   ar
    35    28    19   ar
    36    27    22   ar
    37     8     3    1
    38    14    10   ar
    39    17     6    1
    40    17    18    1
@<TRIPOS>MOLECULE
*****
 36 40 0 0 0
SMALL
GASTEIGER

@<TRIPOS>ATOM
      1 C         -19.9055   -8.2488   -9.5049 C.2     1  UNL1        0.2492
      2 O         -20.3233   -7.0651   -9.6307 O.2     1  UNL1       -0.2699
      3 N         -19.9181   -9.1317  -10.6446 N.am    1  UNL1       -0.2760
      4 C         -20.2936  -10.5453  -10.4820 C.3     1  UNL1        0.0954
      5 C         -20.9863  -11.0886  -11.7448 C.3     1  UNL1        0.0399
      6 C         -21.9277  -10.0359  -12.3895 C.3     1  UNL1        0.0645
      7 C         -21.1215   -8.7491  -12.7696 C.3     1  UNL1        0.0399
      8 C         -19.7980   -8.5880  -12.0013 C.3     1  UNL1        0.0954
      9 C         -23.0726   -9.6734  -11.3725 C.3     1  UNL1        0.0477
     10 C         -24.2253   -9.0191  -12.0706 C.ar    1  UNL1        0.0220
     11 C         -25.2645   -8.2651  -11.5779 C.ar    1  UNL1        0.0923
     12 N         -26.1443   -8.0584  -12.5899 N.ar    1  UNL1       -0.2534
     13 N         -25.7187   -8.6813  -13.6858 N.ar    1  UNL1       -0.1651
     14 C         -24.5507   -9.2652  -13.3679 C.ar    1  UNL1        0.1515
     15 C         -23.7173  -10.1160  -14.2012 C.2     1  UNL1        0.2650
     16 O         -24.0600  -10.4243  -15.3730 O.2     1  UNL1       -0.2684
     17 N         -22.4973  -10.6152  -13.6313 N.am    1  UNL1       -0.3023
     18 H         -21.9160  -11.2641  -14.2093 H       1  UNL1        0.1497
     19 C         -19.6068   -8.3321   -3.3868 C.ar    1  UNL1        0.2249
     20 C         -18.6600   -9.3478   -3.2372 C.ar    1  UNL1        0.0578
     21 C         -18.1237   -9.9645   -4.3689 C.ar    1  UNL1        0.0093
     22 C         -18.5359   -9.5642   -5.6508 C.ar    1  UNL1        0.0519
     23 C         -18.0137  -10.1605   -6.8157 C.ar    1  UNL1        0.1402
     24 C         -18.4662   -9.7174   -8.0746 C.ar    1  UNL1        0.0415
     25 C         -19.4352   -8.7067   -8.1786 C.ar    1  UNL1        0.0581
     26 C         -19.9345   -8.1080   -7.0132 C.ar    1  UNL1        0.0239
     27 C         -19.4963   -8.5327   -5.7569 C.ar    1  UNL1        0.0874
     28 N         -19.9993   -7.9521   -4.6344 N.ar    1  UNL1       -0.2116
     29 C         -19.7533   -6.4164   -1.8257 C.3     1  UNL1        0.2542
     30 O         -20.1404   -7.7179   -2.2501 O.3     1  UNL1       -0.4561
     31 O         -17.0534  -11.1798   -6.6934 O.3     1  UNL1       -0.4714
     32 C         -16.6276  -12.0232   -7.7588 C.3     1  UNL1        0.2525
     33 C         -27.4231   -7.3269  -12.4899 C.3     1  UNL1        0.0867
     34 C         -27.1485   -5.8131  -12.3988 C.3     1  UNL1        0.0244
     35 C         -28.3003   -7.5945  -13.7321 C.3     1  UNL1        0.0244
     36 C         -28.1810   -7.7942  -11.2340 C.3     1  UNL1        0.0244
@<TRIPOS>BOND
     1    29    30    1
     2    30    19    1
     3    19    20   ar
     4    20    21   ar
     5    21    22   ar
     6    22    23   ar
     7    23    31    1
     8    31    32    1
     9    23    24   ar
    10    24    25   ar
    11    25     1    1
    12     1     2    2
    13     1     3   am
    14     3     4    1
    15     4     5    1
    16     5     6    1
    17     6     7    1
    18     7     8    1
    19     6     9    1
    20     9    10    1
    21    10    11   ar
    22    11    12   ar
    23    12    33    1
    24    33    34    1
    25    33    35    1
    26    33    36    1
    27    12    13   ar
    28    13    14   ar
    29    14    15    1
    30    15    16    2
    31    15    17   am
    32    25    26   ar
    33    26    27   ar
    34    27    28   ar
    35    28    19   ar
    36    27    22   ar
    37     8     3    1
    38    14    10   ar
    39    17     6    1
    40    17    18    1
@<TRIPOS>MOLECULE
*****
 36 40 0 0 0
SMALL
GASTEIGER

@<TRIPOS>ATOM
      1 C         -21.3901   -8.7770   -8.7070 C.2     1  UNL1        0.2492
      2 O         -22.5031   -9.3414   -8.5217 O.2     1  UNL1       -0.2699
      3 N         -21.1982   -7.9495   -9.8719 N.am    1  UNL1       -0.2760
      4 C         -19.9212   -7.9843  -10.6025 C.3     1  UNL1        0.0954
      5 C         -20.1293   -7.7217  -12.1049 C.3     1  UNL1        0.0399
      6 C         -21.4233   -8.3933  -12.6383 C.3     1  UNL1        0.0645
      7 C         -22.6709   -7.8633  -11.8553 C.3     1  UNL1        0.0399
      8 C         -22.3377   -7.2561  -10.4812 C.3     1  UNL1        0.0954
      9 C         -21.3044   -9.9534  -12.4695 C.3     1  UNL1        0.0477
     10 C         -22.2951  -10.6658  -13.3383 C.ar    1  UNL1        0.0220
     11 C         -22.7692  -11.9559  -13.2905 C.ar    1  UNL1        0.0923
     12 N         -23.5123  -12.1672  -14.4060 N.ar    1  UNL1       -0.2534
     13 N         -23.4937  -11.0768  -15.1681 N.ar    1  UNL1       -0.1651
     14 C         -22.7527  -10.1642  -14.5167 C.ar    1  UNL1        0.1515
     15 C         -22.3789   -8.8311  -14.9592 C.2     1  UNL1        0.2650
     16 O         -22.7212   -8.3955  -16.0900 O.2     1  UNL1       -0.2684
     17 N         -21.5817   -8.0342  -14.0694 N.am    1  UNL1       -0.3023
     18 H         -21.2715   -7.0921  -14.4002 H       1  UNL1        0.1497
     19 C         -16.1678  -11.1824   -6.5928 C.ar    1  UNL1        0.2249
     20 C         -16.1400  -10.5576   -5.3441 C.ar    1  UNL1        0.0578
     21 C         -17.1705   -9.6877   -4.9837 C.ar    1  UNL1        0.0093
     22 C         -18.2292   -9.4431   -5.8742 C.ar    1  UNL1        0.0519
     23 C         -19.2885   -8.5749   -5.5435 C.ar    1  UNL1        0.1402
     24 C         -20.3226   -8.3681   -6.4782 C.ar    1  UNL1        0.0415
     25 C         -20.3004   -9.0013   -7.7311 C.ar    1  UNL1        0.0581
     26 C         -19.2507   -9.8772   -8.0423 C.ar    1  UNL1        0.0239
     27 C         -18.2181  -10.0959   -7.1277 C.ar    1  UNL1        0.0874
     28 N         -17.1991  -10.9379   -7.4483 N.ar    1  UNL1       -0.2116
     29 C         -14.8319  -12.3775   -8.3003 C.3     1  UNL1        0.2542
     30 O         -15.1334  -12.0528   -6.9485 O.3     1  UNL1       -0.4561
     31 O         -19.2887   -7.9392   -4.2897 O.3     1  UNL1       -0.4714
     32 C         -20.1613   -8.2704   -3.2142 C.3     1  UNL1        0.2525
     33 C         -24.1792  -13.4317  -14.7756 C.3     1  UNL1        0.0867
     34 C         -24.6785  -13.3480  -16.2313 C.3     1  UNL1        0.0244
     35 C         -23.1974  -14.6177  -14.6589 C.3     1  UNL1        0.0244
     36 C         -25.3701  -13.6752  -13.8308 C.3     1  UNL1        0.0244
@<TRIPOS>BOND
     1    29    30    1
     2    30    19    1
     3    19    20   ar
     4    20    21   ar
     5    21    22   ar
     6    22    23   ar
     7    23    31    1
     8    31    32    1
     9    23    24   ar
    10    24    25   ar
    11    25     1    1
    12     1     2    2
    13     1     3   am
    14     3     4    1
    15     4     5    1
    16     5     6    1
    17     6     7    1
    18     7     8    1
    19     6     9    1
    20     9    10    1
    21    10    11   ar
    22    11    12   ar
    23    12    33    1
    24    33    34    1
    25    33    35    1
    26    33    36    1
    27    12    13   ar
    28    13    14   ar
    29    14    15    1
    30    15    16    2
    31    15    17   am
    32    25    26   ar
    33    26    27   ar
    34    27    28   ar
    35    28    19   ar
    36    27    22   ar
    37     8     3    1
    38    14    10   ar
    39    17     6    1
    40    17    18    1
