@<TRIPOS>MOLECULE
*****
 48 53 0 0 0
SMALL
GASTEIGER

@<TRIPOS>ATOM
      1 C         -64.3390  -52.1164  -24.6594 C.ar    1  UNL1        0.0702
      2 C         -63.6861  -52.4423  -23.4651 C.ar    1  UNL1        0.0191
      3 C         -64.2294  -53.3957  -22.6027 C.ar    1  UNL1        0.0356
      4 C         -65.4451  -54.0186  -22.9331 C.ar    1  UNL1        0.1318
      5 N         -66.0777  -53.6611  -24.0861 N.ar    1  UNL1       -0.2279
      6 C         -65.5654  -52.7382  -24.9424 C.ar    1  UNL1        0.1149
      7 N         -66.0417  -55.0084  -22.0670 N.pl3   1  UNL1       -0.2932
      8 C         -65.8543  -56.4378  -22.3599 C.3     1  UNL1        0.0923
      9 C         -67.0725  -57.2344  -21.8873 C.3     1  UNL1        0.0252
     10 C         -67.3348  -57.0608  -20.3691 C.3     1  UNL1        0.0472
     11 C         -66.7751  -55.7287  -19.8097 C.3     1  UNL1        0.0252
     12 C         -66.7716  -54.6044  -20.8526 C.3     1  UNL1        0.0923
     13 C         -68.8385  -57.2016  -20.0535 C.3     1  UNL1        0.2054
     14 O         -69.3961  -55.9560  -19.6296 O.3     1  UNL1       -0.4752
     15 C         -70.0035  -55.7013  -18.3863 C.ar    1  UNL1        0.1449
     16 C         -69.4092  -56.1056  -17.1730 C.ar    1  UNL1        0.0435
     17 C         -70.0215  -55.8264  -15.9409 C.ar    1  UNL1        0.0785
     18 C         -71.2405  -55.1332  -15.9276 C.ar    1  UNL1        0.0068
     19 C         -71.8365  -54.7257  -17.1208 C.ar    1  UNL1        0.0097
     20 C         -71.2296  -54.9999  -18.3572 C.ar    1  UNL1        0.1093
     21 C         -69.3881  -56.2596  -14.6747 C.2     1  UNL1        0.3381
     22 O         -69.8577  -57.2336  -14.0260 O.2     1  UNL1       -0.2451
     23 O         -68.2654  -55.5953  -14.1871 O.3     1  UNL1       -0.4771
     24 H         -67.8245  -55.8841  -13.3221 H       1  UNL1        0.2954
     25 C         -71.8987  -54.5751  -19.6122 C.2     1  UNL1        0.3410
     26 O         -73.1519  -54.4543  -19.6511 O.2     1  UNL1       -0.2450
     27 O         -71.1657  -54.2977  -20.7650 O.3     1  UNL1       -0.4770
     28 H         -70.1673  -54.4553  -20.8202 H       1  UNL1        0.2954
     29 C         -63.9672  -49.7019  -25.3501 C.2     1  UNL1        0.2839
     30 O         -64.8518  -49.2731  -24.5613 O.2     1  UNL1       -0.2665
     31 N         -63.7790  -51.1153  -25.5267 N.am    1  UNL1       -0.2766
     32 H         -63.2756  -51.4396  -26.3834 H       1  UNL1        0.1553
     33 C         -64.1255  -49.1537  -28.5042 C.3     1  UNL1        0.0345
     34 C         -63.2152  -48.5083  -27.5031 C.ar    1  UNL1        0.0202
     35 C         -63.1487  -48.7512  -26.1265 C.ar    1  UNL1        0.1946
     36 O         -62.2215  -47.9871  -25.5769 O.2     1  UNL1       -0.4492
     37 C         -61.6827  -47.2615  -26.5262 C.ar    1  UNL1        0.1452
     38 C         -60.6686  -46.3193  -26.3955 C.ar    1  UNL1        0.0375
     39 C         -60.2379  -45.6482  -27.5529 C.ar    1  UNL1        0.0031
     40 C         -60.8237  -45.9270  -28.8174 C.ar    1  UNL1        0.0002
     41 C         -61.8536  -46.8943  -28.9068 C.ar    1  UNL1        0.0028
     42 C         -62.2562  -47.5415  -27.7375 C.ar    1  UNL1        0.0337
     43 C         -60.3606  -45.2115  -30.0333 C.ar    1  UNL1        0.0000
     44 C         -61.2473  -44.4019  -30.7688 C.ar    1  UNL1        0.0000
     45 C         -60.8084  -43.7293  -31.9134 C.ar    1  UNL1        0.0000
     46 C         -59.4833  -43.8552  -32.3357 C.ar    1  UNL1        0.0000
     47 C         -58.5938  -44.6547  -31.6147 C.ar    1  UNL1        0.0000
     48 C         -59.0273  -45.3305  -30.4697 C.ar    1  UNL1        0.0000
@<TRIPOS>BOND
     1    33    34    1
     2    34    35   ar
     3    35    29    1
     4    29    30    2
     5    29    31   am
     6    31     1    1
     7     1     2   ar
     8     2     3   ar
     9     3     4   ar
    10     4     7    1
    11     7     8    1
    12     8     9    1
    13     9    10    1
    14    10    13    1
    15    13    14    1
    16    14    15    1
    17    15    16   ar
    18    16    17   ar
    19    17    21    1
    20    21    22    2
    21    21    23    1
    22    17    18   ar
    23    18    19   ar
    24    19    20   ar
    25    20    25    1
    26    25    26    2
    27    25    27    1
    28    10    11    1
    29    11    12    1
    30     4     5   ar
    31     5     6   ar
    32    35    36   ar
    33    36    37   ar
    34    37    38   ar
    35    38    39   ar
    36    39    40   ar
    37    40    43    1
    38    43    44   ar
    39    44    45   ar
    40    45    46   ar
    41    46    47   ar
    42    47    48   ar
    43    40    41   ar
    44    41    42   ar
    45    42    34   ar
    46     6     1   ar
    47    42    37   ar
    48    12     7    1
    49    48    43   ar
    50    20    15   ar
    51    31    32    1
    52    23    24    1
    53    27    28    1
@<TRIPOS>MOLECULE
*****
 48 53 0 0 0
SMALL
GASTEIGER

@<TRIPOS>ATOM
      1 C         -64.3380  -52.0490  -24.6737 C.ar    1  UNL1        0.0702
      2 C         -63.6675  -52.3888  -23.4931 C.ar    1  UNL1        0.0191
      3 C         -64.2073  -53.3387  -22.6248 C.ar    1  UNL1        0.0356
      4 C         -65.4371  -53.9440  -22.9350 C.ar    1  UNL1        0.1318
      5 N         -66.0862  -53.5730  -24.0745 N.ar    1  UNL1       -0.2279
      6 C         -65.5777  -52.6532  -24.9364 C.ar    1  UNL1        0.1149
      7 N         -66.0307  -54.9295  -22.0621 N.pl3   1  UNL1       -0.2932
      8 C         -65.7030  -56.3521  -22.2433 C.3     1  UNL1        0.0923
      9 C         -66.8922  -57.2216  -21.8289 C.3     1  UNL1        0.0252
     10 C         -67.3079  -56.9837  -20.3542 C.3     1  UNL1        0.0472
     11 C         -66.9112  -55.5785  -19.8359 C.3     1  UNL1        0.0252
     12 C         -66.9006  -54.5201  -20.9456 C.3     1  UNL1        0.0923
     13 C         -68.8183  -57.2343  -20.1638 C.3     1  UNL1        0.2054
     14 O         -69.2097  -57.0234  -18.8057 O.3     1  UNL1       -0.4752
     15 C         -70.3474  -56.3181  -18.3721 C.ar    1  UNL1        0.1449
     16 C         -71.4703  -56.1359  -19.2055 C.ar    1  UNL1        0.0435
     17 C         -72.6038  -55.4448  -18.7487 C.ar    1  UNL1        0.0785
     18 C         -72.6099  -54.9343  -17.4427 C.ar    1  UNL1        0.0068
     19 C         -71.5065  -55.1106  -16.6082 C.ar    1  UNL1        0.0097
     20 C         -70.3695  -55.8020  -17.0571 C.ar    1  UNL1        0.1093
     21 C         -73.7746  -55.2579  -19.6355 C.2     1  UNL1        0.3381
     22 O         -74.5420  -54.2694  -19.4807 O.2     1  UNL1       -0.2451
     23 O         -74.0402  -56.1729  -20.6513 O.3     1  UNL1       -0.4771
     24 H         -74.8383  -56.0538  -21.2635 H       1  UNL1        0.2954
     25 C         -69.2005  -55.9537  -16.1551 C.2     1  UNL1        0.3410
     26 O         -69.3405  -56.4874  -15.0228 O.2     1  UNL1       -0.2450
     27 O         -67.9318  -55.5189  -16.5354 O.3     1  UNL1       -0.4770
     28 H         -67.7716  -55.0097  -17.3955 H       1  UNL1        0.2954
     29 C         -63.9712  -49.6376  -25.3778 C.2     1  UNL1        0.2839
     30 O         -64.8553  -49.2060  -24.5899 O.2     1  UNL1       -0.2665
     31 N         -63.7809  -51.0516  -25.5471 N.am    1  UNL1       -0.2766
     32 H         -63.2782  -51.3797  -26.4029 H       1  UNL1        0.1553
     33 C         -64.1048  -49.1378  -28.5409 C.3     1  UNL1        0.0345
     34 C         -63.2111  -48.4679  -27.5410 C.ar    1  UNL1        0.0202
     35 C         -63.1553  -48.6897  -26.1604 C.ar    1  UNL1        0.1946
     36 O         -62.2417  -47.9076  -25.6135 O.2     1  UNL1       -0.4492
     37 C         -61.7015  -47.1904  -26.5682 C.ar    1  UNL1        0.1452
     38 C         -60.6987  -46.2355  -26.4420 C.ar    1  UNL1        0.0375
     39 C         -60.2640  -45.5770  -27.6051 C.ar    1  UNL1        0.0031
     40 C         -60.8346  -45.8807  -28.8708 C.ar    1  UNL1        0.0002
     41 C         -61.8533  -46.8602  -28.9555 C.ar    1  UNL1        0.0028
     42 C         -62.2603  -47.4943  -27.7807 C.ar    1  UNL1        0.0337
     43 C         -60.3674  -45.1782  -30.0927 C.ar    1  UNL1        0.0000
     44 C         -59.0318  -45.2997  -30.5217 C.ar    1  UNL1        0.0000
     45 C         -58.5945  -44.6371  -31.6727 C.ar    1  UNL1        0.0000
     46 C         -59.4824  -43.8487  -32.4077 C.ar    1  UNL1        0.0000
     47 C         -60.8098  -43.7206  -31.9931 C.ar    1  UNL1        0.0000
     48 C         -61.2525  -44.3802  -30.8423 C.ar    1  UNL1        0.0000
@<TRIPOS>BOND
     1    33    34    1
     2    34    35   ar
     3    35    29    1
     4    29    30    2
     5    29    31   am
     6    31     1    1
     7     1     2   ar
     8     2     3   ar
     9     3     4   ar
    10     4     7    1
    11     7     8    1
    12     8     9    1
    13     9    10    1
    14    10    13    1
    15    13    14    1
    16    14    15    1
    17    15    16   ar
    18    16    17   ar
    19    17    21    1
    20    21    22    2
    21    21    23    1
    22    17    18   ar
    23    18    19   ar
    24    19    20   ar
    25    20    25    1
    26    25    26    2
    27    25    27    1
    28    10    11    1
    29    11    12    1
    30     4     5   ar
    31     5     6   ar
    32    35    36   ar
    33    36    37   ar
    34    37    38   ar
    35    38    39   ar
    36    39    40   ar
    37    40    43    1
    38    43    44   ar
    39    44    45   ar
    40    45    46   ar
    41    46    47   ar
    42    47    48   ar
    43    40    41   ar
    44    41    42   ar
    45    42    34   ar
    46     6     1   ar
    47    42    37   ar
    48    12     7    1
    49    48    43   ar
    50    20    15   ar
    51    31    32    1
    52    23    24    1
    53    27    28    1
@<TRIPOS>MOLECULE
*****
 48 53 0 0 0
SMALL
GASTEIGER

@<TRIPOS>ATOM
      1 C         -63.9714  -51.0295  -24.1273 C.ar    1  UNL1        0.0702
      2 C         -62.8430  -51.4907  -23.4398 C.ar    1  UNL1        0.0191
      3 C         -61.8042  -50.6143  -23.1227 C.ar    1  UNL1        0.0356
      4 C         -61.8903  -49.2660  -23.5099 C.ar    1  UNL1        0.1318
      5 N         -62.9847  -48.8482  -24.2064 N.ar    1  UNL1       -0.2279
      6 C         -64.0096  -49.6830  -24.5228 C.ar    1  UNL1        0.1149
      7 N         -60.8362  -48.3277  -23.2032 N.pl3   1  UNL1       -0.2932
      8 C         -60.2795  -48.2796  -21.8424 C.3     1  UNL1        0.0923
      9 C         -59.8133  -46.8590  -21.5159 C.3     1  UNL1        0.0252
     10 C         -58.7451  -46.3470  -22.5162 C.3     1  UNL1        0.0472
     11 C         -58.8326  -47.0415  -23.8985 C.3     1  UNL1        0.0252
     12 C         -60.2608  -47.4713  -24.2551 C.3     1  UNL1        0.0923
     13 C         -58.8246  -44.8134  -22.6649 C.3     1  UNL1        0.2054
     14 O         -59.7930  -44.4392  -23.6469 O.3     1  UNL1       -0.4752
     15 C         -60.8062  -43.4763  -23.4854 C.ar    1  UNL1        0.1449
     16 C         -60.7998  -42.5652  -22.4090 C.ar    1  UNL1        0.0435
     17 C         -61.8099  -41.5994  -22.2747 C.ar    1  UNL1        0.0785
     18 C         -62.8340  -41.5473  -23.2312 C.ar    1  UNL1        0.0068
     19 C         -62.8496  -42.4412  -24.3016 C.ar    1  UNL1        0.0097
     20 C         -61.8420  -43.4091  -24.4438 C.ar    1  UNL1        0.1093
     21 C         -61.7927  -40.6511  -21.1378 C.2     1  UNL1        0.3381
     22 O         -62.7284  -39.8199  -20.9850 O.2     1  UNL1       -0.2451
     23 O         -60.7417  -40.6681  -20.2242 O.3     1  UNL1       -0.4771
     24 H         -60.7207  -40.0237  -19.4429 H       1  UNL1        0.2954
     25 C         -61.8972  -44.3628  -25.5799 C.2     1  UNL1        0.3410
     26 O         -62.9962  -44.8725  -25.9248 O.2     1  UNL1       -0.2450
     27 O         -60.7486  -44.7110  -26.2889 O.3     1  UNL1       -0.4770
     28 H         -59.8269  -44.3999  -26.0087 H       1  UNL1        0.2954
     29 C         -65.3551  -53.1134  -23.6935 C.2     1  UNL1        0.2839
     30 O         -64.5665  -53.5290  -22.8024 O.2     1  UNL1       -0.2665
     31 N         -65.0231  -51.9493  -24.4675 N.am    1  UNL1       -0.2766
     32 H         -65.5191  -51.8073  -25.3767 H       1  UNL1        0.1553
     33 C         -68.0285  -53.1037  -21.9255 C.3     1  UNL1        0.0345
     34 C         -67.7739  -53.8445  -23.2036 C.ar    1  UNL1        0.0202
     35 C         -66.6045  -53.8467  -23.9723 C.ar    1  UNL1        0.1946
     36 O         -66.7616  -54.6197  -25.0322 O.2     1  UNL1       -0.4492
     37 C         -67.9725  -55.1195  -24.9903 C.ar    1  UNL1        0.1452
     38 C         -68.5609  -55.9835  -25.9071 C.ar    1  UNL1        0.0375
     39 C         -69.8824  -56.3987  -25.6690 C.ar    1  UNL1        0.0031
     40 C         -70.5929  -55.9469  -24.5240 C.ar    1  UNL1        0.0002
     41 C         -69.9566  -55.0678  -23.6149 C.ar    1  UNL1        0.0028
     42 C         -68.6439  -54.6763  -23.8824 C.ar    1  UNL1        0.0337
     43 C         -71.9888  -56.3921  -24.2829 C.ar    1  UNL1        0.0000
     44 C         -72.4586  -56.5960  -22.9713 C.ar    1  UNL1        0.0000
     45 C         -73.7736  -57.0154  -22.7472 C.ar    1  UNL1        0.0000
     46 C         -74.6330  -57.2343  -23.8259 C.ar    1  UNL1        0.0000
     47 C         -74.1793  -57.0351  -25.1315 C.ar    1  UNL1        0.0000
     48 C         -72.8650  -56.6166  -25.3618 C.ar    1  UNL1        0.0000
@<TRIPOS>BOND
     1    33    34    1
     2    34    35   ar
     3    35    29    1
     4    29    30    2
     5    29    31   am
     6    31     1    1
     7     1     2   ar
     8     2     3   ar
     9     3     4   ar
    10     4     7    1
    11     7     8    1
    12     8     9    1
    13     9    10    1
    14    10    13    1
    15    13    14    1
    16    14    15    1
    17    15    16   ar
    18    16    17   ar
    19    17    21    1
    20    21    22    2
    21    21    23    1
    22    17    18   ar
    23    18    19   ar
    24    19    20   ar
    25    20    25    1
    26    25    26    2
    27    25    27    1
    28    10    11    1
    29    11    12    1
    30     4     5   ar
    31     5     6   ar
    32    35    36   ar
    33    36    37   ar
    34    37    38   ar
    35    38    39   ar
    36    39    40   ar
    37    40    43    1
    38    43    44   ar
    39    44    45   ar
    40    45    46   ar
    41    46    47   ar
    42    47    48   ar
    43    40    41   ar
    44    41    42   ar
    45    42    34   ar
    46     6     1   ar
    47    42    37   ar
    48    12     7    1
    49    48    43   ar
    50    20    15   ar
    51    31    32    1
    52    23    24    1
    53    27    28    1
@<TRIPOS>MOLECULE
*****
 48 53 0 0 0
SMALL
GASTEIGER

@<TRIPOS>ATOM
      1 C         -63.9418  -50.9759  -24.0993 C.ar    1  UNL1        0.0702
      2 C         -62.8299  -51.4239  -23.3769 C.ar    1  UNL1        0.0191
      3 C         -61.8002  -50.5408  -23.0493 C.ar    1  UNL1        0.0356
      4 C         -61.8783  -49.1992  -23.4609 C.ar    1  UNL1        0.1318
      5 N         -62.9559  -48.7947  -24.1906 N.ar    1  UNL1       -0.2279
      6 C         -63.9719  -49.6362  -24.5179 C.ar    1  UNL1        0.1149
      7 N         -60.8331  -48.2543  -23.1444 N.pl3   1  UNL1       -0.2932
      8 C         -60.3671  -48.1248  -21.7551 C.3     1  UNL1        0.0923
      9 C         -59.9025  -46.6911  -21.4889 C.3     1  UNL1        0.0252
     10 C         -58.7628  -46.2559  -22.4457 C.3     1  UNL1        0.0472
     11 C         -58.7687  -47.0369  -23.7839 C.3     1  UNL1        0.0252
     12 C         -60.1765  -47.4736  -24.2075 C.3     1  UNL1        0.0923
     13 C         -58.8094  -44.7343  -22.6965 C.3     1  UNL1        0.2054
     14 O         -59.9525  -44.1432  -22.0751 O.3     1  UNL1       -0.4752
     15 C         -60.9675  -43.4191  -22.7272 C.ar    1  UNL1        0.1449
     16 C         -61.2273  -43.5806  -24.1039 C.ar    1  UNL1        0.0435
     17 C         -62.2566  -42.8625  -24.7334 C.ar    1  UNL1        0.0785
     18 C         -63.0327  -41.9763  -23.9727 C.ar    1  UNL1        0.0068
     19 C         -62.7871  -41.8103  -22.6099 C.ar    1  UNL1        0.0097
     20 C         -61.7605  -42.5260  -21.9726 C.ar    1  UNL1        0.1093
     21 C         -62.5162  -43.0393  -26.1803 C.2     1  UNL1        0.3381
     22 O         -63.1649  -44.0376  -26.5955 O.2     1  UNL1       -0.2451
     23 O         -62.0466  -42.1032  -27.0982 O.3     1  UNL1       -0.4771
     24 H         -62.2193  -42.2148  -28.0900 H       1  UNL1        0.2954
     25 C         -61.5065  -42.3113  -20.5260 C.2     1  UNL1        0.3410
     26 O         -62.4408  -41.9374  -19.7685 O.2     1  UNL1       -0.2450
     27 O         -60.2434  -42.5200  -19.9743 O.3     1  UNL1       -0.4770
     28 H         -59.4359  -42.7402  -20.5437 H       1  UNL1        0.2954
     29 C         -65.3034  -53.0789  -23.6887 C.2     1  UNL1        0.2839
     30 O         -64.5101  -53.4963  -22.8025 O.2     1  UNL1       -0.2665
     31 N         -64.9840  -51.9028  -24.4496 N.am    1  UNL1       -0.2766
     32 H         -65.4817  -51.7557  -25.3570 H       1  UNL1        0.1553
     33 C         -68.0091  -53.0426  -21.9709 C.3     1  UNL1        0.0345
     34 C         -67.7285  -53.8084  -23.2287 C.ar    1  UNL1        0.0202
     35 C         -66.5451  -53.8221  -23.9754 C.ar    1  UNL1        0.1946
     36 O         -66.6802  -54.6171  -25.0220 O.2     1  UNL1       -0.4492
     37 C         -67.8900  -55.1203  -24.9923 C.ar    1  UNL1        0.1452
     38 C         -68.4587  -56.0048  -25.9019 C.ar    1  UNL1        0.0375
     39 C         -69.7831  -56.4197  -25.6797 C.ar    1  UNL1        0.0031
     40 C         -70.5160  -55.9471  -24.5576 C.ar    1  UNL1        0.0002
     41 C         -69.8994  -55.0475  -23.6550 C.ar    1  UNL1        0.0028
     42 C         -68.5832  -54.6569  -23.9063 C.ar    1  UNL1        0.0337
     43 C         -71.9148  -56.3922  -24.3332 C.ar    1  UNL1        0.0000
     44 C         -72.3977  -56.6043  -23.0277 C.ar    1  UNL1        0.0000
     45 C         -73.7153  -57.0235  -22.8193 C.ar    1  UNL1        0.0000
     46 C         -74.5643  -57.2342  -23.9079 C.ar    1  UNL1        0.0000
     47 C         -74.0975  -57.0268  -25.2076 C.ar    1  UNL1        0.0000
     48 C         -72.7806  -56.6085  -25.4221 C.ar    1  UNL1        0.0000
@<TRIPOS>BOND
     1    33    34    1
     2    34    35   ar
     3    35    29    1
     4    29    30    2
     5    29    31   am
     6    31     1    1
     7     1     2   ar
     8     2     3   ar
     9     3     4   ar
    10     4     7    1
    11     7     8    1
    12     8     9    1
    13     9    10    1
    14    10    13    1
    15    13    14    1
    16    14    15    1
    17    15    16   ar
    18    16    17   ar
    19    17    21    1
    20    21    22    2
    21    21    23    1
    22    17    18   ar
    23    18    19   ar
    24    19    20   ar
    25    20    25    1
    26    25    26    2
    27    25    27    1
    28    10    11    1
    29    11    12    1
    30     4     5   ar
    31     5     6   ar
    32    35    36   ar
    33    36    37   ar
    34    37    38   ar
    35    38    39   ar
    36    39    40   ar
    37    40    43    1
    38    43    44   ar
    39    44    45   ar
    40    45    46   ar
    41    46    47   ar
    42    47    48   ar
    43    40    41   ar
    44    41    42   ar
    45    42    34   ar
    46     6     1   ar
    47    42    37   ar
    48    12     7    1
    49    48    43   ar
    50    20    15   ar
    51    31    32    1
    52    23    24    1
    53    27    28    1
@<TRIPOS>MOLECULE
*****
 48 53 0 0 0
SMALL
GASTEIGER

@<TRIPOS>ATOM
      1 C         -64.3009  -51.9884  -24.6552 C.ar    1  UNL1        0.0702
      2 C         -65.3398  -52.8049  -25.1166 C.ar    1  UNL1        0.0191
      3 C         -65.9159  -53.7561  -24.2735 C.ar    1  UNL1        0.0356
      4 C         -65.4375  -53.9005  -22.9598 C.ar    1  UNL1        0.1318
      5 N         -64.4037  -53.1158  -22.5441 N.ar    1  UNL1       -0.2279
      6 C         -63.8302  -52.1806  -23.3465 C.ar    1  UNL1        0.1149
      7 N         -66.0047  -54.8744  -22.0567 N.pl3   1  UNL1       -0.2932
      8 C         -65.6024  -56.2853  -22.1637 C.3     1  UNL1        0.0923
      9 C         -66.7579  -57.1942  -21.7384 C.3     1  UNL1        0.0252
     10 C         -67.2240  -56.9113  -20.2869 C.3     1  UNL1        0.0472
     11 C         -66.9111  -55.4658  -19.8249 C.3     1  UNL1        0.0252
     12 C         -66.9232  -54.4594  -20.9821 C.3     1  UNL1        0.0923
     13 C         -68.7247  -57.2291  -20.1220 C.3     1  UNL1        0.2054
     14 O         -69.5301  -56.0855  -20.4146 O.3     1  UNL1       -0.4752
     15 C         -70.2307  -55.8509  -21.6120 C.ar    1  UNL1        0.1449
     16 C         -69.5730  -55.4323  -22.7872 C.ar    1  UNL1        0.0435
     17 C         -70.2867  -55.2207  -23.9776 C.ar    1  UNL1        0.0785
     18 C         -71.6727  -55.4336  -23.9878 C.ar    1  UNL1        0.0068
     19 C         -72.3338  -55.8503  -22.8327 C.ar    1  UNL1        0.0097
     20 C         -71.6269  -56.0655  -21.6385 C.ar    1  UNL1        0.1093
     21 C         -69.5840  -54.7781  -25.2033 C.2     1  UNL1        0.3381
     22 O         -68.6115  -55.4404  -25.6565 O.2     1  UNL1       -0.2451
     23 O         -69.9909  -53.6245  -25.8690 O.3     1  UNL1       -0.4771
     24 H         -69.5170  -53.3135  -26.7085 H       1  UNL1        0.2954
     25 C         -72.3602  -56.4858  -20.4184 C.2     1  UNL1        0.3410
     26 O         -73.4934  -57.0272  -20.5166 O.2     1  UNL1       -0.2450
     27 O         -71.8182  -56.2988  -19.1477 O.3     1  UNL1       -0.4770
     28 H         -70.9517  -55.7968  -18.9996 H       1  UNL1        0.2954
     29 C         -64.0191  -49.6275  -25.5450 C.2     1  UNL1        0.2839
     30 O         -65.0359  -49.2061  -24.9307 O.2     1  UNL1       -0.2665
     31 N         -63.7016  -51.0288  -25.5427 N.am    1  UNL1       -0.2766
     32 H         -63.0595  -51.3872  -26.2856 H       1  UNL1        0.1553
     33 C         -64.1242  -49.0554  -28.6970 C.3     1  UNL1        0.0345
     34 C         -63.2169  -48.4327  -27.6791 C.ar    1  UNL1        0.0202
     35 C         -63.1736  -48.6860  -26.3034 C.ar    1  UNL1        0.1946
     36 O         -62.2411  -47.9418  -25.7359 O.2     1  UNL1       -0.4492
     37 C         -61.6767  -47.2194  -26.6726 C.ar    1  UNL1        0.1452
     38 C         -60.6484  -46.2959  -26.5214 C.ar    1  UNL1        0.0375
     39 C         -60.1901  -45.6245  -27.6681 C.ar    1  UNL1        0.0031
     40 C         -60.7631  -45.8846  -28.9424 C.ar    1  UNL1        0.0002
     41 C         -61.8083  -46.8331  -29.0526 C.ar    1  UNL1        0.0028
     42 C         -62.2382  -47.4811  -27.8936 C.ar    1  UNL1        0.0337
     43 C         -60.2709  -45.1690  -30.1468 C.ar    1  UNL1        0.0000
     44 C         -58.9194  -45.2601  -30.5310 C.ar    1  UNL1        0.0000
     45 C         -58.4586  -44.5852  -31.6657 C.ar    1  UNL1        0.0000
     46 C         -59.3386  -43.8147  -32.4286 C.ar    1  UNL1        0.0000
     47 C         -60.6816  -43.7168  -32.0584 C.ar    1  UNL1        0.0000
     48 C         -61.1478  -44.3888  -30.9242 C.ar    1  UNL1        0.0000
@<TRIPOS>BOND
     1    33    34    1
     2    34    35   ar
     3    35    29    1
     4    29    30    2
     5    29    31   am
     6    31     1    1
     7     1     2   ar
     8     2     3   ar
     9     3     4   ar
    10     4     7    1
    11     7     8    1
    12     8     9    1
    13     9    10    1
    14    10    13    1
    15    13    14    1
    16    14    15    1
    17    15    16   ar
    18    16    17   ar
    19    17    21    1
    20    21    22    2
    21    21    23    1
    22    17    18   ar
    23    18    19   ar
    24    19    20   ar
    25    20    25    1
    26    25    26    2
    27    25    27    1
    28    10    11    1
    29    11    12    1
    30     4     5   ar
    31     5     6   ar
    32    35    36   ar
    33    36    37   ar
    34    37    38   ar
    35    38    39   ar
    36    39    40   ar
    37    40    43    1
    38    43    44   ar
    39    44    45   ar
    40    45    46   ar
    41    46    47   ar
    42    47    48   ar
    43    40    41   ar
    44    41    42   ar
    45    42    34   ar
    46     6     1   ar
    47    42    37   ar
    48    12     7    1
    49    48    43   ar
    50    20    15   ar
    51    31    32    1
    52    23    24    1
    53    27    28    1
@<TRIPOS>MOLECULE
*****
 48 53 0 0 0
SMALL
GASTEIGER

@<TRIPOS>ATOM
      1 C         -62.4688  -40.8997  -20.2462 C.ar    1  UNL1        0.0702
      2 C         -61.1198  -41.0864  -19.9236 C.ar    1  UNL1        0.0191
      3 C         -60.4230  -42.1893  -20.4193 C.ar    1  UNL1        0.0356
      4 C         -61.0873  -43.1214  -21.2348 C.ar    1  UNL1        0.1318
      5 N         -62.4092  -42.9345  -21.5086 N.ar    1  UNL1       -0.2279
      6 C         -63.1066  -41.8662  -21.0399 C.ar    1  UNL1        0.1149
      7 N         -60.4030  -44.2769  -21.7659 N.pl3   1  UNL1       -0.2932
      8 C         -59.0525  -44.1263  -22.3294 C.3     1  UNL1        0.0923
      9 C         -58.8332  -45.1481  -23.4473 C.3     1  UNL1        0.0252
     10 C         -59.0138  -46.6067  -22.9535 C.3     1  UNL1        0.0472
     11 C         -59.9387  -46.7130  -21.7150 C.3     1  UNL1        0.0252
     12 C         -61.0105  -45.6166  -21.6815 C.3     1  UNL1        0.0923
     13 C         -59.5173  -47.5132  -24.0959 C.3     1  UNL1        0.2054
     14 O         -60.9430  -47.6105  -24.0879 O.3     1  UNL1       -0.4752
     15 C         -61.6915  -48.8019  -24.0849 C.ar    1  UNL1        0.1449
     16 C         -61.2711  -49.9409  -23.3675 C.ar    1  UNL1        0.0435
     17 C         -62.0407  -51.1152  -23.3617 C.ar    1  UNL1        0.0785
     18 C         -63.2440  -51.1445  -24.0811 C.ar    1  UNL1        0.0068
     19 C         -63.6716  -50.0234  -24.7921 C.ar    1  UNL1        0.0097
     20 C         -62.9082  -48.8447  -24.8017 C.ar    1  UNL1        0.1093
     21 C         -61.5858  -52.3048  -22.6068 C.2     1  UNL1        0.3381
     22 O         -60.3698  -52.4418  -22.3025 O.2     1  UNL1       -0.2451
     23 O         -62.4975  -53.2856  -22.2243 O.3     1  UNL1       -0.4771
     24 H         -62.1964  -54.1030  -21.7073 H       1  UNL1        0.2954
     25 C         -63.3761  -47.6750  -25.5866 C.2     1  UNL1        0.3410
     26 O         -64.0925  -47.8449  -26.6086 O.2     1  UNL1       -0.2450
     27 O         -63.0426  -46.3736  -25.2145 O.3     1  UNL1       -0.4770
     28 H         -62.4043  -46.1770  -24.4538 H       1  UNL1        0.2954
     29 C         -63.1442  -38.4526  -20.2790 C.2     1  UNL1        0.2839
     30 O         -62.2765  -38.1587  -21.1447 O.2     1  UNL1       -0.2665
     31 N         -63.1798  -39.7710  -19.7090 N.am    1  UNL1       -0.2766
     32 H         -63.6843  -39.8998  -18.8026 H       1  UNL1        0.1553
     33 C         -66.3339  -38.5230  -20.5860 C.3     1  UNL1        0.0345
     34 C         -65.4946  -37.4565  -19.9494 C.ar    1  UNL1        0.0202
     35 C         -64.1016  -37.4292  -19.8182 C.ar    1  UNL1        0.1946
     36 O         -63.7275  -36.3239  -19.1983 O.2     1  UNL1       -0.4492
     37 C         -64.8060  -35.6326  -18.9214 C.ar    1  UNL1        0.1452
     38 C         -64.8779  -34.4051  -18.2724 C.ar    1  UNL1        0.0375
     39 C         -66.1479  -33.8363  -18.0746 C.ar    1  UNL1        0.0031
     40 C         -67.3214  -34.4990  -18.5260 C.ar    1  UNL1        0.0002
     41 C         -67.2038  -35.7475  -19.1829 C.ar    1  UNL1        0.0028
     42 C         -65.9273  -36.2827  -19.3625 C.ar    1  UNL1        0.0337
     43 C         -68.6578  -33.8884  -18.3112 C.ar    1  UNL1        0.0000
     44 C         -69.8000  -34.4294  -18.9319 C.ar    1  UNL1        0.0000
     45 C         -71.0572  -33.8524  -18.7280 C.ar    1  UNL1        0.0000
     46 C         -71.1893  -32.7329  -17.9038 C.ar    1  UNL1        0.0000
     47 C         -70.0643  -32.1872  -17.2819 C.ar    1  UNL1        0.0000
     48 C         -68.8043  -32.7594  -17.4830 C.ar    1  UNL1        0.0000
@<TRIPOS>BOND
     1    33    34    1
     2    34    35   ar
     3    35    29    1
     4    29    30    2
     5    29    31   am
     6    31     1    1
     7     1     2   ar
     8     2     3   ar
     9     3     4   ar
    10     4     7    1
    11     7     8    1
    12     8     9    1
    13     9    10    1
    14    10    13    1
    15    13    14    1
    16    14    15    1
    17    15    16   ar
    18    16    17   ar
    19    17    21    1
    20    21    22    2
    21    21    23    1
    22    17    18   ar
    23    18    19   ar
    24    19    20   ar
    25    20    25    1
    26    25    26    2
    27    25    27    1
    28    10    11    1
    29    11    12    1
    30     4     5   ar
    31     5     6   ar
    32    35    36   ar
    33    36    37   ar
    34    37    38   ar
    35    38    39   ar
    36    39    40   ar
    37    40    43    1
    38    43    44   ar
    39    44    45   ar
    40    45    46   ar
    41    46    47   ar
    42    47    48   ar
    43    40    41   ar
    44    41    42   ar
    45    42    34   ar
    46     6     1   ar
    47    42    37   ar
    48    12     7    1
    49    48    43   ar
    50    20    15   ar
    51    31    32    1
    52    23    24    1
    53    27    28    1
@<TRIPOS>MOLECULE
*****
 48 53 0 0 0
SMALL
GASTEIGER

@<TRIPOS>ATOM
      1 C         -62.4283  -40.8464  -20.1418 C.ar    1  UNL1        0.0702
      2 C         -62.8654  -41.4582  -21.3222 C.ar    1  UNL1        0.0191
      3 C         -62.1670  -42.5431  -21.8538 C.ar    1  UNL1        0.0356
      4 C         -61.0117  -43.0111  -21.2045 C.ar    1  UNL1        0.1318
      5 N         -60.5882  -42.3785  -20.0741 N.ar    1  UNL1       -0.2279
      6 C         -61.2545  -41.3228  -19.5366 C.ar    1  UNL1        0.1149
      7 N         -60.2593  -44.1293  -21.7232 N.pl3   1  UNL1       -0.2932
      8 C         -58.8770  -43.9243  -22.1830 C.3     1  UNL1        0.0923
      9 C         -58.5505  -44.9002  -23.3157 C.3     1  UNL1        0.0252
     10 C         -58.7246  -46.3794  -22.8849 C.3     1  UNL1        0.0472
     11 C         -59.7316  -46.5529  -21.7203 C.3     1  UNL1        0.0252
     12 C         -60.8334  -45.4862  -21.7273 C.3     1  UNL1        0.0923
     13 C         -59.1202  -47.2578  -24.0901 C.3     1  UNL1        0.2054
     14 O         -60.0620  -46.5878  -24.9305 O.3     1  UNL1       -0.4752
     15 C         -61.1343  -47.1884  -25.6153 C.ar    1  UNL1        0.1449
     16 C         -62.0763  -48.0019  -24.9522 C.ar    1  UNL1        0.0435
     17 C         -63.1503  -48.5780  -25.6492 C.ar    1  UNL1        0.0785
     18 C         -63.2800  -48.3331  -27.0238 C.ar    1  UNL1        0.0068
     19 C         -62.3563  -47.5281  -27.6900 C.ar    1  UNL1        0.0097
     20 C         -61.2802  -46.9470  -26.9997 C.ar    1  UNL1        0.1093
     21 C         -64.1301  -49.4327  -24.9411 C.2     1  UNL1        0.3381
     22 O         -63.7815  -50.5496  -24.4711 O.2     1  UNL1       -0.2451
     23 O         -65.4483  -49.0109  -24.7863 O.3     1  UNL1       -0.4771
     24 H         -66.1262  -49.5881  -24.3031 H       1  UNL1        0.2954
     25 C         -60.2992  -46.1141  -27.7393 C.2     1  UNL1        0.3410
     26 O         -60.4467  -44.8645  -27.7969 O.2     1  UNL1       -0.2450
     27 O         -59.1998  -46.6862  -28.3776 O.3     1  UNL1       -0.4770
     28 H         -59.0720  -47.6886  -28.4367 H       1  UNL1        0.2954
     29 C         -63.1323  -38.4083  -20.2165 C.2     1  UNL1        0.2839
     30 O         -62.2796  -38.1229  -21.0998 O.2     1  UNL1       -0.2665
     31 N         -63.1450  -39.7148  -19.6186 N.am    1  UNL1       -0.2766
     32 H         -63.6359  -39.8302  -18.7030 H       1  UNL1        0.1553
     33 C         -66.3190  -38.4834  -20.5517 C.3     1  UNL1        0.0345
     34 C         -65.4869  -37.4156  -19.9077 C.ar    1  UNL1        0.0202
     35 C         -64.0952  -37.3863  -19.7641 C.ar    1  UNL1        0.1946
     36 O         -63.7283  -36.2805  -19.1410 O.2     1  UNL1       -0.4492
     37 C         -64.8102  -35.5908  -18.8737 C.ar    1  UNL1        0.1452
     38 C         -64.8897  -34.3633  -18.2254 C.ar    1  UNL1        0.0375
     39 C         -66.1622  -33.7964  -18.0389 C.ar    1  UNL1        0.0031
     40 C         -67.3307  -34.4608  -18.5006 C.ar    1  UNL1        0.0002
     41 C         -67.2054  -35.7092  -19.1565 C.ar    1  UNL1        0.0028
     42 C         -65.9266  -36.2425  -19.3247 C.ar    1  UNL1        0.0337
     43 C         -68.6698  -33.8523  -18.2977 C.ar    1  UNL1        0.0000
     44 C         -69.8086  -34.4067  -18.9128 C.ar    1  UNL1        0.0000
     45 C         -71.0685  -33.8315  -18.7201 C.ar    1  UNL1        0.0000
     46 C         -71.2066  -32.7004  -17.9127 C.ar    1  UNL1        0.0000
     47 C         -70.0849  -32.1413  -17.2967 C.ar    1  UNL1        0.0000
     48 C         -68.8224  -32.7117  -17.4865 C.ar    1  UNL1        0.0000
@<TRIPOS>BOND
     1    33    34    1
     2    34    35   ar
     3    35    29    1
     4    29    30    2
     5    29    31   am
     6    31     1    1
     7     1     2   ar
     8     2     3   ar
     9     3     4   ar
    10     4     7    1
    11     7     8    1
    12     8     9    1
    13     9    10    1
    14    10    13    1
    15    13    14    1
    16    14    15    1
    17    15    16   ar
    18    16    17   ar
    19    17    21    1
    20    21    22    2
    21    21    23    1
    22    17    18   ar
    23    18    19   ar
    24    19    20   ar
    25    20    25    1
    26    25    26    2
    27    25    27    1
    28    10    11    1
    29    11    12    1
    30     4     5   ar
    31     5     6   ar
    32    35    36   ar
    33    36    37   ar
    34    37    38   ar
    35    38    39   ar
    36    39    40   ar
    37    40    43    1
    38    43    44   ar
    39    44    45   ar
    40    45    46   ar
    41    46    47   ar
    42    47    48   ar
    43    40    41   ar
    44    41    42   ar
    45    42    34   ar
    46     6     1   ar
    47    42    37   ar
    48    12     7    1
    49    48    43   ar
    50    20    15   ar
    51    31    32    1
    52    23    24    1
    53    27    28    1
@<TRIPOS>MOLECULE
*****
 48 53 0 0 0
SMALL
GASTEIGER

@<TRIPOS>ATOM
      1 C         -62.4159  -41.0148  -20.2493 C.ar    1  UNL1        0.0702
      2 C         -61.0385  -41.1368  -20.0331 C.ar    1  UNL1        0.0191
      3 C         -60.3429  -42.2413  -20.5269 C.ar    1  UNL1        0.0356
      4 C         -61.0359  -43.2400  -21.2323 C.ar    1  UNL1        0.1318
      5 N         -62.3822  -43.1143  -21.4022 N.ar    1  UNL1       -0.2279
      6 C         -63.0793  -42.0458  -20.9333 C.ar    1  UNL1        0.1149
      7 N         -60.3537  -44.3995  -21.7575 N.pl3   1  UNL1       -0.2932
      8 C         -58.9648  -44.2750  -22.2262 C.3     1  UNL1        0.0923
      9 C         -58.7034  -45.2664  -23.3623 C.3     1  UNL1        0.0252
     10 C         -58.9610  -46.7336  -22.9322 C.3     1  UNL1        0.0472
     11 C         -59.9688  -46.8498  -21.7611 C.3     1  UNL1        0.0252
     12 C         -61.0062  -45.7204  -21.7594 C.3     1  UNL1        0.0923
     13 C         -59.4153  -47.5853  -24.1358 C.3     1  UNL1        0.2054
     14 O         -60.3758  -48.5670  -23.7407 O.3     1  UNL1       -0.4752
     15 C         -61.6036  -48.8268  -24.3768 C.ar    1  UNL1        0.1449
     16 C         -62.0434  -48.0669  -25.4804 C.ar    1  UNL1        0.0435
     17 C         -63.2634  -48.3528  -26.1136 C.ar    1  UNL1        0.0785
     18 C         -64.0472  -49.4126  -25.6351 C.ar    1  UNL1        0.0068
     19 C         -63.6215  -50.1730  -24.5463 C.ar    1  UNL1        0.0097
     20 C         -62.4018  -49.8942  -23.9084 C.ar    1  UNL1        0.1093
     21 C         -63.7146  -47.5447  -27.2693 C.2     1  UNL1        0.3381
     22 O         -63.7526  -46.2867  -27.1931 O.2     1  UNL1       -0.2451
     23 O         -64.1016  -48.1668  -28.4536 O.3     1  UNL1       -0.4771
     24 H         -64.4114  -47.6229  -29.2501 H       1  UNL1        0.2954
     25 C         -61.9854  -50.7051  -22.7370 C.2     1  UNL1        0.3410
     26 O         -62.5873  -51.7773  -22.4639 O.2     1  UNL1       -0.2450
     27 O         -60.9270  -50.3079  -21.9213 O.3     1  UNL1       -0.4770
     28 H         -60.4593  -49.4180  -22.0399 H       1  UNL1        0.2954
     29 C         -63.0509  -38.5568  -20.2630 C.2     1  UNL1        0.2839
     30 O         -62.1553  -38.2643  -21.1003 O.2     1  UNL1       -0.2665
     31 N         -63.1231  -39.8828  -19.7143 N.am    1  UNL1       -0.2766
     32 H         -63.6541  -40.0167  -18.8239 H       1  UNL1        0.1553
     33 C         -66.2406  -38.6158  -20.5718 C.3     1  UNL1        0.0345
     34 C         -65.3970  -37.5470  -19.9447 C.ar    1  UNL1        0.0202
     35 C         -64.0040  -37.5248  -19.8126 C.ar    1  UNL1        0.1946
     36 O         -63.6254  -36.4154  -19.2029 O.2     1  UNL1       -0.4492
     37 C         -64.7010  -35.7167  -18.9334 C.ar    1  UNL1        0.1452
     38 C         -64.7679  -34.4827  -18.2961 C.ar    1  UNL1        0.0375
     39 C         -66.0355  -33.9064  -18.1047 C.ar    1  UNL1        0.0031
     40 C         -67.2115  -34.5680  -18.5507 C.ar    1  UNL1        0.0002
     41 C         -67.0991  -35.8232  -19.1957 C.ar    1  UNL1        0.0028
     42 C         -65.8249  -36.3658  -19.3692 C.ar    1  UNL1        0.0337
     43 C         -68.5454  -33.9495  -18.3428 C.ar    1  UNL1        0.0000
     44 C         -69.6844  -34.4714  -18.9852 C.ar    1  UNL1        0.0000
     45 C         -70.9392  -33.8869  -18.7877 C.ar    1  UNL1        0.0000
     46 C         -71.0720  -32.7787  -17.9483 C.ar    1  UNL1        0.0000
     47 C         -69.9500  -32.2520  -17.3049 C.ar    1  UNL1        0.0000
     48 C         -68.6925  -32.8318  -17.4994 C.ar    1  UNL1        0.0000
@<TRIPOS>BOND
     1    33    34    1
     2    34    35   ar
     3    35    29    1
     4    29    30    2
     5    29    31   am
     6    31     1    1
     7     1     2   ar
     8     2     3   ar
     9     3     4   ar
    10     4     7    1
    11     7     8    1
    12     8     9    1
    13     9    10    1
    14    10    13    1
    15    13    14    1
    16    14    15    1
    17    15    16   ar
    18    16    17   ar
    19    17    21    1
    20    21    22    2
    21    21    23    1
    22    17    18   ar
    23    18    19   ar
    24    19    20   ar
    25    20    25    1
    26    25    26    2
    27    25    27    1
    28    10    11    1
    29    11    12    1
    30     4     5   ar
    31     5     6   ar
    32    35    36   ar
    33    36    37   ar
    34    37    38   ar
    35    38    39   ar
    36    39    40   ar
    37    40    43    1
    38    43    44   ar
    39    44    45   ar
    40    45    46   ar
    41    46    47   ar
    42    47    48   ar
    43    40    41   ar
    44    41    42   ar
    45    42    34   ar
    46     6     1   ar
    47    42    37   ar
    48    12     7    1
    49    48    43   ar
    50    20    15   ar
    51    31    32    1
    52    23    24    1
    53    27    28    1
@<TRIPOS>MOLECULE
*****
 48 53 0 0 0
SMALL
GASTEIGER

@<TRIPOS>ATOM
      1 C         -62.5448  -41.4220  -20.1661 C.ar    1  UNL1        0.0702
      2 C         -63.2561  -42.2933  -20.9990 C.ar    1  UNL1        0.0191
      3 C         -62.6386  -43.4314  -21.5196 C.ar    1  UNL1        0.0356
      4 C         -61.2918  -43.6921  -21.2142 C.ar    1  UNL1        0.1318
      5 N         -60.6115  -42.8119  -20.4270 N.ar    1  UNL1       -0.2279
      6 C         -61.1934  -41.6995  -19.9061 C.ar    1  UNL1        0.1149
      7 N         -60.6155  -44.8573  -21.7345 N.pl3   1  UNL1       -0.2932
      8 C         -59.3543  -44.6955  -22.4741 C.3     1  UNL1        0.0923
      9 C         -59.2179  -45.7981  -23.5266 C.3     1  UNL1        0.0252
     10 C         -59.2570  -47.2159  -22.9002 C.3     1  UNL1        0.0472
     11 C         -60.0165  -47.2572  -21.5504 C.3     1  UNL1        0.0252
     12 C         -61.1343  -46.2104  -21.4685 C.3     1  UNL1        0.0923
     13 C         -59.8462  -48.2378  -23.8947 C.3     1  UNL1        0.2054
     14 O         -61.1740  -47.8768  -24.2804 O.3     1  UNL1       -0.4752
     15 C         -61.6229  -47.6560  -25.5955 C.ar    1  UNL1        0.1449
     16 C         -60.8918  -46.8661  -26.5067 C.ar    1  UNL1        0.0435
     17 C         -61.3467  -46.6720  -27.8207 C.ar    1  UNL1        0.0785
     18 C         -62.5453  -47.2785  -28.2232 C.ar    1  UNL1        0.0068
     19 C         -63.2756  -48.0642  -27.3318 C.ar    1  UNL1        0.0097
     20 C         -62.8265  -48.2643  -26.0163 C.ar    1  UNL1        0.1093
     21 C         -60.5708  -45.8374  -28.7661 C.2     1  UNL1        0.3381
     22 O         -61.1523  -44.9866  -29.4927 O.2     1  UNL1       -0.2451
     23 O         -59.1892  -45.9836  -28.8620 O.3     1  UNL1       -0.4771
     24 H         -58.6493  -45.4172  -29.5053 H       1  UNL1        0.2954
     25 C         -63.6366  -49.0859  -25.0826 C.2     1  UNL1        0.3410
     26 O         -64.8941  -49.0704  -25.1545 O.2     1  UNL1       -0.2450
     27 O         -63.0336  -49.8899  -24.1166 O.3     1  UNL1       -0.4770
     28 H         -62.0342  -49.8819  -23.9555 H       1  UNL1        0.2954
     29 C         -63.0915  -38.9449  -20.2685 C.2     1  UNL1        0.2839
     30 O         -62.2225  -38.7245  -21.1545 O.2     1  UNL1       -0.2665
     31 N         -63.1877  -40.2410  -19.6561 N.am    1  UNL1       -0.2766
     32 H         -63.6848  -40.3146  -18.7395 H       1  UNL1        0.1553
     33 C         -66.2801  -38.8346  -20.5752 C.3     1  UNL1        0.0345
     34 C         -65.3793  -37.8067  -19.9594 C.ar    1  UNL1        0.0202
     35 C         -63.9870  -37.8583  -19.8282 C.ar    1  UNL1        0.1946
     36 O         -63.5485  -36.7649  -19.2301 O.2     1  UNL1       -0.4492
     37 C         -64.5845  -36.0064  -18.9671 C.ar    1  UNL1        0.1452
     38 C         -64.5840  -34.7643  -18.3424 C.ar    1  UNL1        0.0375
     39 C         -65.8184  -34.1184  -18.1563 C.ar    1  UNL1        0.0031
     40 C         -67.0289  -34.7201  -18.5950 C.ar    1  UNL1        0.0002
     41 C         -66.9851  -35.9860  -19.2272 C.ar    1  UNL1        0.0028
     42 C         -65.7422  -36.5983  -19.3958 C.ar    1  UNL1        0.0337
     43 C         -68.3272  -34.0283  -18.3927 C.ar    1  UNL1        0.0000
     44 C         -68.4095  -32.8859  -17.5739 C.ar    1  UNL1        0.0000
     45 C         -69.6334  -32.2364  -17.3852 C.ar    1  UNL1        0.0000
     46 C         -70.7858  -32.7173  -18.0104 C.ar    1  UNL1        0.0000
     47 C         -70.7173  -33.8492  -18.8255 C.ar    1  UNL1        0.0000
     48 C         -69.4962  -34.5033  -19.0171 C.ar    1  UNL1        0.0000
@<TRIPOS>BOND
     1    33    34    1
     2    34    35   ar
     3    35    29    1
     4    29    30    2
     5    29    31   am
     6    31     1    1
     7     1     2   ar
     8     2     3   ar
     9     3     4   ar
    10     4     7    1
    11     7     8    1
    12     8     9    1
    13     9    10    1
    14    10    13    1
    15    13    14    1
    16    14    15    1
    17    15    16   ar
    18    16    17   ar
    19    17    21    1
    20    21    22    2
    21    21    23    1
    22    17    18   ar
    23    18    19   ar
    24    19    20   ar
    25    20    25    1
    26    25    26    2
    27    25    27    1
    28    10    11    1
    29    11    12    1
    30     4     5   ar
    31     5     6   ar
    32    35    36   ar
    33    36    37   ar
    34    37    38   ar
    35    38    39   ar
    36    39    40   ar
    37    40    43    1
    38    43    44   ar
    39    44    45   ar
    40    45    46   ar
    41    46    47   ar
    42    47    48   ar
    43    40    41   ar
    44    41    42   ar
    45    42    34   ar
    46     6     1   ar
    47    42    37   ar
    48    12     7    1
    49    48    43   ar
    50    20    15   ar
    51    31    32    1
    52    23    24    1
    53    27    28    1
