@<TRIPOS>MOLECULE
*****
 35 40 0 0 0
SMALL
GASTEIGER

@<TRIPOS>ATOM
      1 C          48.0122   12.8450  -25.2303 C.ar    1  UNL1        0.1095
      2 N          47.1498   12.6358  -26.2565 N.ar    1  UNL1       -0.1677
      3 N          47.0840   13.7475  -26.9768 N.ar    1  UNL1       -0.2319
      4 C          46.3365   13.8760  -28.2205 C.3     1  UNL1        0.1554
      5 C          47.9146   14.6514  -26.4376 C.ar    1  UNL1        0.1657
      6 N          48.2056   15.8782  -26.9307 N.ar    1  UNL1       -0.2028
      7 C          49.1076   16.6453  -26.2552 C.ar    1  UNL1        0.1947
      8 I          49.6053   18.5553  -26.9790 I       1  UNL1        0.0015
      9 N          49.6751   16.1892  -25.0968 N.ar    1  UNL1       -0.2066
     10 C          49.3889   14.9539  -24.5839 C.ar    1  UNL1        0.1382
     11 C          48.5029   14.1476  -25.3136 C.ar    1  UNL1        0.0865
     12 C          49.4666   10.8271  -24.5326 C.ar    1  UNL1        0.0809
     13 C          48.4448   11.7510  -24.3508 C.ar    1  UNL1        0.0577
     14 C          47.8004   11.3553  -23.1961 C.ar    1  UNL1        0.1231
     15 N          48.4097   10.2644  -22.6962 N.ar    1  UNL1       -0.1676
     16 N          49.4072    9.9443  -23.5063 N.ar    1  UNL1       -0.2488
     17 C          50.2440    8.7674  -23.2925 C.3     1  UNL1        0.1537
     18 C          53.1004   10.3886  -29.0314 C.3     1  UNL1        0.0310
     19 C          52.1360   10.5365  -27.8926 C.ar    1  UNL1       -0.0218
     20 C          52.3966   11.4467  -26.8584 C.ar    1  UNL1       -0.0042
     21 C          51.5210   11.5521  -25.7744 C.ar    1  UNL1        0.0012
     22 C          50.3838   10.7310  -25.6945 C.ar    1  UNL1        0.0174
     23 C          50.1332    9.8125  -26.7267 C.ar    1  UNL1        0.0012
     24 C          51.0033    9.7141  -27.8159 C.ar    1  UNL1       -0.0042
     25 N          49.9181   14.5840  -23.3002 N.pl3   1  UNL1       -0.2916
     26 C          51.1774   13.8690  -23.1505 C.3     1  UNL1        0.0937
     27 C          51.0587   13.0907  -21.8464 C.3     1  UNL1        0.0391
     28 C          49.9332   13.7768  -21.0604 C.3     1  UNL1        0.0790
     29 C          49.0393   14.3457  -22.1664 C.3     1  UNL1        0.1081
     30 N          49.2023   12.8410  -20.1649 N.3     1  UNL1       -0.2723
     31 C          49.9888   11.6110  -19.9191 C.3     1  UNL1        0.0721
     32 C          49.1261   10.5484  -19.2130 C.3     1  UNL1        0.0174
     33 C          48.0098   11.1706  -18.3615 C.3     1  UNL1        0.0029
     34 C          48.4634   12.5015  -17.7646 C.3     1  UNL1        0.0174
     35 C          48.8783   13.4991  -18.8689 C.3     1  UNL1        0.0721
@<TRIPOS>BOND
     1    18    19    1
     2    19    20   ar
     3    20    21   ar
     4    21    22   ar
     5    22    12    1
     6    12    13   ar
     7    13     1    1
     8     1     2   ar
     9     2     3   ar
    10     3     4    1
    11     3     5   ar
    12     5     6   ar
    13     6     7   ar
    14     7     8    1
    15     7     9   ar
    16     9    10   ar
    17    10    25    1
    18    25    26    1
    19    26    27    1
    20    27    28    1
    21    28    30    1
    22    30    31    1
    23    31    32    1
    24    32    33    1
    25    33    34    1
    26    34    35    1
    27    28    29    1
    28    10    11   ar
    29    13    14   ar
    30    14    15   ar
    31    15    16   ar
    32    16    17    1
    33    22    23   ar
    34    23    24   ar
    35    24    19   ar
    36    16    12   ar
    37    11     1   ar
    38    11     5   ar
    39    29    25    1
    40    35    30    1
@<TRIPOS>MOLECULE
*****
 35 40 0 0 0
SMALL
GASTEIGER

@<TRIPOS>ATOM
      1 C          48.4799   12.8202  -25.8761 C.ar    1  UNL1        0.1095
      2 N          47.3136   12.7236  -26.5625 N.ar    1  UNL1       -0.1677
      3 N          46.9848   13.9336  -26.9948 N.ar    1  UNL1       -0.2319
      4 C          45.8453   14.2147  -27.8578 C.3     1  UNL1        0.1554
      5 C          47.9412   14.7933  -26.6157 C.ar    1  UNL1        0.1657
      6 N          48.0250   16.1050  -26.9402 N.ar    1  UNL1       -0.2028
      7 C          49.0979   16.8126  -26.4859 C.ar    1  UNL1        0.1947
      8 I          49.2855   18.8506  -26.9662 I       1  UNL1        0.0015
      9 N          50.0428   16.2104  -25.7007 N.ar    1  UNL1       -0.2066
     10 C          49.9707   14.8873  -25.3612 C.ar    1  UNL1        0.1382
     11 C          48.8941   14.1517  -25.8782 C.ar    1  UNL1        0.0865
     12 C          49.0750   10.9156  -24.2352 C.ar    1  UNL1        0.0809
     13 C          49.2080   11.6287  -25.4203 C.ar    1  UNL1        0.0577
     14 C          50.2869   11.0593  -26.0662 C.ar    1  UNL1        0.1231
     15 N          50.7681   10.0458  -25.3229 N.ar    1  UNL1       -0.1676
     16 N          50.0418    9.9664  -24.2184 N.ar    1  UNL1       -0.2488
     17 C          50.3324    9.0079  -23.1563 C.3     1  UNL1        0.1537
     18 C          45.4749   12.0830  -19.8406 C.3     1  UNL1        0.0310
     19 C          46.3686   11.7596  -21.0006 C.ar    1  UNL1       -0.0218
     20 C          47.0911   10.5582  -21.0236 C.ar    1  UNL1       -0.0042
     21 C          47.9586   10.2770  -22.0825 C.ar    1  UNL1        0.0012
     22 C          48.1370   11.2042  -23.1229 C.ar    1  UNL1        0.0174
     23 C          47.4203   12.4113  -23.0896 C.ar    1  UNL1        0.0012
     24 C          46.5450   12.6881  -22.0359 C.ar    1  UNL1       -0.0042
     25 N          50.9229   14.3456  -24.4313 N.pl3   1  UNL1       -0.2916
     26 C          51.7959   13.2301  -24.7676 C.3     1  UNL1        0.0937
     27 C          52.1065   12.5355  -23.4480 C.3     1  UNL1        0.0391
     28 C          51.7980   13.5702  -22.3573 C.3     1  UNL1        0.0790
     29 C          50.7003   14.4261  -22.9966 C.3     1  UNL1        0.1081
     30 N          51.3605   12.9477  -21.0796 N.3     1  UNL1       -0.2723
     31 C          52.2444   13.3448  -19.9602 C.3     1  UNL1        0.0721
     32 C          51.9454   12.4999  -18.7077 C.3     1  UNL1        0.0174
     33 C          50.4915   12.0074  -18.6659 C.3     1  UNL1        0.0029
     34 C          49.5551   13.0324  -19.3030 C.3     1  UNL1        0.0174
     35 C          49.9533   13.3219  -20.7674 C.3     1  UNL1        0.0721
@<TRIPOS>BOND
     1    18    19    1
     2    19    20   ar
     3    20    21   ar
     4    21    22   ar
     5    22    12    1
     6    12    13   ar
     7    13     1    1
     8     1     2   ar
     9     2     3   ar
    10     3     4    1
    11     3     5   ar
    12     5     6   ar
    13     6     7   ar
    14     7     8    1
    15     7     9   ar
    16     9    10   ar
    17    10    25    1
    18    25    26    1
    19    26    27    1
    20    27    28    1
    21    28    30    1
    22    30    31    1
    23    31    32    1
    24    32    33    1
    25    33    34    1
    26    34    35    1
    27    28    29    1
    28    10    11   ar
    29    13    14   ar
    30    14    15   ar
    31    15    16   ar
    32    16    17    1
    33    22    23   ar
    34    23    24   ar
    35    24    19   ar
    36    16    12   ar
    37    11     1   ar
    38    11     5   ar
    39    29    25    1
    40    35    30    1
@<TRIPOS>MOLECULE
*****
 35 40 0 0 0
SMALL
GASTEIGER

@<TRIPOS>ATOM
      1 C          49.0784   14.9117  -22.7314 C.ar    1  UNL1        0.1095
      2 N          48.5029   16.0039  -22.1689 N.ar    1  UNL1       -0.1677
      3 N          47.6667   16.5337  -23.0516 N.ar    1  UNL1       -0.2319
      4 C          46.7883   17.6623  -22.7745 C.3     1  UNL1        0.1554
      5 C          47.6827   15.7763  -24.1577 C.ar    1  UNL1        0.1657
      6 N          46.8996   15.9259  -25.2521 N.ar    1  UNL1       -0.2028
      7 C          47.0383   15.0292  -26.2694 C.ar    1  UNL1        0.1947
      8 I          45.8427   15.2064  -27.9894 I       1  UNL1        0.0015
      9 N          47.9663   14.0270  -26.1879 N.ar    1  UNL1       -0.2066
     10 C          48.7671   13.8646  -25.0910 C.ar    1  UNL1        0.1382
     11 C          48.5804   14.7566  -24.0246 C.ar    1  UNL1        0.0865
     12 C          49.5471   13.0410  -21.0124 C.ar    1  UNL1        0.0809
     13 C          49.9202   13.9949  -21.9513 C.ar    1  UNL1        0.0577
     14 C          51.3001   14.0101  -21.9232 C.ar    1  UNL1        0.1231
     15 N          51.7384   13.1025  -21.0313 N.ar    1  UNL1       -0.1676
     16 N          50.6815   12.5262  -20.4794 N.ar    1  UNL1       -0.2488
     17 C          50.7964   11.5298  -19.4187 C.3     1  UNL1        0.1537
     18 C          44.1341   11.8729  -19.2886 C.3     1  UNL1        0.0310
     19 C          45.5454   12.1279  -19.7270 C.ar    1  UNL1       -0.0218
     20 C          46.5155   12.5222  -18.7946 C.ar    1  UNL1       -0.0042
     21 C          47.8198   12.8037  -19.2101 C.ar    1  UNL1        0.0012
     22 C          48.1685   12.7201  -20.5685 C.ar    1  UNL1        0.0174
     23 C          47.1906   12.3363  -21.5002 C.ar    1  UNL1        0.0012
     24 C          45.8889   12.0448  -21.0835 C.ar    1  UNL1       -0.0042
     25 N          49.8074   12.8738  -25.1185 N.pl3   1  UNL1       -0.2916
     26 C          51.2148   13.2219  -25.2516 C.3     1  UNL1        0.0937
     27 C          51.8776   12.0194  -25.9113 C.3     1  UNL1        0.0391
     28 C          50.9180   10.8442  -25.6803 C.3     1  UNL1        0.0790
     29 C          49.5495   11.5280  -25.6050 C.3     1  UNL1        0.1081
     30 N          50.9846    9.8249  -26.7612 N.3     1  UNL1       -0.2723
     31 C          49.7546    9.8370  -27.5851 C.3     1  UNL1        0.0721
     32 C          49.7209    8.6184  -28.5263 C.3     1  UNL1        0.0174
     33 C          51.1269    8.1210  -28.8922 C.3     1  UNL1        0.0029
     34 C          52.1103    9.2875  -28.9672 C.3     1  UNL1        0.0174
     35 C          52.1737   10.0547  -27.6277 C.3     1  UNL1        0.0721
@<TRIPOS>BOND
     1    18    19    1
     2    19    20   ar
     3    20    21   ar
     4    21    22   ar
     5    22    12    1
     6    12    13   ar
     7    13     1    1
     8     1     2   ar
     9     2     3   ar
    10     3     4    1
    11     3     5   ar
    12     5     6   ar
    13     6     7   ar
    14     7     8    1
    15     7     9   ar
    16     9    10   ar
    17    10    25    1
    18    25    26    1
    19    26    27    1
    20    27    28    1
    21    28    30    1
    22    30    31    1
    23    31    32    1
    24    32    33    1
    25    33    34    1
    26    34    35    1
    27    28    29    1
    28    10    11   ar
    29    13    14   ar
    30    14    15   ar
    31    15    16   ar
    32    16    17    1
    33    22    23   ar
    34    23    24   ar
    35    24    19   ar
    36    16    12   ar
    37    11     1   ar
    38    11     5   ar
    39    29    25    1
    40    35    30    1
@<TRIPOS>MOLECULE
*****
 35 40 0 0 0
SMALL
GASTEIGER

@<TRIPOS>ATOM
      1 C          47.9702   10.6932  -27.7951 C.ar    1  UNL1        0.1095
      2 N          48.1571    9.4743  -28.3607 N.ar    1  UNL1       -0.1677
      3 N          47.5480    9.4653  -29.5387 N.ar    1  UNL1       -0.2319
      4 C          47.6117    8.3610  -30.4867 C.3     1  UNL1        0.1554
      5 C          46.9998   10.6719  -29.7414 C.ar    1  UNL1        0.1657
      6 N          46.3717   11.0973  -30.8628 N.ar    1  UNL1       -0.2028
      7 C          45.9082   12.3789  -30.8935 C.ar    1  UNL1        0.1947
      8 I          44.9331   13.0972  -32.6118 I       1  UNL1        0.0015
      9 N          46.0539   13.1946  -29.8046 N.ar    1  UNL1       -0.2066
     10 C          46.6827   12.7788  -28.6633 C.ar    1  UNL1        0.1382
     11 C          47.2067   11.4776  -28.6590 C.ar    1  UNL1        0.0865
     12 C          50.0246   11.0258  -26.2644 C.ar    1  UNL1        0.0809
     13 C          48.6696   11.0888  -26.5655 C.ar    1  UNL1        0.0577
     14 C          48.0576   11.4936  -25.3964 C.ar    1  UNL1        0.1231
     15 N          48.9915   11.6837  -24.4462 N.ar    1  UNL1       -0.1676
     16 N          50.1733   11.3943  -24.9690 N.ar    1  UNL1       -0.2488
     17 C          51.4068   11.4352  -24.1893 C.3     1  UNL1        0.1537
     18 C          54.2226    9.1093  -29.7772 C.3     1  UNL1        0.0310
     19 C          53.1625    9.5876  -28.8306 C.ar    1  UNL1       -0.0218
     20 C          52.0825    8.7570  -28.4996 C.ar    1  UNL1       -0.0042
     21 C          51.0709    9.2190  -27.6533 C.ar    1  UNL1        0.0012
     22 C          51.1100   10.5279  -27.1445 C.ar    1  UNL1        0.0174
     23 C          52.1875   11.3602  -27.4882 C.ar    1  UNL1        0.0012
     24 C          53.2044   10.8950  -28.3264 C.ar    1  UNL1       -0.0042
     25 N          46.6915   13.6371  -27.5109 N.pl3   1  UNL1       -0.2916
     26 C          45.4869   13.9354  -26.7495 C.3     1  UNL1        0.0937
     27 C          45.7223   15.3034  -26.1223 C.3     1  UNL1        0.0391
     28 C          47.2426   15.5113  -26.1499 C.3     1  UNL1        0.0790
     29 C          47.6785   14.6957  -27.3709 C.3     1  UNL1        0.1081
     30 N          47.6265   16.9439  -26.2577 N.3     1  UNL1       -0.2723
     31 C          47.5040   17.6309  -24.9519 C.3     1  UNL1        0.0721
     32 C          47.6497   19.1543  -25.1253 C.3     1  UNL1        0.0174
     33 C          48.5153   19.5263  -26.3380 C.3     1  UNL1        0.0029
     34 C          49.6139   18.4878  -26.5569 C.3     1  UNL1        0.0174
     35 C          49.0189   17.0779  -26.7688 C.3     1  UNL1        0.0721
@<TRIPOS>BOND
     1    18    19    1
     2    19    20   ar
     3    20    21   ar
     4    21    22   ar
     5    22    12    1
     6    12    13   ar
     7    13     1    1
     8     1     2   ar
     9     2     3   ar
    10     3     4    1
    11     3     5   ar
    12     5     6   ar
    13     6     7   ar
    14     7     8    1
    15     7     9   ar
    16     9    10   ar
    17    10    25    1
    18    25    26    1
    19    26    27    1
    20    27    28    1
    21    28    30    1
    22    30    31    1
    23    31    32    1
    24    32    33    1
    25    33    34    1
    26    34    35    1
    27    28    29    1
    28    10    11   ar
    29    13    14   ar
    30    14    15   ar
    31    15    16   ar
    32    16    17    1
    33    22    23   ar
    34    23    24   ar
    35    24    19   ar
    36    16    12   ar
    37    11     1   ar
    38    11     5   ar
    39    29    25    1
    40    35    30    1
@<TRIPOS>MOLECULE
*****
 35 40 0 0 0
SMALL
GASTEIGER

@<TRIPOS>ATOM
      1 C          48.2652   11.2422  -23.3757 C.ar    1  UNL1        0.1095
      2 N          48.0505   10.0997  -22.6762 N.ar    1  UNL1       -0.1677
      3 N          48.8553   10.1007  -21.6221 N.ar    1  UNL1       -0.2319
      4 C          48.8418    9.0840  -20.5788 C.3     1  UNL1        0.1554
      5 C          49.5588   11.2420  -21.6274 C.ar    1  UNL1        0.1657
      6 N          50.4193   11.6665  -20.6721 N.ar    1  UNL1       -0.2028
      7 C          51.0175   12.8800  -20.8388 C.ar    1  UNL1        0.1947
      8 I          52.3556   13.5948  -19.3835 I       1  UNL1        0.0015
      9 N          50.7696   13.6267  -21.9583 N.ar    1  UNL1       -0.2066
     10 C          49.9060   13.2103  -22.9338 C.ar    1  UNL1        0.1382
     11 C          49.2512   11.9867  -22.7292 C.ar    1  UNL1        0.0865
     12 C          47.6256   11.4942  -25.8660 C.ar    1  UNL1        0.0809
     13 C          47.4050   11.6312  -24.5010 C.ar    1  UNL1        0.0577
     14 C          46.2297   12.3471  -24.3944 C.ar    1  UNL1        0.1231
     15 N          45.7551   12.6119  -25.6256 N.ar    1  UNL1       -0.1676
     16 N          46.6008   12.1040  -26.5092 N.ar    1  UNL1       -0.2488
     17 C          46.4204   12.2642  -27.9489 C.3     1  UNL1        0.1537
     18 C          52.2941    9.2585  -28.4821 C.3     1  UNL1        0.0310
     19 C          51.0868    9.7983  -27.7750 C.ar    1  UNL1       -0.0218
     20 C          49.7992    9.4612  -28.2157 C.ar    1  UNL1       -0.0042
     21 C          48.6744   10.0000  -27.5853 C.ar    1  UNL1        0.0012
     22 C          48.8194   10.9047  -26.5203 C.ar    1  UNL1        0.0174
     23 C          50.1110   11.2486  -26.0900 C.ar    1  UNL1        0.0012
     24 C          51.2359   10.7019  -26.7137 C.ar    1  UNL1       -0.0042
     25 N          49.7854   13.9777  -24.1427 N.pl3   1  UNL1       -0.2916
     26 C          50.9027   14.1817  -25.0535 C.3     1  UNL1        0.0937
     27 C          50.6262   15.5039  -25.7576 C.3     1  UNL1        0.0391
     28 C          49.1231   15.7572  -25.5790 C.3     1  UNL1        0.0790
     29 C          48.8106   15.0506  -24.2565 C.3     1  UNL1        0.1081
     30 N          48.7829   17.2045  -25.5436 N.3     1  UNL1       -0.2723
     31 C          48.8120   17.7948  -26.9010 C.3     1  UNL1        0.0721
     32 C          48.7167   19.3302  -26.8263 C.3     1  UNL1        0.0174
     33 C          47.9640   19.8109  -25.5771 C.3     1  UNL1        0.0029
     34 C          46.8636   18.8225  -25.1954 C.3     1  UNL1        0.0174
     35 C          47.4414   17.4141  -24.9318 C.3     1  UNL1        0.0721
@<TRIPOS>BOND
     1    18    19    1
     2    19    20   ar
     3    20    21   ar
     4    21    22   ar
     5    22    12    1
     6    12    13   ar
     7    13     1    1
     8     1     2   ar
     9     2     3   ar
    10     3     4    1
    11     3     5   ar
    12     5     6   ar
    13     6     7   ar
    14     7     8    1
    15     7     9   ar
    16     9    10   ar
    17    10    25    1
    18    25    26    1
    19    26    27    1
    20    27    28    1
    21    28    30    1
    22    30    31    1
    23    31    32    1
    24    32    33    1
    25    33    34    1
    26    34    35    1
    27    28    29    1
    28    10    11   ar
    29    13    14   ar
    30    14    15   ar
    31    15    16   ar
    32    16    17    1
    33    22    23   ar
    34    23    24   ar
    35    24    19   ar
    36    16    12   ar
    37    11     1   ar
    38    11     5   ar
    39    29    25    1
    40    35    30    1
@<TRIPOS>MOLECULE
*****
 35 40 0 0 0
SMALL
GASTEIGER

@<TRIPOS>ATOM
      1 C          47.8602   14.1777  -23.0611 C.ar    1  UNL1        0.1095
      2 N          47.0057   15.1280  -22.6060 N.ar    1  UNL1       -0.1677
      3 N          47.4141   16.3054  -23.0599 N.ar    1  UNL1       -0.2319
      4 C          46.6919   17.5553  -22.8640 C.3     1  UNL1        0.1554
      5 C          48.5012   16.1123  -23.8204 C.ar    1  UNL1        0.1657
      6 N          49.1616   17.0494  -24.5406 N.ar    1  UNL1       -0.2028
      7 C          50.2319   16.6518  -25.2853 C.ar    1  UNL1        0.1947
      8 I          51.2901   18.0615  -26.4309 I       1  UNL1        0.0015
      9 N          50.6359   15.3446  -25.2749 N.ar    1  UNL1       -0.2066
     10 C          49.9816   14.3868  -24.5500 C.ar    1  UNL1        0.1382
     11 C          48.8477   14.7920  -23.8305 C.ar    1  UNL1        0.0865
     12 C          48.0532   11.8730  -21.9098 C.ar    1  UNL1        0.0809
     13 C          47.5861   12.7454  -22.8853 C.ar    1  UNL1        0.0577
     14 C          46.8845   11.9542  -23.7723 C.ar    1  UNL1        0.1231
     15 N          46.9089   10.6774  -23.3475 N.ar    1  UNL1       -0.1676
     16 N          47.6190   10.6302  -22.2307 N.ar    1  UNL1       -0.2488
     17 C          47.8987    9.3795  -21.5318 C.3     1  UNL1        0.1537
     18 C          51.6297   13.0606  -17.5014 C.3     1  UNL1        0.0310
     19 C          50.6999   12.8016  -18.6490 C.ar    1  UNL1       -0.0218
     20 C          49.3201   12.6843  -18.4292 C.ar    1  UNL1       -0.0042
     21 C          48.4584   12.3980  -19.4915 C.ar    1  UNL1        0.0012
     22 C          48.9655   12.1993  -20.7865 C.ar    1  UNL1        0.0174
     23 C          50.3493   12.3061  -20.9998 C.ar    1  UNL1        0.0012
     24 C          51.2100   12.6025  -19.9394 C.ar    1  UNL1       -0.0042
     25 N          50.5290   13.0601  -24.4792 N.pl3   1  UNL1       -0.2916
     26 C          51.8174   12.7783  -23.8625 C.3     1  UNL1        0.0937
     27 C          52.3417   11.5262  -24.5538 C.3     1  UNL1        0.0391
     28 C          51.1126   10.8645  -25.1914 C.3     1  UNL1        0.0790
     29 C          50.1893   12.0539  -25.4724 C.3     1  UNL1        0.1081
     30 N          51.4437   10.0996  -26.4230 N.3     1  UNL1       -0.2723
     31 C          50.2393    9.8755  -27.2543 C.3     1  UNL1        0.0721
     32 C          50.5389    8.8707  -28.3824 C.3     1  UNL1        0.0174
     33 C          52.0163    8.8823  -28.8011 C.3     1  UNL1        0.0029
     34 C          52.6047   10.2857  -28.6680 C.3     1  UNL1        0.0174
     35 C          52.4811   10.8108  -27.2204 C.3     1  UNL1        0.0721
@<TRIPOS>BOND
     1    18    19    1
     2    19    20   ar
     3    20    21   ar
     4    21    22   ar
     5    22    12    1
     6    12    13   ar
     7    13     1    1
     8     1     2   ar
     9     2     3   ar
    10     3     4    1
    11     3     5   ar
    12     5     6   ar
    13     6     7   ar
    14     7     8    1
    15     7     9   ar
    16     9    10   ar
    17    10    25    1
    18    25    26    1
    19    26    27    1
    20    27    28    1
    21    28    30    1
    22    30    31    1
    23    31    32    1
    24    32    33    1
    25    33    34    1
    26    34    35    1
    27    28    29    1
    28    10    11   ar
    29    13    14   ar
    30    14    15   ar
    31    15    16   ar
    32    16    17    1
    33    22    23   ar
    34    23    24   ar
    35    24    19   ar
    36    16    12   ar
    37    11     1   ar
    38    11     5   ar
    39    29    25    1
    40    35    30    1
@<TRIPOS>MOLECULE
*****
 35 40 0 0 0
SMALL
GASTEIGER

@<TRIPOS>ATOM
      1 C          47.2131   11.1726  -27.6868 C.ar    1  UNL1        0.1095
      2 N          47.3970    9.9040  -28.1311 N.ar    1  UNL1       -0.1677
      3 N          47.0210    9.8505  -29.4019 N.ar    1  UNL1       -0.2319
      4 C          47.1659    8.6759  -30.2513 C.3     1  UNL1        0.1554
      5 C          46.6267   11.0752  -29.7789 C.ar    1  UNL1        0.1657
      6 N          46.2592   11.4593  -31.0241 N.ar    1  UNL1       -0.2028
      7 C          45.9219   12.7653  -31.2208 C.ar    1  UNL1        0.1947
      8 I          45.3520   13.4209  -33.1352 I       1  UNL1        0.0015
      9 N          45.9307   13.6482  -30.1755 N.ar    1  UNL1       -0.2066
     10 C          46.2961   13.2751  -28.9114 C.ar    1  UNL1        0.1382
     11 C          46.6958   11.9431  -28.7276 C.ar    1  UNL1        0.0865
     12 C          48.9900   11.5699  -25.8541 C.ar    1  UNL1        0.0809
     13 C          47.7011   11.6079  -26.3715 C.ar    1  UNL1        0.0577
     14 C          46.9046   12.0340  -25.3278 C.ar    1  UNL1        0.1231
     15 N          47.6709   12.2599  -24.2448 N.ar    1  UNL1       -0.1676
     16 N          48.9242   11.9727  -24.5621 N.ar    1  UNL1       -0.2488
     17 C          50.0149   12.0490  -23.5948 C.3     1  UNL1        0.1537
     18 C          53.7226    9.6303  -28.5885 C.3     1  UNL1        0.0310
     19 C          52.5150   10.1105  -27.8403 C.ar    1  UNL1       -0.0218
     20 C          51.3507    9.3302  -27.8007 C.ar    1  UNL1       -0.0042
     21 C          50.2104    9.7977  -27.1419 C.ar    1  UNL1        0.0012
     22 C          50.2078   11.0642  -26.5338 C.ar    1  UNL1        0.0174
     23 C          51.3722   11.8471  -26.5862 C.ar    1  UNL1        0.0012
     24 C          52.5160   11.3754  -27.2362 C.ar    1  UNL1       -0.0042
     25 N          46.1626   14.2152  -27.8329 N.pl3   1  UNL1       -0.2916
     26 C          45.0286   15.1216  -27.7221 C.3     1  UNL1        0.0937
     27 C          45.5410   16.3330  -26.9539 C.3     1  UNL1        0.0391
     28 C          46.8083   15.8552  -26.2322 C.3     1  UNL1        0.0790
     29 C          47.3321   14.7497  -27.1540 C.3     1  UNL1        0.1081
     30 N          47.8013   16.9435  -26.0299 N.3     1  UNL1       -0.2723
     31 C          48.4217   17.3476  -27.3120 C.3     1  UNL1        0.0721
     32 C          49.6218   18.2802  -27.0631 C.3     1  UNL1        0.0174
     33 C          49.4820   19.0807  -25.7601 C.3     1  UNL1        0.0029
     34 C          48.0162   19.4085  -25.4818 C.3     1  UNL1        0.0174
     35 C          47.1628   18.1243  -25.3850 C.3     1  UNL1        0.0721
@<TRIPOS>BOND
     1    18    19    1
     2    19    20   ar
     3    20    21   ar
     4    21    22   ar
     5    22    12    1
     6    12    13   ar
     7    13     1    1
     8     1     2   ar
     9     2     3   ar
    10     3     4    1
    11     3     5   ar
    12     5     6   ar
    13     6     7   ar
    14     7     8    1
    15     7     9   ar
    16     9    10   ar
    17    10    25    1
    18    25    26    1
    19    26    27    1
    20    27    28    1
    21    28    30    1
    22    30    31    1
    23    31    32    1
    24    32    33    1
    25    33    34    1
    26    34    35    1
    27    28    29    1
    28    10    11   ar
    29    13    14   ar
    30    14    15   ar
    31    15    16   ar
    32    16    17    1
    33    22    23   ar
    34    23    24   ar
    35    24    19   ar
    36    16    12   ar
    37    11     1   ar
    38    11     5   ar
    39    29    25    1
    40    35    30    1
@<TRIPOS>MOLECULE
*****
 35 40 0 0 0
SMALL
GASTEIGER

@<TRIPOS>ATOM
      1 C          48.1124   13.6933  -23.5986 C.ar    1  UNL1        0.1095
      2 N          47.6053   14.8075  -23.0138 N.ar    1  UNL1       -0.1677
      3 N          48.3940   15.1403  -22.0008 N.ar    1  UNL1       -0.2319
      4 C          48.2297   16.3421  -21.1939 C.3     1  UNL1        0.1554
      5 C          49.4110   14.2682  -21.9514 C.ar    1  UNL1        0.1657
      6 N          50.4794   14.3172  -21.1212 N.ar    1  UNL1       -0.2028
      7 C          51.4352   13.3533  -21.2456 C.ar    1  UNL1        0.1947
      8 I          53.1208   13.3842  -19.9897 I       1  UNL1        0.0015
      9 N          51.2940   12.3526  -22.1680 N.ar    1  UNL1       -0.2066
     10 C          50.2192   12.2870  -23.0114 C.ar    1  UNL1        0.1382
     11 C          49.2675   13.3132  -22.9162 C.ar    1  UNL1        0.0865
     12 C          47.4945   13.7839  -26.1054 C.ar    1  UNL1        0.0809
     13 C          47.5731   13.1708  -24.8610 C.ar    1  UNL1        0.0577
     14 C          46.9063   11.9710  -25.0060 C.ar    1  UNL1        0.1231
     15 N          46.4655   11.8554  -26.2723 N.ar    1  UNL1       -0.1676
     16 N          46.8143   12.9509  -26.9296 N.ar    1  UNL1       -0.2488
     17 C          46.4389   13.1832  -28.3211 C.3     1  UNL1        0.1537
     18 C          49.2942   19.1470  -27.3840 C.3     1  UNL1        0.0310
     19 C          48.8227   17.7518  -27.1013 C.ar    1  UNL1       -0.0218
     20 C          47.4629   17.4971  -26.8730 C.ar    1  UNL1       -0.0042
     21 C          47.0294   16.2049  -26.5648 C.ar    1  UNL1        0.0012
     22 C          47.9520   15.1511  -26.4549 C.ar    1  UNL1        0.0174
     23 C          49.3143   15.4131  -26.6727 C.ar    1  UNL1        0.0012
     24 C          49.7467   16.7034  -26.9910 C.ar    1  UNL1       -0.0042
     25 N          50.0648   11.1443  -23.8686 N.pl3   1  UNL1       -0.2916
     26 C          50.1341    9.7782  -23.3699 C.3     1  UNL1        0.0937
     27 C          50.6106    8.9329  -24.5442 C.3     1  UNL1        0.0391
     28 C          50.3228    9.7716  -25.7968 C.3     1  UNL1        0.0790
     29 C          50.4198   11.2092  -25.2772 C.3     1  UNL1        0.1081
     30 N          51.2793    9.5020  -26.9031 N.3     1  UNL1       -0.2723
     31 C          50.5691    9.1076  -28.1409 C.3     1  UNL1        0.0721
     32 C          51.5643    8.5834  -29.1930 C.3     1  UNL1        0.0174
     33 C          52.9638    9.1948  -29.0322 C.3     1  UNL1        0.0029
     34 C          52.8706   10.6311  -28.5205 C.3     1  UNL1        0.0174
     35 C          52.1270   10.6974  -27.1678 C.3     1  UNL1        0.0721
@<TRIPOS>BOND
     1    18    19    1
     2    19    20   ar
     3    20    21   ar
     4    21    22   ar
     5    22    12    1
     6    12    13   ar
     7    13     1    1
     8     1     2   ar
     9     2     3   ar
    10     3     4    1
    11     3     5   ar
    12     5     6   ar
    13     6     7   ar
    14     7     8    1
    15     7     9   ar
    16     9    10   ar
    17    10    25    1
    18    25    26    1
    19    26    27    1
    20    27    28    1
    21    28    30    1
    22    30    31    1
    23    31    32    1
    24    32    33    1
    25    33    34    1
    26    34    35    1
    27    28    29    1
    28    10    11   ar
    29    13    14   ar
    30    14    15   ar
    31    15    16   ar
    32    16    17    1
    33    22    23   ar
    34    23    24   ar
    35    24    19   ar
    36    16    12   ar
    37    11     1   ar
    38    11     5   ar
    39    29    25    1
    40    35    30    1
@<TRIPOS>MOLECULE
*****
 35 40 0 0 0
SMALL
GASTEIGER

@<TRIPOS>ATOM
      1 C          47.9119   12.6188  -22.3256 C.ar    1  UNL1        0.1095
      2 N          47.2315   12.6585  -23.4986 N.ar    1  UNL1       -0.1677
      3 N          45.9476   12.4476  -23.2414 N.ar    1  UNL1       -0.2319
      4 C          44.8889   12.5167  -24.2397 C.3     1  UNL1        0.1554
      5 C          45.7993   12.3020  -21.9169 C.ar    1  UNL1        0.1657
      6 N          44.6328   12.1643  -21.2436 N.ar    1  UNL1       -0.2028
      7 C          44.6825   12.0637  -19.8851 C.ar    1  UNL1        0.1947
      8 I          42.9022   11.8575  -18.7862 I       1  UNL1        0.0015
      9 N          45.8854   12.0740  -19.2331 N.ar    1  UNL1       -0.2066
     10 C          47.0725   12.2088  -19.8990 C.ar    1  UNL1        0.1382
     11 C          47.0108   12.3682  -21.2913 C.ar    1  UNL1        0.0865
     12 C          49.9586   14.1584  -22.6641 C.ar    1  UNL1        0.0809
     13 C          49.3298   12.9931  -22.2429 C.ar    1  UNL1        0.0577
     14 C          50.3499   12.1616  -21.8267 C.ar    1  UNL1        0.1231
     15 N          51.5287   12.7951  -21.9697 N.ar    1  UNL1       -0.1676
     16 N          51.2909   13.9935  -22.4808 N.ar    1  UNL1       -0.2488
     17 C          52.3606   14.9263  -22.8225 C.3     1  UNL1        0.1537
     18 C          47.5215   18.7891  -25.1648 C.3     1  UNL1        0.0310
     19 C          48.1202   17.5630  -24.5426 C.ar    1  UNL1       -0.0218
     20 C          47.6287   17.0766  -23.3230 C.ar    1  UNL1       -0.0042
     21 C          48.2161   15.9608  -22.7204 C.ar    1  UNL1        0.0012
     22 C          49.3209   15.3288  -23.3152 C.ar    1  UNL1        0.0174
     23 C          49.8172   15.8267  -24.5307 C.ar    1  UNL1        0.0012
     24 C          49.2235   16.9363  -25.1386 C.ar    1  UNL1       -0.0042
     25 N          48.3060   12.0844  -19.1726 N.pl3   1  UNL1       -0.2916
     26 C          48.9412   10.7979  -18.9256 C.3     1  UNL1        0.0937
     27 C          49.7421   10.9718  -17.6416 C.3     1  UNL1        0.0391
     28 C          49.9262   12.4863  -17.4749 C.3     1  UNL1        0.0790
     29 C          48.6848   13.0609  -18.1640 C.3     1  UNL1        0.1081
     30 N          50.0281   12.9011  -16.0505 N.3     1  UNL1       -0.2723
     31 C          49.1159   12.1082  -15.1953 C.3     1  UNL1        0.0721
     32 C          49.0362   12.7133  -13.7813 C.3     1  UNL1        0.0174
     33 C          50.3162   13.4678  -13.3933 C.3     1  UNL1        0.0029
     34 C          51.5432   12.8091  -14.0210 C.3     1  UNL1        0.0174
     35 C          51.4274   12.7601  -15.5608 C.3     1  UNL1        0.0721
@<TRIPOS>BOND
     1    18    19    1
     2    19    20   ar
     3    20    21   ar
     4    21    22   ar
     5    22    12    1
     6    12    13   ar
     7    13     1    1
     8     1     2   ar
     9     2     3   ar
    10     3     4    1
    11     3     5   ar
    12     5     6   ar
    13     6     7   ar
    14     7     8    1
    15     7     9   ar
    16     9    10   ar
    17    10    25    1
    18    25    26    1
    19    26    27    1
    20    27    28    1
    21    28    30    1
    22    30    31    1
    23    31    32    1
    24    32    33    1
    25    33    34    1
    26    34    35    1
    27    28    29    1
    28    10    11   ar
    29    13    14   ar
    30    14    15   ar
    31    15    16   ar
    32    16    17    1
    33    22    23   ar
    34    23    24   ar
    35    24    19   ar
    36    16    12   ar
    37    11     1   ar
    38    11     5   ar
    39    29    25    1
    40    35    30    1
