@<TRIPOS>MOLECULE
*****
 35 39 0 0 0
SMALL
GASTEIGER

@<TRIPOS>ATOM
      1 C          48.9470   13.6500  -22.0986 C.2     1  UNL1        0.2512
      2 O          49.8032   13.5037  -21.1837 O.2     1  UNL1       -0.2698
      3 N          47.8836   12.6871  -22.2317 N.am    1  UNL1       -0.2424
      4 C          47.2246   12.1663  -21.0295 C.3     1  UNL1        0.1437
      5 C          47.3928   10.6495  -20.9168 C.3     1  UNL1        0.2269
      6 O          48.7099   10.2393  -21.2760 O.3     1  UNL1       -0.4738
      7 C          49.1859   10.1172  -22.5932 C.ar    1  UNL1        0.1388
      8 C          50.2007    9.1810  -22.8165 C.ar    1  UNL1        0.0367
      9 C          50.7112    8.9670  -24.0965 C.ar    1  UNL1        0.0031
     10 C          50.2188    9.6947  -25.1892 C.ar    1  UNL1        0.0001
     11 C          49.2158   10.6534  -24.9714 C.ar    1  UNL1        0.0031
     12 C          48.7066   10.8953  -23.6826 C.ar    1  UNL1        0.0633
     13 C          47.6901   12.0023  -23.5163 C.3     1  UNL1        0.2658
     14 F          46.4095   11.4835  -23.6111 F       1  UNL1       -0.2095
     15 C          50.7609    9.4658  -26.5523 C.ar    1  UNL1        0.0015
     16 C          50.0778    8.6142  -27.4652 C.ar    1  UNL1        0.0016
     17 C          50.5838    8.3896  -28.7593 C.ar    1  UNL1        0.0206
     18 C          51.7693    9.0261  -29.1109 C.ar    1  UNL1        0.0985
     19 N          52.4277    8.9529  -30.2816 N.ar    1  UNL1       -0.2241
     20 C          53.5039    9.7568  -30.0734 C.ar    1  UNL1        0.1750
     21 N          53.5322   10.3131  -28.8383 N.ar    1  UNL1       -0.3349
     22 C          52.4294    9.8415  -28.2452 C.ar    1  UNL1        0.0757
     23 C          51.9655   10.0920  -26.9570 C.ar    1  UNL1        0.0185
     24 H          54.2506   10.9601  -28.4438 H       1  UNL1        0.1675
     25 C          46.9206   17.7505  -24.1439 C.3     1  UNL1        0.0324
     26 C          48.0907   16.8076  -24.0346 C.ar    1  UNL1       -0.0046
     27 C          47.9961   15.7116  -23.1590 C.ar    1  UNL1        0.0015
     28 C          49.0575   14.8049  -23.0190 C.ar    1  UNL1        0.0534
     29 C          50.2373   15.0202  -23.7425 C.ar    1  UNL1        0.0058
     30 C          50.3500   16.1105  -24.6053 C.ar    1  UNL1        0.0182
     31 C          49.2896   17.0179  -24.7604 C.ar    1  UNL1        0.1018
     32 S          49.4745   18.3935  -25.8677 S.O2    1  UNL1        0.0101
     33 C          48.6077   18.1540  -27.4066 C.3     1  UNL1        0.1816
     34 O          50.9296   18.5875  -26.1890 O.2     1  UNL1       -0.1686
     35 O          48.9360   19.6339  -25.2124 O.2     1  UNL1       -0.1686
@<TRIPOS>BOND
     1    25    26    1
     2    26    27   ar
     3    27    28   ar
     4    28     1    1
     5     1     2    2
     6     1     3   am
     7     3     4    1
     8     4     5    1
     9     5     6    1
    10     6     7    1
    11     7     8   ar
    12     8     9   ar
    13     9    10   ar
    14    10    15    1
    15    15    16   ar
    16    16    17   ar
    17    17    18   ar
    18    18    19   ar
    19    19    20   ar
    20    20    21   ar
    21    21    22   ar
    22    22    23   ar
    23    10    11   ar
    24    11    12   ar
    25    12    13    1
    26    13    14    1
    27    28    29   ar
    28    29    30   ar
    29    30    31   ar
    30    31    32    1
    31    32    33    1
    32    32    34    2
    33    32    35    2
    34    31    26   ar
    35    13     3    1
    36    12     7   ar
    37    23    15   ar
    38    22    18   ar
    39    21    24    1
@<TRIPOS>MOLECULE
*****
 35 39 0 0 0
SMALL
GASTEIGER

@<TRIPOS>ATOM
      1 C          48.5936   13.7928  -22.2625 C.2     1  UNL1        0.2512
      2 O          49.4373   13.7193  -21.3274 O.2     1  UNL1       -0.2698
      3 N          47.5793   12.7764  -22.3804 N.am    1  UNL1       -0.2424
      4 C          46.9216   12.2671  -21.1725 C.3     1  UNL1        0.1437
      5 C          47.1583   10.7649  -21.0026 C.3     1  UNL1        0.2269
      6 O          48.5001   10.4054  -21.3229 O.3     1  UNL1       -0.4738
      7 C          49.0074   10.2602  -22.6260 C.ar    1  UNL1        0.1388
      8 C          50.0691    9.3660  -22.7972 C.ar    1  UNL1        0.0367
      9 C          50.6144    9.1320  -24.0593 C.ar    1  UNL1        0.0031
     10 C          50.1103    9.7970  -25.1860 C.ar    1  UNL1        0.0001
     11 C          49.0593   10.7140  -25.0210 C.ar    1  UNL1        0.0031
     12 C          48.5139   10.9762  -23.7511 C.ar    1  UNL1        0.0633
     13 C          47.4436   12.0388  -23.6430 C.3     1  UNL1        0.2658
     14 F          46.1908   11.4568  -23.7425 F       1  UNL1       -0.2095
     15 C          50.6896    9.5468  -26.5300 C.ar    1  UNL1        0.0015
     16 C          50.0380    8.6710  -27.4430 C.ar    1  UNL1        0.0016
     17 C          50.5794    8.4260  -28.7191 C.ar    1  UNL1        0.0206
     18 C          51.7676    9.0669  -29.0527 C.ar    1  UNL1        0.0985
     19 N          52.4567    8.9773  -30.2044 N.ar    1  UNL1       -0.2241
     20 C          53.5198    9.7954  -29.9845 C.ar    1  UNL1        0.1750
     21 N          53.5111   10.3759  -28.7604 N.ar    1  UNL1       -0.3349
     22 C          52.3977    9.9054  -28.1866 C.ar    1  UNL1        0.0757
     23 C          51.8984   10.1765  -26.9159 C.ar    1  UNL1        0.0185
     24 H          54.2131   11.0374  -28.3604 H       1  UNL1        0.1675
     25 C          50.5053   15.7837  -26.4440 C.3     1  UNL1        0.0324
     26 C          49.5883   15.9147  -25.2557 C.ar    1  UNL1       -0.0046
     27 C          49.5076   14.8481  -24.3433 C.ar    1  UNL1        0.0015
     28 C          48.6681   14.9188  -23.2214 C.ar    1  UNL1        0.0534
     29 C          47.8784   16.0600  -23.0323 C.ar    1  UNL1        0.0058
     30 C          47.9388   17.1207  -23.9363 C.ar    1  UNL1        0.0182
     31 C          48.7834   17.0641  -25.0566 C.ar    1  UNL1        0.1018
     32 S          48.8293   18.4352  -26.1837 S.O2    1  UNL1        0.0101
     33 C          47.8267   19.8037  -25.6371 C.3     1  UNL1        0.1816
     34 O          48.3134   17.9992  -27.5261 O.2     1  UNL1       -0.1686
     35 O          50.2462   18.9160  -26.3231 O.2     1  UNL1       -0.1686
@<TRIPOS>BOND
     1    25    26    1
     2    26    27   ar
     3    27    28   ar
     4    28     1    1
     5     1     2    2
     6     1     3   am
     7     3     4    1
     8     4     5    1
     9     5     6    1
    10     6     7    1
    11     7     8   ar
    12     8     9   ar
    13     9    10   ar
    14    10    15    1
    15    15    16   ar
    16    16    17   ar
    17    17    18   ar
    18    18    19   ar
    19    19    20   ar
    20    20    21   ar
    21    21    22   ar
    22    22    23   ar
    23    10    11   ar
    24    11    12   ar
    25    12    13    1
    26    13    14    1
    27    28    29   ar
    28    29    30   ar
    29    30    31   ar
    30    31    32    1
    31    32    33    1
    32    32    34    2
    33    32    35    2
    34    31    26   ar
    35    13     3    1
    36    12     7   ar
    37    23    15   ar
    38    22    18   ar
    39    21    24    1
@<TRIPOS>MOLECULE
*****
 35 39 0 0 0
SMALL
GASTEIGER

@<TRIPOS>ATOM
      1 C          47.2124   16.2722  -23.3393 C.2     1  UNL1        0.2512
      2 O          46.0403   16.5727  -22.9823 O.2     1  UNL1       -0.2698
      3 N          47.8665   17.0606  -24.3524 N.am    1  UNL1       -0.2424
      4 C          47.7230   18.5201  -24.3380 C.3     1  UNL1        0.1437
      5 C          47.0615   19.0259  -25.6219 C.3     1  UNL1        0.2269
      6 O          45.9882   18.1800  -26.0277 O.3     1  UNL1       -0.4738
      7 C          46.1375   16.9447  -26.6821 C.ar    1  UNL1        0.1388
      8 C          45.0945   16.5423  -27.5227 C.ar    1  UNL1        0.0367
      9 C          45.1699   15.3482  -28.2391 C.ar    1  UNL1        0.0031
     10 C          46.2958   14.5204  -28.1252 C.ar    1  UNL1        0.0001
     11 C          47.3382   14.9047  -27.2660 C.ar    1  UNL1        0.0031
     12 C          47.2666   16.0956  -26.5207 C.ar    1  UNL1        0.0633
     13 C          48.3893   16.3975  -25.5538 C.3     1  UNL1        0.2658
     14 F          49.3463   17.1830  -26.1743 F       1  UNL1       -0.2095
     15 C          46.3768   13.2499  -28.8891 C.ar    1  UNL1        0.0015
     16 C          45.8867   13.1796  -30.2233 C.ar    1  UNL1        0.0016
     17 C          45.9576   11.9797  -30.9558 C.ar    1  UNL1        0.0206
     18 C          46.5204   10.8718  -30.3315 C.ar    1  UNL1        0.0985
     19 N          46.6853    9.6364  -30.8375 N.ar    1  UNL1       -0.2241
     20 C          47.2715    8.9655  -29.8109 C.ar    1  UNL1        0.1750
     21 N          47.4704    9.7292  -28.7096 N.ar    1  UNL1       -0.3349
     22 C          46.9912   10.9292  -29.0567 C.ar    1  UNL1        0.0757
     23 C          46.9416   12.0940  -28.2961 C.ar    1  UNL1        0.0185
     24 H          47.8991    9.4437  -27.8013 H       1  UNL1        0.1675
     25 C          47.4125   11.3404  -22.4787 C.3     1  UNL1        0.0324
     26 C          48.0064   12.7101  -22.2753 C.ar    1  UNL1       -0.0046
     27 C          47.3746   13.8160  -22.8706 C.ar    1  UNL1        0.0015
     28 C          47.8876   15.1124  -22.7133 C.ar    1  UNL1        0.0534
     29 C          49.0650   15.2944  -21.9769 C.ar    1  UNL1        0.0058
     30 C          49.7096   14.2046  -21.3913 C.ar    1  UNL1        0.0182
     31 C          49.1985   12.9046  -21.5340 C.ar    1  UNL1        0.1018
     32 S          50.0504   11.5449  -20.7738 S.O2    1  UNL1        0.0101
     33 C          49.0843   10.7593  -19.4986 C.3     1  UNL1        0.1816
     34 O          51.3224   12.0382  -20.1439 O.2     1  UNL1       -0.1686
     35 O          50.3752   10.5156  -21.8195 O.2     1  UNL1       -0.1686
@<TRIPOS>BOND
     1    25    26    1
     2    26    27   ar
     3    27    28   ar
     4    28     1    1
     5     1     2    2
     6     1     3   am
     7     3     4    1
     8     4     5    1
     9     5     6    1
    10     6     7    1
    11     7     8   ar
    12     8     9   ar
    13     9    10   ar
    14    10    15    1
    15    15    16   ar
    16    16    17   ar
    17    17    18   ar
    18    18    19   ar
    19    19    20   ar
    20    20    21   ar
    21    21    22   ar
    22    22    23   ar
    23    10    11   ar
    24    11    12   ar
    25    12    13    1
    26    13    14    1
    27    28    29   ar
    28    29    30   ar
    29    30    31   ar
    30    31    32    1
    31    32    33    1
    32    32    34    2
    33    32    35    2
    34    31    26   ar
    35    13     3    1
    36    12     7   ar
    37    23    15   ar
    38    22    18   ar
    39    21    24    1
@<TRIPOS>MOLECULE
*****
 35 39 0 0 0
SMALL
GASTEIGER

@<TRIPOS>ATOM
      1 C          50.6250   13.0937  -25.7065 C.2     1  UNL1        0.2512
      2 O          50.2628   12.2501  -26.5718 O.2     1  UNL1       -0.2698
      3 N          51.5544   12.6977  -24.6793 N.am    1  UNL1       -0.2424
      4 C          52.6916   11.8385  -25.0248 C.3     1  UNL1        0.1437
      5 C          52.6421   10.5160  -24.2566 C.3     1  UNL1        0.2269
      6 O          51.3158    9.9977  -24.1890 O.3     1  UNL1       -0.4738
      7 C          50.3145   10.4549  -23.3144 C.ar    1  UNL1        0.1388
      8 C          49.3374    9.5306  -22.9306 C.ar    1  UNL1        0.0367
      9 C          48.3246    9.8848  -22.0397 C.ar    1  UNL1        0.0031
     10 C          48.2622   11.1830  -21.5137 C.ar    1  UNL1        0.0001
     11 C          49.2256   12.1247  -21.9108 C.ar    1  UNL1        0.0031
     12 C          50.2401   11.7879  -22.8252 C.ar    1  UNL1        0.0633
     13 C          51.1879   12.8793  -23.2689 C.3     1  UNL1        0.2658
     14 F          52.3138   12.8814  -22.4626 F       1  UNL1       -0.2095
     15 C          47.1850   11.5597  -20.5639 C.ar    1  UNL1        0.0015
     16 C          47.5075   12.0707  -19.2755 C.ar    1  UNL1        0.0016
     17 C          46.4939   12.4297  -18.3671 C.ar    1  UNL1        0.0206
     18 C          45.1735   12.2672  -18.7723 C.ar    1  UNL1        0.0985
     19 N          44.0576   12.5404  -18.0726 N.ar    1  UNL1       -0.2241
     20 C          43.0672   12.1938  -18.9368 C.ar    1  UNL1        0.1750
     21 N          43.5242   11.7251  -20.1230 N.ar    1  UNL1       -0.3349
     22 C          44.8555   11.7794  -20.0015 C.ar    1  UNL1        0.0757
     23 C          45.8247   11.4123  -20.9309 C.ar    1  UNL1        0.0185
     24 H          42.9637   11.3978  -20.9409 H       1  UNL1        0.1675
     25 C          51.3797   18.0117  -26.2961 C.3     1  UNL1        0.0324
     26 C          50.4238   16.8750  -26.0430 C.ar    1  UNL1       -0.0046
     27 C          50.9300   15.5643  -25.9937 C.ar    1  UNL1        0.0015
     28 C          50.0823   14.4704  -25.7624 C.ar    1  UNL1        0.0534
     29 C          48.7080   14.6938  -25.6111 C.ar    1  UNL1        0.0058
     30 C          48.1900   15.9876  -25.6703 C.ar    1  UNL1        0.0182
     31 C          49.0313   17.0901  -25.8908 C.ar    1  UNL1        0.1018
     32 S          48.3314   18.7203  -25.9608 S.O2    1  UNL1        0.0101
     33 C          46.5886   18.7331  -25.5871 C.3     1  UNL1        0.1816
     34 O          48.5056   19.2827  -27.3434 O.2     1  UNL1       -0.1686
     35 O          49.0320   19.6043  -24.9679 O.2     1  UNL1       -0.1686
@<TRIPOS>BOND
     1    25    26    1
     2    26    27   ar
     3    27    28   ar
     4    28     1    1
     5     1     2    2
     6     1     3   am
     7     3     4    1
     8     4     5    1
     9     5     6    1
    10     6     7    1
    11     7     8   ar
    12     8     9   ar
    13     9    10   ar
    14    10    15    1
    15    15    16   ar
    16    16    17   ar
    17    17    18   ar
    18    18    19   ar
    19    19    20   ar
    20    20    21   ar
    21    21    22   ar
    22    22    23   ar
    23    10    11   ar
    24    11    12   ar
    25    12    13    1
    26    13    14    1
    27    28    29   ar
    28    29    30   ar
    29    30    31   ar
    30    31    32    1
    31    32    33    1
    32    32    34    2
    33    32    35    2
    34    31    26   ar
    35    13     3    1
    36    12     7   ar
    37    23    15   ar
    38    22    18   ar
    39    21    24    1
@<TRIPOS>MOLECULE
*****
 35 39 0 0 0
SMALL
GASTEIGER

@<TRIPOS>ATOM
      1 C          48.3064   12.2337  -24.7916 C.2     1  UNL1        0.2512
      2 O          47.3921   11.3974  -25.0289 O.2     1  UNL1       -0.2698
      3 N          49.6451   11.7645  -24.5397 N.am    1  UNL1       -0.2424
      4 C          50.1897   10.6655  -25.3438 C.3     1  UNL1        0.1437
      5 C          50.5498    9.4627  -24.4689 C.3     1  UNL1        0.2269
      6 O          49.5638    9.2290  -23.4663 O.3     1  UNL1       -0.4738
      7 C          49.4368    9.9616  -22.2732 C.ar    1  UNL1        0.1388
      8 C          48.8857    9.2940  -21.1746 C.ar    1  UNL1        0.0367
      9 C          48.7523    9.9302  -19.9408 C.ar    1  UNL1        0.0031
     10 C          49.1644   11.2605  -19.7785 C.ar    1  UNL1        0.0001
     11 C          49.6979   11.9466  -20.8818 C.ar    1  UNL1        0.0031
     12 C          49.8185   11.3247  -22.1378 C.ar    1  UNL1        0.0633
     13 C          50.3223   12.1552  -23.2966 C.3     1  UNL1        0.2658
     14 F          51.6946   12.0127  -23.4162 F       1  UNL1       -0.2095
     15 C          49.0239   11.9374  -18.4646 C.ar    1  UNL1        0.0015
     16 C          49.7170   11.4451  -17.3234 C.ar    1  UNL1        0.0016
     17 C          49.5898   12.0786  -16.0729 C.ar    1  UNL1        0.0206
     18 C          48.7663   13.1965  -15.9937 C.ar    1  UNL1        0.0985
     19 N          48.4993   13.9480  -14.9105 N.ar    1  UNL1       -0.2241
     20 C          47.6476   14.8885  -15.3981 C.ar    1  UNL1        0.1750
     21 N          47.3844   14.7464  -16.7195 N.ar    1  UNL1       -0.3349
     22 C          48.0996   13.6743  -17.0789 C.ar    1  UNL1        0.0757
     23 C          48.1964   13.0798  -18.3338 C.ar    1  UNL1        0.0185
     24 H          46.7657   15.3389  -17.3165 H       1  UNL1        0.1675
     25 C          47.8300   16.5865  -27.2267 C.3     1  UNL1        0.0324
     26 C          47.7457   15.8156  -25.9349 C.ar    1  UNL1       -0.0046
     27 C          48.0468   14.4423  -25.9464 C.ar    1  UNL1        0.0015
     28 C          47.9821   13.6785  -24.7713 C.ar    1  UNL1        0.0534
     29 C          47.5801   14.2947  -23.5795 C.ar    1  UNL1        0.0058
     30 C          47.2660   15.6537  -23.5559 C.ar    1  UNL1        0.0182
     31 C          47.3377   16.4291  -24.7243 C.ar    1  UNL1        0.1018
     32 S          46.9280   18.1552  -24.6513 S.O2    1  UNL1        0.0101
     33 C          48.2479   19.1970  -25.2424 C.3     1  UNL1        0.1816
     34 O          46.6426   18.5438  -23.2280 O.2     1  UNL1       -0.1686
     35 O          45.7114   18.4127  -25.4950 O.2     1  UNL1       -0.1686
@<TRIPOS>BOND
     1    25    26    1
     2    26    27   ar
     3    27    28   ar
     4    28     1    1
     5     1     2    2
     6     1     3   am
     7     3     4    1
     8     4     5    1
     9     5     6    1
    10     6     7    1
    11     7     8   ar
    12     8     9   ar
    13     9    10   ar
    14    10    15    1
    15    15    16   ar
    16    16    17   ar
    17    17    18   ar
    18    18    19   ar
    19    19    20   ar
    20    20    21   ar
    21    21    22   ar
    22    22    23   ar
    23    10    11   ar
    24    11    12   ar
    25    12    13    1
    26    13    14    1
    27    28    29   ar
    28    29    30   ar
    29    30    31   ar
    30    31    32    1
    31    32    33    1
    32    32    34    2
    33    32    35    2
    34    31    26   ar
    35    13     3    1
    36    12     7   ar
    37    23    15   ar
    38    22    18   ar
    39    21    24    1
@<TRIPOS>MOLECULE
*****
 35 39 0 0 0
SMALL
GASTEIGER

@<TRIPOS>ATOM
      1 C          46.2165   13.3168  -24.1471 C.2     1  UNL1        0.2512
      2 O          44.9576   13.2697  -24.2154 O.2     1  UNL1       -0.2698
      3 N          46.9398   14.1936  -25.0323 N.am    1  UNL1       -0.2424
      4 C          46.4183   15.5369  -25.3051 C.3     1  UNL1        0.1437
      5 C          46.1195   15.7249  -26.7941 C.3     1  UNL1        0.2269
      6 O          45.5111   14.5655  -27.3578 O.3     1  UNL1       -0.4738
      7 C          46.1941   13.3918  -27.7214 C.ar    1  UNL1        0.1388
      8 C          45.6421   12.6321  -28.7580 C.ar    1  UNL1        0.0367
      9 C          46.2683   11.4706  -29.2090 C.ar    1  UNL1        0.0031
     10 C          47.4665   11.0360  -28.6247 C.ar    1  UNL1        0.0001
     11 C          48.0166   11.7796  -27.5678 C.ar    1  UNL1        0.0031
     12 C          47.3848   12.9412  -27.0881 C.ar    1  UNL1        0.0633
     13 C          47.9929   13.6386  -25.8922 C.3     1  UNL1        0.2658
     14 F          48.8584   14.6329  -26.3170 F       1  UNL1       -0.2095
     15 C          48.1342    9.8002  -29.1059 C.ar    1  UNL1        0.0015
     16 C          49.1890    9.2122  -28.3531 C.ar    1  UNL1        0.0016
     17 C          49.8295    8.0414  -28.8009 C.ar    1  UNL1        0.0206
     18 C          49.3966    7.4840  -29.9992 C.ar    1  UNL1        0.0985
     19 N          49.8631    6.3802  -30.6103 N.ar    1  UNL1       -0.2241
     20 C          49.0923    6.3052  -31.7275 C.ar    1  UNL1        0.1750
     21 N          48.1836    7.3053  -31.8255 N.ar    1  UNL1       -0.3349
     22 C          48.3895    8.0390  -30.7257 C.ar    1  UNL1        0.0757
     23 C          47.7285    9.1953  -30.3209 C.ar    1  UNL1        0.0185
     24 H          47.4852    7.4637  -32.5854 H       1  UNL1        0.1675
     25 C          49.2774    9.4712  -23.1744 C.3     1  UNL1        0.0324
     26 C          48.4108   10.5915  -22.6606 C.ar    1  UNL1       -0.0046
     27 C          47.7408   11.4079  -23.5886 C.ar    1  UNL1        0.0015
     28 C          46.9230   12.4653  -23.1627 C.ar    1  UNL1        0.0534
     29 C          46.8030   12.7241  -21.7914 C.ar    1  UNL1        0.0058
     30 C          47.4721   11.9302  -20.8598 C.ar    1  UNL1        0.0182
     31 C          48.2847   10.8630  -21.2753 C.ar    1  UNL1        0.1018
     32 S          49.1201    9.8779  -20.0571 S.O2    1  UNL1        0.0101
     33 C          49.4901   10.7937  -18.5735 C.3     1  UNL1        0.1816
     34 O          50.4203    9.3782  -20.6210 O.2     1  UNL1       -0.1686
     35 O          48.2528    8.7087  -19.6845 O.2     1  UNL1       -0.1686
@<TRIPOS>BOND
     1    25    26    1
     2    26    27   ar
     3    27    28   ar
     4    28     1    1
     5     1     2    2
     6     1     3   am
     7     3     4    1
     8     4     5    1
     9     5     6    1
    10     6     7    1
    11     7     8   ar
    12     8     9   ar
    13     9    10   ar
    14    10    15    1
    15    15    16   ar
    16    16    17   ar
    17    17    18   ar
    18    18    19   ar
    19    19    20   ar
    20    20    21   ar
    21    21    22   ar
    22    22    23   ar
    23    10    11   ar
    24    11    12   ar
    25    12    13    1
    26    13    14    1
    27    28    29   ar
    28    29    30   ar
    29    30    31   ar
    30    31    32    1
    31    32    33    1
    32    32    34    2
    33    32    35    2
    34    31    26   ar
    35    13     3    1
    36    12     7   ar
    37    23    15   ar
    38    22    18   ar
    39    21    24    1
@<TRIPOS>MOLECULE
*****
 35 39 0 0 0
SMALL
GASTEIGER

@<TRIPOS>ATOM
      1 C          49.2184   12.3391  -25.8361 C.2     1  UNL1        0.2512
      2 O          48.4545   11.4754  -26.3482 O.2     1  UNL1       -0.2698
      3 N          50.5651   11.9698  -25.4816 N.am    1  UNL1       -0.2424
      4 C          51.3401   11.1095  -26.3816 C.3     1  UNL1        0.1437
      5 C          51.7412    9.8033  -25.6928 C.3     1  UNL1        0.2269
      6 O          50.6778    9.2795  -24.9009 O.3     1  UNL1       -0.4738
      7 C          50.3130    9.7498  -23.6272 C.ar    1  UNL1        0.1388
      8 C          49.7214    8.8287  -22.7566 C.ar    1  UNL1        0.0367
      9 C          49.3577    9.1963  -21.4614 C.ar    1  UNL1        0.0031
     10 C          49.5733   10.5050  -21.0067 C.ar    1  UNL1        0.0001
     11 C          50.1457   11.4432  -21.8811 C.ar    1  UNL1        0.0031
     12 C          50.4978   11.0925  -23.1971 C.ar    1  UNL1        0.0633
     13 C          51.0293   12.1793  -24.1042 C.3     1  UNL1        0.2658
     14 F          52.4128   12.2044  -24.0480 F       1  UNL1       -0.2095
     15 C          49.1875   10.8960  -19.6273 C.ar    1  UNL1        0.0015
     16 C          47.8191   11.0959  -19.2918 C.ar    1  UNL1        0.0016
     17 C          47.4428   11.4679  -17.9875 C.ar    1  UNL1        0.0206
     18 C          48.4514   11.6327  -17.0443 C.ar    1  UNL1        0.0985
     19 N          48.3217   11.9842  -15.7524 N.ar    1  UNL1       -0.2241
     20 C          49.6078   11.9969  -15.3125 C.ar    1  UNL1        0.1750
     21 N          50.5098   11.6717  -16.2697 N.ar    1  UNL1       -0.3349
     22 C          49.7620   11.4441  -17.3556 C.ar    1  UNL1        0.0757
     23 C          50.1790   11.0759  -18.6316 C.ar    1  UNL1        0.0185
     24 H          51.5483   11.6131  -16.1776 H       1  UNL1        0.1675
     25 C          49.5652   17.2669  -26.6726 C.3     1  UNL1        0.0324
     26 C          48.8613   16.1205  -25.9942 C.ar    1  UNL1       -0.0046
     27 C          49.3324   14.8139  -26.2121 C.ar    1  UNL1        0.0015
     28 C          48.7119   13.7114  -25.6055 C.ar    1  UNL1        0.0534
     29 C          47.5875   13.9220  -24.7974 C.ar    1  UNL1        0.0058
     30 C          47.1013   15.2118  -24.5826 C.ar    1  UNL1        0.0182
     31 C          47.7214   16.3227  -25.1767 C.ar    1  UNL1        0.1018
     32 S          47.0700   17.9473  -24.8787 S.O2    1  UNL1        0.0101
     33 C          46.4010   18.1253  -23.2363 C.3     1  UNL1        0.1816
     34 O          45.9637   18.2316  -25.8552 O.2     1  UNL1       -0.1686
     35 O          48.1655   18.9610  -25.0531 O.2     1  UNL1       -0.1686
@<TRIPOS>BOND
     1    25    26    1
     2    26    27   ar
     3    27    28   ar
     4    28     1    1
     5     1     2    2
     6     1     3   am
     7     3     4    1
     8     4     5    1
     9     5     6    1
    10     6     7    1
    11     7     8   ar
    12     8     9   ar
    13     9    10   ar
    14    10    15    1
    15    15    16   ar
    16    16    17   ar
    17    17    18   ar
    18    18    19   ar
    19    19    20   ar
    20    20    21   ar
    21    21    22   ar
    22    22    23   ar
    23    10    11   ar
    24    11    12   ar
    25    12    13    1
    26    13    14    1
    27    28    29   ar
    28    29    30   ar
    29    30    31   ar
    30    31    32    1
    31    32    33    1
    32    32    34    2
    33    32    35    2
    34    31    26   ar
    35    13     3    1
    36    12     7   ar
    37    23    15   ar
    38    22    18   ar
    39    21    24    1
@<TRIPOS>MOLECULE
*****
 35 39 0 0 0
SMALL
GASTEIGER

@<TRIPOS>ATOM
      1 C          50.0822   14.3438  -22.3357 C.2     1  UNL1        0.2512
      2 O          51.3287   14.2485  -22.1657 O.2     1  UNL1       -0.2698
      3 N          49.2120   13.3537  -21.7542 N.am    1  UNL1       -0.2424
      4 C          49.4805   12.8610  -20.3991 C.3     1  UNL1        0.1437
      5 C          49.7412   11.3532  -20.3979 C.3     1  UNL1        0.2269
      6 O          50.5511   10.9596  -21.5031 O.3     1  UNL1       -0.4738
      7 C          50.0934   10.8020  -22.8231 C.ar    1  UNL1        0.1388
      8 C          50.7754    9.8810  -23.6249 C.ar    1  UNL1        0.0367
      9 C          50.3715    9.6336  -24.9365 C.ar    1  UNL1        0.0031
     10 C          49.2720   10.3116  -25.4819 C.ar    1  UNL1        0.0001
     11 C          48.5948   11.2551  -24.6921 C.ar    1  UNL1        0.0031
     12 C          49.0041   11.5307  -23.3747 C.ar    1  UNL1        0.0633
     13 C          48.2783   12.6203  -22.6183 C.3     1  UNL1        0.2658
     14 F          47.2466   12.0705  -21.8757 F       1  UNL1       -0.2095
     15 C          48.8409   10.0471  -26.8778 C.ar    1  UNL1        0.0015
     16 C          49.4930    9.0499  -27.6559 C.ar    1  UNL1        0.0016
     17 C          49.0929    8.7921  -28.9806 C.ar    1  UNL1        0.0206
     18 C          48.0435    9.5436  -29.4983 C.ar    1  UNL1        0.0985
     19 N          47.5046    9.4680  -30.7284 N.ar    1  UNL1       -0.2241
     20 C          46.5324   10.4173  -30.6909 C.ar    1  UNL1        0.1750
     21 N          46.4539   11.0640  -29.5030 N.ar    1  UNL1       -0.3349
     22 C          47.4144   10.4990  -28.7624 C.ar    1  UNL1        0.0757
     23 C          47.7766   10.7868  -27.4495 C.ar    1  UNL1        0.0185
     24 H          45.7946   11.8270  -29.2316 H       1  UNL1        0.1675
     25 C          46.4949   17.7536  -23.1155 C.3     1  UNL1        0.0324
     26 C          47.8036   17.1387  -23.5391 C.ar    1  UNL1       -0.0046
     27 C          48.3263   16.0746  -22.7834 C.ar    1  UNL1        0.0015
     28 C          49.5418   15.4679  -23.1341 C.ar    1  UNL1        0.0534
     29 C          50.2541   15.9569  -24.2365 C.ar    1  UNL1        0.0058
     30 C          49.7538   17.0204  -24.9878 C.ar    1  UNL1        0.0182
     31 C          48.5332   17.6276  -24.6513 C.ar    1  UNL1        0.1018
     32 S          47.9325   18.9797  -25.6329 S.O2    1  UNL1        0.0101
     33 C          48.8954   19.2322  -27.1115 C.3     1  UNL1        0.1816
     34 O          47.9897   20.2481  -24.8291 O.2     1  UNL1       -0.1686
     35 O          46.5114   18.7062  -26.0378 O.2     1  UNL1       -0.1686
@<TRIPOS>BOND
     1    25    26    1
     2    26    27   ar
     3    27    28   ar
     4    28     1    1
     5     1     2    2
     6     1     3   am
     7     3     4    1
     8     4     5    1
     9     5     6    1
    10     6     7    1
    11     7     8   ar
    12     8     9   ar
    13     9    10   ar
    14    10    15    1
    15    15    16   ar
    16    16    17   ar
    17    17    18   ar
    18    18    19   ar
    19    19    20   ar
    20    20    21   ar
    21    21    22   ar
    22    22    23   ar
    23    10    11   ar
    24    11    12   ar
    25    12    13    1
    26    13    14    1
    27    28    29   ar
    28    29    30   ar
    29    30    31   ar
    30    31    32    1
    31    32    33    1
    32    32    34    2
    33    32    35    2
    34    31    26   ar
    35    13     3    1
    36    12     7   ar
    37    23    15   ar
    38    22    18   ar
    39    21    24    1
@<TRIPOS>MOLECULE
*****
 35 39 0 0 0
SMALL
GASTEIGER

@<TRIPOS>ATOM
      1 C          50.1254   15.2213  -24.6402 C.2     1  UNL1        0.2512
      2 O          51.1201   15.9968  -24.6678 O.2     1  UNL1       -0.2698
      3 N          50.1108   14.1239  -23.7067 N.am    1  UNL1       -0.2424
      4 C          50.6037   14.3295  -22.3408 C.3     1  UNL1        0.1437
      5 C          51.7945   13.4178  -22.0369 C.3     1  UNL1        0.2269
      6 O          52.6899   13.3376  -23.1432 O.3     1  UNL1       -0.4738
      7 C          52.4832   12.5562  -24.2936 C.ar    1  UNL1        0.1388
      8 C          53.6232   12.1037  -24.9660 C.ar    1  UNL1        0.0367
      9 C          53.5158   11.2947  -26.0969 C.ar    1  UNL1        0.0031
     10 C          52.2564   10.9226  -26.5880 C.ar    1  UNL1        0.0001
     11 C          51.1055   11.3908  -25.9331 C.ar    1  UNL1        0.0031
     12 C          51.1981   12.2250  -24.8042 C.ar    1  UNL1        0.0633
     13 C          49.9152   12.7570  -24.2065 C.3     1  UNL1        0.2658
     14 F          49.4847   11.9175  -23.1927 F       1  UNL1       -0.2095
     15 C          52.1420   10.0600  -27.7910 C.ar    1  UNL1        0.0015
     16 C          53.2090    9.9890  -28.7300 C.ar    1  UNL1        0.0016
     17 C          53.1103    9.1754  -29.8744 C.ar    1  UNL1        0.0206
     18 C          51.9385    8.4481  -30.0531 C.ar    1  UNL1        0.0985
     19 N          51.6307    7.6175  -31.0654 N.ar    1  UNL1       -0.2241
     20 C          50.3824    7.1911  -30.7371 C.ar    1  UNL1        0.1750
     21 N          49.9177    7.7196  -29.5794 N.ar    1  UNL1       -0.3349
     22 C          50.9132    8.5097  -29.1613 C.ar    1  UNL1        0.0757
     23 C          50.9680    9.3002  -28.0168 C.ar    1  UNL1        0.0185
     24 H          48.9949    7.5477  -29.1220 H       1  UNL1        0.1675
     25 C          45.3874   14.3143  -25.9938 C.3     1  UNL1        0.0324
     26 C          46.6901   15.0244  -26.2561 C.ar    1  UNL1       -0.0046
     27 C          47.7641   14.8145  -25.3735 C.ar    1  UNL1        0.0015
     28 C          48.9978   15.4526  -25.5718 C.ar    1  UNL1        0.0534
     29 C          49.1429   16.3349  -26.6498 C.ar    1  UNL1        0.0058
     30 C          48.0818   16.5626  -27.5264 C.ar    1  UNL1        0.0182
     31 C          46.8464   15.9208  -27.3427 C.ar    1  UNL1        0.1018
     32 S          45.5210   16.2396  -28.4803 S.O2    1  UNL1        0.0101
     33 C          44.1397   17.0602  -27.7086 C.3     1  UNL1        0.1816
     34 O          45.0216   14.9402  -29.0463 O.2     1  UNL1       -0.1686
     35 O          46.0235   17.1122  -29.5958 O.2     1  UNL1       -0.1686
@<TRIPOS>BOND
     1    25    26    1
     2    26    27   ar
     3    27    28   ar
     4    28     1    1
     5     1     2    2
     6     1     3   am
     7     3     4    1
     8     4     5    1
     9     5     6    1
    10     6     7    1
    11     7     8   ar
    12     8     9   ar
    13     9    10   ar
    14    10    15    1
    15    15    16   ar
    16    16    17   ar
    17    17    18   ar
    18    18    19   ar
    19    19    20   ar
    20    20    21   ar
    21    21    22   ar
    22    22    23   ar
    23    10    11   ar
    24    11    12   ar
    25    12    13    1
    26    13    14    1
    27    28    29   ar
    28    29    30   ar
    29    30    31   ar
    30    31    32    1
    31    32    33    1
    32    32    34    2
    33    32    35    2
    34    31    26   ar
    35    13     3    1
    36    12     7   ar
    37    23    15   ar
    38    22    18   ar
    39    21    24    1
