@<TRIPOS>MOLECULE
*****
 49 54 0 0 0
SMALL
GASTEIGER

@<TRIPOS>ATOM
      1 O          -8.9773  -11.7883   31.5143 O.2     1  UNL1       -0.2701
      2 C          -9.4539  -11.9202   30.3537 C.2     1  UNL1        0.2483
      3 N         -10.6366  -11.1965   29.9812 N.am    1  UNL1       -0.2945
      4 H         -10.8631  -11.0990   28.9658 H       1  UNL1        0.1501
      5 C          -8.7643  -12.7959   29.3807 C.ar    1  UNL1        0.0808
      6 C          -9.4946  -13.7735   28.6864 C.ar    1  UNL1        0.0080
      7 C          -8.8616  -14.6159   27.7689 C.ar    1  UNL1        0.0148
      8 C          -7.4841  -14.4945   27.5198 C.ar    1  UNL1        0.0502
      9 C          -6.7579  -13.5003   28.1987 C.ar    1  UNL1        0.0443
     10 C          -7.3888  -12.6563   29.1174 C.ar    1  UNL1        0.1457
     11 F          -6.6625  -11.6713   29.7025 F       1  UNL1       -0.2040
     12 N          -6.8309  -15.3625   26.5680 N.pl3   1  UNL1       -0.3040
     13 C          -7.5636  -15.8493   25.3872 C.3     1  UNL1        0.1122
     14 C          -6.6252  -15.9905   24.1801 C.3     1  UNL1        0.1122
     15 N          -5.3483  -16.6198   24.5489 N.pl3   1  UNL1       -0.3041
     16 C          -5.1184  -17.0414   25.9352 C.3     1  UNL1        0.1122
     17 C          -5.4958  -15.9012   26.8816 C.3     1  UNL1        0.1122
     18 C          -4.3020  -16.7320   23.5660 C.ar    1  UNL1        0.0479
     19 C          -4.1925  -15.7861   22.5344 C.ar    1  UNL1        0.0145
     20 C          -3.1857  -15.9007   21.5719 C.ar    1  UNL1        0.0051
     21 C          -2.2589  -16.9553   21.6322 C.ar    1  UNL1        0.0715
     22 C          -2.3894  -17.9190   22.6468 C.ar    1  UNL1        0.0051
     23 C          -3.3974  -17.8043   23.6085 C.ar    1  UNL1        0.0145
     24 C          -1.2035  -17.1070   20.5659 C.3     1  UNL1        0.4186
     25 F          -0.3564  -16.0122   20.5574 F       1  UNL1       -0.1659
     26 F          -0.4419  -18.2409   20.7899 F       1  UNL1       -0.1659
     27 F          -1.8160  -17.2123   19.3312 F       1  UNL1       -0.1659
     28 C         -11.4320  -10.4489   30.9599 C.3     1  UNL1        0.1535
     29 C         -11.9918  -11.3929   31.9896 C.2     1  UNL1        0.2443
     30 O         -12.5745  -10.9213   33.0035 O.2     1  UNL1       -0.2730
     31 N         -11.8966  -12.8148   31.7988 N.am    1  UNL1       -0.2825
     32 H         -11.6645  -13.1662   30.8424 H       1  UNL1        0.1549
     33 C         -12.2058  -13.7858   32.8127 C.ar    1  UNL1        0.0535
     34 C         -13.2621  -14.6998   32.6586 C.ar    1  UNL1        0.0353
     35 C         -13.5417  -15.6082   33.6827 C.ar    1  UNL1        0.1002
     36 N         -12.8057  -15.5968   34.8253 N.ar    1  UNL1       -0.2422
     37 C         -11.7908  -14.7116   35.0093 C.ar    1  UNL1        0.1002
     38 C         -11.4789  -13.7856   34.0110 C.ar    1  UNL1        0.0353
     39 C         -10.5859   -9.3596   31.6430 C.3     1  UNL1        0.0569
     40 C         -11.0772   -7.9857   31.2857 C.ar    1  UNL1       -0.0017
     41 C         -12.4000   -7.5536   31.3027 C.ar    1  UNL1        0.0681
     42 N         -12.4896   -6.2877   30.8355 N.ar    1  UNL1       -0.3523
     43 C         -11.2369   -5.9199   30.5152 C.ar    1  UNL1        0.0563
     44 C         -10.8282   -4.7045   29.9679 C.ar    1  UNL1        0.0170
     45 C          -9.4604   -4.5368   29.6858 C.ar    1  UNL1        0.0015
     46 C          -8.5421   -5.5760   29.9529 C.ar    1  UNL1        0.0001
     47 C          -8.9826   -6.7926   30.5046 C.ar    1  UNL1        0.0012
     48 C         -10.3456   -6.9302   30.7742 C.ar    1  UNL1        0.0131
     49 H         -13.3601   -5.7208   30.7297 H       1  UNL1        0.1660
@<TRIPOS>BOND
     1     1     2    2
     2     2     3   am
     3     3    28    1
     4    28    39    1
     5    39    40    1
     6    40    41   ar
     7    41    42   ar
     8    42    43   ar
     9    43    44   ar
    10    44    45   ar
    11    45    46   ar
    12    46    47   ar
    13    47    48   ar
    14    28    29    1
    15    29    30    2
    16    29    31   am
    17    31    33    1
    18    33    34   ar
    19    34    35   ar
    20    35    36   ar
    21    36    37   ar
    22    37    38   ar
    23     2     5    1
    24     5     6   ar
    25     6     7   ar
    26     7     8   ar
    27     8    12    1
    28    12    13    1
    29    13    14    1
    30    14    15    1
    31    15    18    1
    32    18    19   ar
    33    19    20   ar
    34    20    21   ar
    35    21    24    1
    36    24    25    1
    37    24    26    1
    38    24    27    1
    39    21    22   ar
    40    22    23   ar
    41    15    16    1
    42    16    17    1
    43     8     9   ar
    44     9    10   ar
    45    10    11    1
    46    48    40   ar
    47    38    33   ar
    48    10     5   ar
    49    48    43   ar
    50    17    12    1
    51    23    18   ar
    52     3     4    1
    53    42    49    1
    54    31    32    1
@<TRIPOS>MOLECULE
*****
 49 54 0 0 0
SMALL
GASTEIGER

@<TRIPOS>ATOM
      1 O          -8.5756  -10.1594   30.3587 O.2     1  UNL1       -0.2701
      2 C          -8.4112  -11.3748   30.6543 C.2     1  UNL1        0.2483
      3 N          -8.6843  -11.8282   31.9889 N.am    1  UNL1       -0.2945
      4 H          -8.8071  -12.8529   32.1526 H       1  UNL1        0.1501
      5 C          -7.9700  -12.3233   29.6080 C.ar    1  UNL1        0.0808
      6 C          -6.6524  -12.2635   29.1268 C.ar    1  UNL1        0.0080
      7 C          -6.2174  -13.1448   28.1337 C.ar    1  UNL1        0.0148
      8 C          -7.0892  -14.1111   27.6042 C.ar    1  UNL1        0.0502
      9 C          -8.4018  -14.1852   28.1025 C.ar    1  UNL1        0.0443
     10 C          -8.8396  -13.3044   29.0961 C.ar    1  UNL1        0.1457
     11 F         -10.0938  -13.4523   29.5911 F       1  UNL1       -0.2040
     12 N          -6.6379  -15.0248   26.5807 N.pl3   1  UNL1       -0.3040
     13 C          -7.4416  -15.2274   25.3638 C.3     1  UNL1        0.1122
     14 C          -6.5395  -15.4821   24.1476 C.3     1  UNL1        0.1122
     15 N          -5.4506  -16.4199   24.4595 N.pl3   1  UNL1       -0.3041
     16 C          -5.3504  -16.9976   25.8044 C.3     1  UNL1        0.1122
     17 C          -5.4703  -15.8838   26.8452 C.3     1  UNL1        0.1122
     18 C          -4.4409  -16.6903   23.4691 C.ar    1  UNL1        0.0479
     19 C          -3.7485  -17.9116   23.4763 C.ar    1  UNL1        0.0145
     20 C          -2.7589  -18.1707   22.5241 C.ar    1  UNL1        0.0051
     21 C          -2.4541  -17.2190   21.5361 C.ar    1  UNL1        0.0715
     22 C          -3.1257  -15.9846   21.5497 C.ar    1  UNL1        0.0051
     23 C          -4.1145  -15.7257   22.5033 C.ar    1  UNL1        0.0145
     24 C          -1.3525  -17.4783   20.5394 C.3     1  UNL1        0.4186
     25 F          -0.4904  -18.4552   21.0068 F       1  UNL1       -0.1659
     26 F          -1.8767  -17.9063   19.3319 F       1  UNL1       -0.1659
     27 F          -0.6413  -16.3110   20.3334 F       1  UNL1       -0.1659
     28 C          -8.9677  -10.8962   33.0846 C.3     1  UNL1        0.1535
     29 C          -8.1717   -9.6327   32.8977 C.2     1  UNL1        0.2443
     30 O          -8.7810   -8.5395   32.7444 O.2     1  UNL1       -0.2730
     31 N          -6.7348   -9.6681   32.9324 N.am    1  UNL1       -0.2825
     32 H          -6.2753  -10.5186   33.3294 H       1  UNL1        0.1549
     33 C          -5.8928   -8.5654   32.5563 C.ar    1  UNL1        0.0535
     34 C          -5.0004   -7.9763   33.4682 C.ar    1  UNL1        0.0353
     35 C          -4.2208   -6.8893   33.0645 C.ar    1  UNL1        0.1002
     36 N          -4.3367   -6.3971   31.8029 N.ar    1  UNL1       -0.2422
     37 C          -5.2051   -6.9349   30.9061 C.ar    1  UNL1        0.1002
     38 C          -6.0040   -8.0217   31.2693 C.ar    1  UNL1        0.0353
     39 C         -10.4702  -10.5707   33.1585 C.3     1  UNL1        0.0569
     40 C         -11.2976  -11.6923   32.5982 C.ar    1  UNL1       -0.0017
     41 C         -12.0372  -11.6613   31.4196 C.ar    1  UNL1        0.0681
     42 N         -12.7327  -12.8110   31.2678 N.ar    1  UNL1       -0.3523
     43 C         -12.4461  -13.5640   32.3439 C.ar    1  UNL1        0.0563
     44 C         -12.9478  -14.8291   32.6464 C.ar    1  UNL1        0.0170
     45 C         -12.5305  -15.4327   33.8464 C.ar    1  UNL1        0.0015
     46 C         -11.6321  -14.7657   34.7082 C.ar    1  UNL1        0.0001
     47 C         -11.1426  -13.4889   34.3783 C.ar    1  UNL1        0.0012
     48 C         -11.5741  -12.9150   33.1810 C.ar    1  UNL1        0.0131
     49 H         -13.3752  -13.0535   30.4811 H       1  UNL1        0.1660
@<TRIPOS>BOND
     1     1     2    2
     2     2     3   am
     3     3    28    1
     4    28    39    1
     5    39    40    1
     6    40    41   ar
     7    41    42   ar
     8    42    43   ar
     9    43    44   ar
    10    44    45   ar
    11    45    46   ar
    12    46    47   ar
    13    47    48   ar
    14    28    29    1
    15    29    30    2
    16    29    31   am
    17    31    33    1
    18    33    34   ar
    19    34    35   ar
    20    35    36   ar
    21    36    37   ar
    22    37    38   ar
    23     2     5    1
    24     5     6   ar
    25     6     7   ar
    26     7     8   ar
    27     8    12    1
    28    12    13    1
    29    13    14    1
    30    14    15    1
    31    15    18    1
    32    18    19   ar
    33    19    20   ar
    34    20    21   ar
    35    21    24    1
    36    24    25    1
    37    24    26    1
    38    24    27    1
    39    21    22   ar
    40    22    23   ar
    41    15    16    1
    42    16    17    1
    43     8     9   ar
    44     9    10   ar
    45    10    11    1
    46    48    40   ar
    47    38    33   ar
    48    10     5   ar
    49    48    43   ar
    50    17    12    1
    51    23    18   ar
    52     3     4    1
    53    42    49    1
    54    31    32    1
@<TRIPOS>MOLECULE
*****
 49 54 0 0 0
SMALL
GASTEIGER

@<TRIPOS>ATOM
      1 O          -7.9900  -10.4686   31.2891 O.2     1  UNL1       -0.2701
      2 C          -8.8029  -11.2696   30.7513 C.2     1  UNL1        0.2483
      3 N         -10.1925  -11.2240   31.1093 N.am    1  UNL1       -0.2945
      4 H         -10.8856  -11.6881   30.4799 H       1  UNL1        0.1501
      5 C          -8.3148  -12.2241   29.7316 C.ar    1  UNL1        0.0808
      6 C          -6.9824  -12.1531   29.2948 C.ar    1  UNL1        0.0080
      7 C          -6.5031  -13.0399   28.3273 C.ar    1  UNL1        0.0148
      8 C          -7.3445  -14.0230   27.7798 C.ar    1  UNL1        0.0502
      9 C          -8.6722  -14.1081   28.2342 C.ar    1  UNL1        0.0443
     10 C          -9.1544  -13.2218   29.2020 C.ar    1  UNL1        0.1457
     11 F         -10.4228  -13.3801   29.6560 F       1  UNL1       -0.2040
     12 N          -6.8474  -14.9424   26.7829 N.pl3   1  UNL1       -0.3040
     13 C          -7.6636  -15.2625   25.5999 C.3     1  UNL1        0.1122
     14 C          -6.7759  -15.4981   24.3695 C.3     1  UNL1        0.1122
     15 N          -5.6067  -16.3311   24.6882 N.pl3   1  UNL1       -0.3041
     16 C          -5.4249  -16.8385   26.0527 C.3     1  UNL1        0.1122
     17 C          -5.6075  -15.6927   27.0487 C.3     1  UNL1        0.1122
     18 C          -4.6047  -16.5637   23.6806 C.ar    1  UNL1        0.0479
     19 C          -4.4187  -15.6421   22.6381 C.ar    1  UNL1        0.0145
     20 C          -3.4558  -15.8726   21.6518 C.ar    1  UNL1        0.0051
     21 C          -2.6490  -17.0223   21.6986 C.ar    1  UNL1        0.0715
     22 C          -2.8581  -17.9594   22.7248 C.ar    1  UNL1        0.0051
     23 C          -3.8223  -17.7286   23.7103 C.ar    1  UNL1        0.0145
     24 C          -1.6444  -17.2956   20.6077 C.3     1  UNL1        0.4186
     25 F          -0.7446  -16.2494   20.4984 F       1  UNL1       -0.1659
     26 F          -0.9323  -18.4515   20.8776 F       1  UNL1       -0.1659
     27 F          -2.3086  -17.4462   19.4048 F       1  UNL1       -0.1659
     28 C         -10.6827  -10.4064   32.2232 C.3     1  UNL1        0.1535
     29 C         -10.8863   -8.9880   31.7633 C.2     1  UNL1        0.2443
     30 O         -12.0534   -8.5877   31.5034 O.2     1  UNL1       -0.2730
     31 N          -9.7676   -8.0908   31.6593 N.am    1  UNL1       -0.2825
     32 H          -8.8775   -8.3606   32.1358 H       1  UNL1        0.1549
     33 C          -9.8277   -6.7979   31.0339 C.ar    1  UNL1        0.0535
     34 C         -11.0454   -6.1163   30.8685 C.ar    1  UNL1        0.0353
     35 C         -11.0576   -4.8730   30.2309 C.ar    1  UNL1        0.1002
     36 N          -9.9011   -4.3349   29.7616 N.ar    1  UNL1       -0.2422
     37 C          -8.7119   -4.9804   29.8908 C.ar    1  UNL1        0.1002
     38 C          -8.6555   -6.2260   30.5206 C.ar    1  UNL1        0.0353
     39 C         -11.9964  -10.9745   32.7893 C.3     1  UNL1        0.0569
     40 C         -11.7827  -12.3279   33.4051 C.ar    1  UNL1       -0.0017
     41 C         -10.7259  -12.6996   34.2310 C.ar    1  UNL1        0.0681
     42 N         -10.7997  -14.0167   34.5288 N.ar    1  UNL1       -0.3523
     43 C         -11.8880  -14.4817   33.8913 C.ar    1  UNL1        0.0563
     44 C         -12.3613  -15.7931   33.8767 C.ar    1  UNL1        0.0170
     45 C         -13.5142  -16.0680   33.1192 C.ar    1  UNL1        0.0015
     46 C         -14.1606  -15.0383   32.4005 C.ar    1  UNL1        0.0001
     47 C         -13.6603  -13.7240   32.4324 C.ar    1  UNL1        0.0012
     48 C         -12.5148  -13.4811   33.1928 C.ar    1  UNL1        0.0131
     49 H         -10.1337  -14.5619   35.1200 H       1  UNL1        0.1660
@<TRIPOS>BOND
     1     1     2    2
     2     2     3   am
     3     3    28    1
     4    28    39    1
     5    39    40    1
     6    40    41   ar
     7    41    42   ar
     8    42    43   ar
     9    43    44   ar
    10    44    45   ar
    11    45    46   ar
    12    46    47   ar
    13    47    48   ar
    14    28    29    1
    15    29    30    2
    16    29    31   am
    17    31    33    1
    18    33    34   ar
    19    34    35   ar
    20    35    36   ar
    21    36    37   ar
    22    37    38   ar
    23     2     5    1
    24     5     6   ar
    25     6     7   ar
    26     7     8   ar
    27     8    12    1
    28    12    13    1
    29    13    14    1
    30    14    15    1
    31    15    18    1
    32    18    19   ar
    33    19    20   ar
    34    20    21   ar
    35    21    24    1
    36    24    25    1
    37    24    26    1
    38    24    27    1
    39    21    22   ar
    40    22    23   ar
    41    15    16    1
    42    16    17    1
    43     8     9   ar
    44     9    10   ar
    45    10    11    1
    46    48    40   ar
    47    38    33   ar
    48    10     5   ar
    49    48    43   ar
    50    17    12    1
    51    23    18   ar
    52     3     4    1
    53    42    49    1
    54    31    32    1
@<TRIPOS>MOLECULE
*****
 49 54 0 0 0
SMALL
GASTEIGER

@<TRIPOS>ATOM
      1 O          -7.6802  -10.5747   31.3007 O.2     1  UNL1       -0.2701
      2 C          -8.6974  -11.1636   30.8424 C.2     1  UNL1        0.2483
      3 N         -10.0076  -10.7667   31.2752 N.am    1  UNL1       -0.2945
      4 H         -10.8322  -11.0613   30.7051 H       1  UNL1        0.1501
      5 C          -8.5246  -12.2353   29.8371 C.ar    1  UNL1        0.0808
      6 C          -9.6427  -12.9606   29.3955 C.ar    1  UNL1        0.0080
      7 C          -9.5006  -13.9817   28.4524 C.ar    1  UNL1        0.0148
      8 C          -8.2371  -14.2957   27.9241 C.ar    1  UNL1        0.0502
      9 C          -7.1213  -13.5538   28.3499 C.ar    1  UNL1        0.0443
     10 C          -7.2606  -12.5317   29.2936 C.ar    1  UNL1        0.1457
     11 F          -6.1679  -11.8012   29.6288 F       1  UNL1       -0.2040
     12 N          -8.0913  -15.3483   26.9459 N.pl3   1  UNL1       -0.3040
     13 C          -8.2677  -16.7554   27.3421 C.3     1  UNL1        0.1122
     14 C          -8.8916  -17.5716   26.2010 C.3     1  UNL1        0.1122
     15 N          -8.2769  -17.2576   24.9025 N.pl3   1  UNL1       -0.3041
     16 C          -7.1879  -16.2771   24.8310 C.3     1  UNL1        0.1122
     17 C          -7.5873  -15.0180   25.6014 C.3     1  UNL1        0.1122
     18 C          -8.8116  -17.8472   23.7026 C.ar    1  UNL1        0.0479
     19 C          -8.4083  -17.3803   22.4415 C.ar    1  UNL1        0.0145
     20 C          -8.9361  -17.9422   21.2758 C.ar    1  UNL1        0.0051
     21 C          -9.8659  -18.9933   21.3492 C.ar    1  UNL1        0.0715
     22 C         -10.2925  -19.4378   22.6123 C.ar    1  UNL1        0.0051
     23 C          -9.7650  -18.8745   23.7778 C.ar    1  UNL1        0.0145
     24 C         -10.4724  -19.5660   20.0930 C.3     1  UNL1        0.4186
     25 F          -9.5091  -20.2072   19.3333 F       1  UNL1       -0.1659
     26 F         -11.4608  -20.4845   20.4022 F       1  UNL1       -0.1659
     27 F         -11.0262  -18.5422   19.3474 F       1  UNL1       -0.1659
     28 C         -10.2098   -9.8247   32.3803 C.3     1  UNL1        0.1535
     29 C         -10.6130   -8.4804   31.8368 C.2     1  UNL1        0.2443
     30 O         -11.8256   -8.2657   31.5656 O.2     1  UNL1       -0.2730
     31 N          -9.6327   -7.4426   31.6661 N.am    1  UNL1       -0.2825
     32 H          -8.7124   -7.5541   32.1485 H       1  UNL1        0.1549
     33 C          -9.8764   -6.2125   30.9635 C.ar    1  UNL1        0.0535
     34 C         -11.1206   -5.5623   31.0276 C.ar    1  UNL1        0.0353
     35 C         -11.3189   -4.3821   30.3065 C.ar    1  UNL1        0.1002
     36 N         -10.3192   -3.8758   29.5372 N.ar    1  UNL1       -0.2422
     37 C          -9.1123   -4.4936   29.4414 C.ar    1  UNL1        0.1002
     38 C          -8.8727   -5.6763   30.1451 C.ar    1  UNL1        0.0353
     39 C         -11.2779  -10.3431   33.3598 C.3     1  UNL1        0.0569
     40 C         -12.0290  -11.5071   32.7788 C.ar    1  UNL1       -0.0017
     41 C         -12.9395  -11.4580   31.7273 C.ar    1  UNL1        0.0681
     42 N         -13.4947  -12.6744   31.5257 N.ar    1  UNL1       -0.3523
     43 C         -12.9500  -13.4890   32.4460 C.ar    1  UNL1        0.0563
     44 C         -13.2303  -14.8395   32.6491 C.ar    1  UNL1        0.0170
     45 C         -12.5578  -15.5014   33.6923 C.ar    1  UNL1        0.0015
     46 C         -11.6315  -14.8066   34.5009 C.ar    1  UNL1        0.0001
     47 C         -11.3689  -13.4434   34.2741 C.ar    1  UNL1        0.0012
     48 C         -12.0510  -12.8131   33.2316 C.ar    1  UNL1        0.0131
     49 H         -14.2139  -12.9223   30.8105 H       1  UNL1        0.1660
@<TRIPOS>BOND
     1     1     2    2
     2     2     3   am
     3     3    28    1
     4    28    39    1
     5    39    40    1
     6    40    41   ar
     7    41    42   ar
     8    42    43   ar
     9    43    44   ar
    10    44    45   ar
    11    45    46   ar
    12    46    47   ar
    13    47    48   ar
    14    28    29    1
    15    29    30    2
    16    29    31   am
    17    31    33    1
    18    33    34   ar
    19    34    35   ar
    20    35    36   ar
    21    36    37   ar
    22    37    38   ar
    23     2     5    1
    24     5     6   ar
    25     6     7   ar
    26     7     8   ar
    27     8    12    1
    28    12    13    1
    29    13    14    1
    30    14    15    1
    31    15    18    1
    32    18    19   ar
    33    19    20   ar
    34    20    21   ar
    35    21    24    1
    36    24    25    1
    37    24    26    1
    38    24    27    1
    39    21    22   ar
    40    22    23   ar
    41    15    16    1
    42    16    17    1
    43     8     9   ar
    44     9    10   ar
    45    10    11    1
    46    48    40   ar
    47    38    33   ar
    48    10     5   ar
    49    48    43   ar
    50    17    12    1
    51    23    18   ar
    52     3     4    1
    53    42    49    1
    54    31    32    1
@<TRIPOS>MOLECULE
*****
 49 54 0 0 0
SMALL
GASTEIGER

@<TRIPOS>ATOM
      1 O          -8.4275  -11.7799   31.6845 O.2     1  UNL1       -0.2701
      2 C          -8.9068  -11.7595   30.5176 C.2     1  UNL1        0.2483
      3 N          -9.9657  -10.8446   30.1968 N.am    1  UNL1       -0.2945
      4 H         -10.1652  -10.6449   29.1907 H       1  UNL1        0.1501
      5 C          -8.3447  -12.6587   29.4859 C.ar    1  UNL1        0.0808
      6 C          -7.0089  -12.5041   29.0824 C.ar    1  UNL1        0.0080
      7 C          -6.4605  -13.3375   28.1043 C.ar    1  UNL1        0.0148
      8 C          -7.2345  -14.3498   27.5124 C.ar    1  UNL1        0.0502
      9 C          -8.5654  -14.5187   27.9332 C.ar    1  UNL1        0.0443
     10 C          -9.1166  -13.6859   28.9115 C.ar    1  UNL1        0.1457
     11 F         -10.3842  -13.9246   29.3314 F       1  UNL1       -0.2040
     12 N          -6.6660  -15.2141   26.5045 N.pl3   1  UNL1       -0.3040
     13 C          -7.4057  -15.4858   25.2607 C.3     1  UNL1        0.1122
     14 C          -6.4430  -15.6514   24.0760 C.3     1  UNL1        0.1122
     15 N          -5.2831  -16.4855   24.4244 N.pl3   1  UNL1       -0.3041
     16 C          -5.1756  -17.0563   25.7716 C.3     1  UNL1        0.1122
     17 C          -5.4335  -15.9623   26.8083 C.3     1  UNL1        0.1122
     18 C          -4.2197  -16.6577   23.4690 C.ar    1  UNL1        0.0479
     19 C          -4.0155  -15.7083   22.4551 C.ar    1  UNL1        0.0145
     20 C          -2.9923  -15.8803   21.5188 C.ar    1  UNL1        0.0051
     21 C          -2.1431  -16.9978   21.5886 C.ar    1  UNL1        0.0715
     22 C          -2.3688  -17.9632   22.5847 C.ar    1  UNL1        0.0051
     23 C          -3.3933  -17.7910   23.5200 C.ar    1  UNL1        0.0145
     24 C          -1.0710  -17.2088   20.5494 C.3     1  UNL1        0.4186
     25 F          -0.2067  -18.2184   20.9367 F       1  UNL1       -0.1659
     26 F          -1.6313  -17.5622   19.3340 F       1  UNL1       -0.1659
     27 F          -0.3537  -16.0378   20.3913 F       1  UNL1       -0.1659
     28 C         -10.6514  -10.0564   31.2255 C.3     1  UNL1        0.1535
     29 C         -11.3547  -10.9756   32.1874 C.2     1  UNL1        0.2443
     30 O         -11.9549  -10.4830   33.1810 O.2     1  UNL1       -0.2730
     31 N         -11.3738  -12.3942   31.9537 N.am    1  UNL1       -0.2825
     32 H         -11.1152  -12.7371   31.0010 H       1  UNL1        0.1549
     33 C         -11.8294  -13.3624   32.9136 C.ar    1  UNL1        0.0535
     34 C         -11.1651  -13.5548   34.1369 C.ar    1  UNL1        0.0353
     35 C         -11.6295  -14.5262   35.0275 C.ar    1  UNL1        0.1002
     36 N         -12.7074  -15.2888   34.7049 N.ar    1  UNL1       -0.2422
     37 C         -13.3575  -15.1374   33.5209 C.ar    1  UNL1        0.1002
     38 C         -12.9251  -14.1786   32.6015 C.ar    1  UNL1        0.0353
     39 C          -9.6604   -9.1541   31.9822 C.3     1  UNL1        0.0569
     40 C          -9.1686   -8.0349   31.1092 C.ar    1  UNL1       -0.0017
     41 C          -7.9019   -7.9277   30.5426 C.ar    1  UNL1        0.0681
     42 N          -7.7732   -6.7490   29.8924 N.ar    1  UNL1       -0.3523
     43 C          -8.9437   -6.1072   30.0509 C.ar    1  UNL1        0.0563
     44 C          -9.2816   -4.8396   29.5787 C.ar    1  UNL1        0.0170
     45 C         -10.5632   -4.3450   29.8811 C.ar    1  UNL1        0.0015
     46 C         -11.4680   -5.1189   30.6408 C.ar    1  UNL1        0.0001
     47 C         -11.0998   -6.3945   31.1054 C.ar    1  UNL1        0.0012
     48 C          -9.8217   -6.8591   30.7897 C.ar    1  UNL1        0.0131
     49 H          -6.9277   -6.4036   29.3862 H       1  UNL1        0.1660
@<TRIPOS>BOND
     1     1     2    2
     2     2     3   am
     3     3    28    1
     4    28    39    1
     5    39    40    1
     6    40    41   ar
     7    41    42   ar
     8    42    43   ar
     9    43    44   ar
    10    44    45   ar
    11    45    46   ar
    12    46    47   ar
    13    47    48   ar
    14    28    29    1
    15    29    30    2
    16    29    31   am
    17    31    33    1
    18    33    34   ar
    19    34    35   ar
    20    35    36   ar
    21    36    37   ar
    22    37    38   ar
    23     2     5    1
    24     5     6   ar
    25     6     7   ar
    26     7     8   ar
    27     8    12    1
    28    12    13    1
    29    13    14    1
    30    14    15    1
    31    15    18    1
    32    18    19   ar
    33    19    20   ar
    34    20    21   ar
    35    21    24    1
    36    24    25    1
    37    24    26    1
    38    24    27    1
    39    21    22   ar
    40    22    23   ar
    41    15    16    1
    42    16    17    1
    43     8     9   ar
    44     9    10   ar
    45    10    11    1
    46    48    40   ar
    47    38    33   ar
    48    10     5   ar
    49    48    43   ar
    50    17    12    1
    51    23    18   ar
    52     3     4    1
    53    42    49    1
    54    31    32    1
@<TRIPOS>MOLECULE
*****
 49 54 0 0 0
SMALL
GASTEIGER

@<TRIPOS>ATOM
      1 O          -5.0866  -16.1856   21.2753 O.2     1  UNL1       -0.2701
      2 C          -5.7899  -16.8922   22.0484 C.2     1  UNL1        0.2483
      3 N          -6.0931  -18.2506   21.6960 N.am    1  UNL1       -0.2945
      4 H          -6.4332  -18.8963   22.4438 H       1  UNL1        0.1501
      5 C          -6.2645  -16.3178   23.3266 C.ar    1  UNL1        0.0808
      6 C          -5.3331  -15.8372   24.2607 C.ar    1  UNL1        0.0080
      7 C          -5.7595  -15.2978   25.4770 C.ar    1  UNL1        0.0148
      8 C          -7.1285  -15.2205   25.7836 C.ar    1  UNL1        0.0502
      9 C          -8.0616  -15.6812   24.8381 C.ar    1  UNL1        0.0443
     10 C          -7.6376  -16.2215   23.6204 C.ar    1  UNL1        0.1457
     11 F          -8.5735  -16.5960   22.7128 F       1  UNL1       -0.2040
     12 N          -7.5691  -14.6587   27.0391 N.pl3   1  UNL1       -0.3040
     13 C          -6.5930  -14.0578   27.9633 C.3     1  UNL1        0.1122
     14 C          -7.2106  -12.8708   28.7164 C.3     1  UNL1        0.1122
     15 N          -8.5687  -13.1710   29.1939 N.pl3   1  UNL1       -0.3041
     16 C          -9.1540  -14.4921   28.9397 C.3     1  UNL1        0.1122
     17 C          -8.9653  -14.8557   27.4665 C.3     1  UNL1        0.1122
     18 C          -9.3446  -12.1353   29.8253 C.ar    1  UNL1        0.0479
     19 C         -10.6126  -12.4216   30.3557 C.ar    1  UNL1        0.0145
     20 C         -11.3729  -11.4149   30.9571 C.ar    1  UNL1        0.0051
     21 C         -10.8722  -10.1053   31.0537 C.ar    1  UNL1        0.0715
     22 C          -9.6166   -9.8136   30.4940 C.ar    1  UNL1        0.0051
     23 C          -8.8573  -10.8208   29.8916 C.ar    1  UNL1        0.0145
     24 C         -11.7127   -9.0087   31.6579 C.3     1  UNL1        0.4186
     25 F         -12.1159   -9.3505   32.9372 F       1  UNL1       -0.1659
     26 F         -10.9948   -7.8275   31.7322 F       1  UNL1       -0.1659
     27 F         -12.8315   -8.8073   30.8716 F       1  UNL1       -0.1659
     28 C          -5.7770  -18.8006   20.3742 C.3     1  UNL1        0.1535
     29 C          -4.3289  -19.2073   20.3243 C.2     1  UNL1        0.2443
     30 O          -4.0344  -20.4333   20.3288 O.2     1  UNL1       -0.2730
     31 N          -3.2974  -18.2098   20.2337 N.am    1  UNL1       -0.2825
     32 H          -3.5757  -17.2413   19.9569 H       1  UNL1        0.1549
     33 C          -1.8955  -18.4843   20.3940 C.ar    1  UNL1        0.0535
     34 C          -1.4369  -19.4881   21.2640 C.ar    1  UNL1        0.0353
     35 C          -0.0634  -19.7010   21.4066 C.ar    1  UNL1        0.1002
     36 N           0.8219  -18.9320   20.7192 N.ar    1  UNL1       -0.2422
     37 C           0.4071  -17.9418   19.8856 C.ar    1  UNL1        0.1002
     38 C          -0.9572  -17.6948   19.7152 C.ar    1  UNL1        0.0353
     39 C          -6.6780  -20.0049   20.0470 C.3     1  UNL1        0.0569
     40 C          -8.1261  -19.6791   20.2782 C.ar    1  UNL1       -0.0017
     41 C          -9.0223  -19.1922   19.3312 C.ar    1  UNL1        0.0681
     42 N         -10.2170  -18.9243   19.9052 N.ar    1  UNL1       -0.3523
     43 C         -10.0808  -19.2291   21.2073 C.ar    1  UNL1        0.0563
     44 C         -11.0402  -19.0956   22.2100 C.ar    1  UNL1        0.0170
     45 C         -10.6764  -19.4541   23.5206 C.ar    1  UNL1        0.0015
     46 C          -9.3763  -19.9316   23.7971 C.ar    1  UNL1        0.0001
     47 C          -8.4278  -20.0551   22.7658 C.ar    1  UNL1        0.0012
     48 C          -8.8174  -19.6921   21.4752 C.ar    1  UNL1        0.0131
     49 H         -11.0656  -18.5414   19.4323 H       1  UNL1        0.1660
@<TRIPOS>BOND
     1     1     2    2
     2     2     3   am
     3     3    28    1
     4    28    39    1
     5    39    40    1
     6    40    41   ar
     7    41    42   ar
     8    42    43   ar
     9    43    44   ar
    10    44    45   ar
    11    45    46   ar
    12    46    47   ar
    13    47    48   ar
    14    28    29    1
    15    29    30    2
    16    29    31   am
    17    31    33    1
    18    33    34   ar
    19    34    35   ar
    20    35    36   ar
    21    36    37   ar
    22    37    38   ar
    23     2     5    1
    24     5     6   ar
    25     6     7   ar
    26     7     8   ar
    27     8    12    1
    28    12    13    1
    29    13    14    1
    30    14    15    1
    31    15    18    1
    32    18    19   ar
    33    19    20   ar
    34    20    21   ar
    35    21    24    1
    36    24    25    1
    37    24    26    1
    38    24    27    1
    39    21    22   ar
    40    22    23   ar
    41    15    16    1
    42    16    17    1
    43     8     9   ar
    44     9    10   ar
    45    10    11    1
    46    48    40   ar
    47    38    33   ar
    48    10     5   ar
    49    48    43   ar
    50    17    12    1
    51    23    18   ar
    52     3     4    1
    53    42    49    1
    54    31    32    1
@<TRIPOS>MOLECULE
*****
 49 54 0 0 0
SMALL
GASTEIGER

@<TRIPOS>ATOM
      1 O          -5.6563  -10.1064   30.8345 O.2     1  UNL1       -0.2701
      2 C          -6.7788  -10.6816   30.8062 C.2     1  UNL1        0.2483
      3 N          -7.8331  -10.2325   31.6712 N.am    1  UNL1       -0.2945
      4 H          -8.8134  -10.5230   31.4557 H       1  UNL1        0.1501
      5 C          -7.0019  -11.7921   29.8543 C.ar    1  UNL1        0.0808
      6 C          -5.9361  -12.2579   29.0680 C.ar    1  UNL1        0.0080
      7 C          -6.1269  -13.3004   28.1576 C.ar    1  UNL1        0.0148
      8 C          -7.3872  -13.9056   28.0181 C.ar    1  UNL1        0.0502
      9 C          -8.4484  -13.4538   28.8221 C.ar    1  UNL1        0.0443
     10 C          -8.2603  -12.4107   29.7337 C.ar    1  UNL1        0.1457
     11 F          -9.2952  -12.0492   30.5326 F       1  UNL1       -0.2040
     12 N          -7.5829  -14.9863   27.0801 N.pl3   1  UNL1       -0.3040
     13 C          -8.1075  -16.2817   27.5434 C.3     1  UNL1        0.1122
     14 C          -8.9892  -16.9320   26.4676 C.3     1  UNL1        0.1122
     15 N          -8.3856  -16.8329   25.1304 N.pl3   1  UNL1       -0.3041
     16 C          -7.0795  -16.1848   24.9677 C.3     1  UNL1        0.1122
     17 C          -7.0840  -14.8430   25.7011 C.3     1  UNL1        0.1122
     18 C          -9.1242  -17.2907   23.9822 C.ar    1  UNL1        0.0479
     19 C          -8.9599  -16.6645   22.7365 C.ar    1  UNL1        0.0145
     20 C          -9.6856  -17.0987   21.6238 C.ar    1  UNL1        0.0051
     21 C         -10.5781  -18.1787   21.7325 C.ar    1  UNL1        0.0715
     22 C         -10.7651  -18.7838   22.9872 C.ar    1  UNL1        0.0051
     23 C         -10.0397  -18.3480   24.0998 C.ar    1  UNL1        0.0145
     24 C         -11.3976  -18.6153   20.5443 C.3     1  UNL1        0.4186
     25 F         -12.7163  -18.2196   20.6880 F       1  UNL1       -0.1659
     26 F         -10.9035  -18.0566   19.3781 F       1  UNL1       -0.1659
     27 F         -11.3494  -19.9927   20.4396 F       1  UNL1       -0.1659
     28 C          -7.6026   -9.2471   32.7321 C.3     1  UNL1        0.1535
     29 C          -8.0700   -7.8906   32.2781 C.2     1  UNL1        0.2443
     30 O          -7.7468   -6.8729   32.9488 O.2     1  UNL1       -0.2730
     31 N          -8.8429   -7.7547   31.0733 N.am    1  UNL1       -0.2825
     32 H          -8.8571   -8.5598   30.4072 H       1  UNL1        0.1549
     33 C          -9.5084   -6.5442   30.6759 C.ar    1  UNL1        0.0535
     34 C         -10.8383   -6.2800   31.0455 C.ar    1  UNL1        0.0353
     35 C         -11.4520   -5.1015   30.6135 C.ar    1  UNL1        0.1002
     36 N         -10.7711   -4.2249   29.8291 N.ar    1  UNL1       -0.2422
     37 C          -9.4906   -4.4636   29.4407 C.ar    1  UNL1        0.1002
     38 C          -8.8403   -5.6304   29.8494 C.ar    1  UNL1        0.0353
     39 C          -8.3268   -9.6516   34.0286 C.3     1  UNL1        0.0569
     40 C          -9.2713  -10.7950   33.7897 C.ar    1  UNL1       -0.0017
     41 C          -9.0707  -12.1209   34.1625 C.ar    1  UNL1        0.0681
     42 N         -10.0809  -12.8972   33.7093 N.ar    1  UNL1       -0.3523
     43 C         -10.9128  -12.0754   33.0462 C.ar    1  UNL1        0.0563
     44 C         -12.0870  -12.4220   32.3791 C.ar    1  UNL1        0.0170
     45 C         -12.7985  -11.3997   31.7254 C.ar    1  UNL1        0.0015
     46 C         -12.3256  -10.0692   31.7516 C.ar    1  UNL1        0.0001
     47 C         -11.1369   -9.7482   32.4316 C.ar    1  UNL1        0.0012
     48 C         -10.4523  -10.7833   33.0713 C.ar    1  UNL1        0.0131
     49 H         -10.1813  -13.9288   33.8357 H       1  UNL1        0.1660
@<TRIPOS>BOND
     1     1     2    2
     2     2     3   am
     3     3    28    1
     4    28    39    1
     5    39    40    1
     6    40    41   ar
     7    41    42   ar
     8    42    43   ar
     9    43    44   ar
    10    44    45   ar
    11    45    46   ar
    12    46    47   ar
    13    47    48   ar
    14    28    29    1
    15    29    30    2
    16    29    31   am
    17    31    33    1
    18    33    34   ar
    19    34    35   ar
    20    35    36   ar
    21    36    37   ar
    22    37    38   ar
    23     2     5    1
    24     5     6   ar
    25     6     7   ar
    26     7     8   ar
    27     8    12    1
    28    12    13    1
    29    13    14    1
    30    14    15    1
    31    15    18    1
    32    18    19   ar
    33    19    20   ar
    34    20    21   ar
    35    21    24    1
    36    24    25    1
    37    24    26    1
    38    24    27    1
    39    21    22   ar
    40    22    23   ar
    41    15    16    1
    42    16    17    1
    43     8     9   ar
    44     9    10   ar
    45    10    11    1
    46    48    40   ar
    47    38    33   ar
    48    10     5   ar
    49    48    43   ar
    50    17    12    1
    51    23    18   ar
    52     3     4    1
    53    42    49    1
    54    31    32    1
@<TRIPOS>MOLECULE
*****
 49 54 0 0 0
SMALL
GASTEIGER

@<TRIPOS>ATOM
      1 O          -8.2781  -11.7550   31.5780 O.2     1  UNL1       -0.2701
      2 C          -8.8277  -11.8111   30.4438 C.2     1  UNL1        0.2483
      3 N          -9.9624  -10.9791   30.1584 N.am    1  UNL1       -0.2945
      4 H         -10.2355  -10.8323   29.1606 H       1  UNL1        0.1501
      5 C          -8.2711  -12.7125   29.4110 C.ar    1  UNL1        0.0808
      6 C          -6.9419  -12.5490   28.9893 C.ar    1  UNL1        0.0080
      7 C          -6.3989  -13.3844   28.0098 C.ar    1  UNL1        0.0148
      8 C          -7.1715  -14.4074   27.4348 C.ar    1  UNL1        0.0502
      9 C          -8.4953  -14.5850   27.8739 C.ar    1  UNL1        0.0443
     10 C          -9.0412  -13.7503   28.8536 C.ar    1  UNL1        0.1457
     11 F         -10.3011  -13.9971   29.2914 F       1  UNL1       -0.2040
     12 N          -6.6084  -15.2737   26.4255 N.pl3   1  UNL1       -0.3040
     13 C          -7.3514  -15.5415   25.1828 C.3     1  UNL1        0.1122
     14 C          -6.3915  -15.7106   23.9964 C.3     1  UNL1        0.1122
     15 N          -5.2346  -16.5499   24.3424 N.pl3   1  UNL1       -0.3041
     16 C          -5.1273  -17.1219   25.6892 C.3     1  UNL1        0.1122
     17 C          -5.3787  -16.0273   26.7268 C.3     1  UNL1        0.1122
     18 C          -4.1735  -16.7262   23.3851 C.ar    1  UNL1        0.0479
     19 C          -3.3796  -17.8838   23.4104 C.ar    1  UNL1        0.0145
     20 C          -2.3407  -18.0508   22.4906 C.ar    1  UNL1        0.0051
     21 C          -2.0864  -17.0697   21.5171 C.ar    1  UNL1        0.0715
     22 C          -2.8614  -15.8973   21.5134 C.ar    1  UNL1        0.0051
     23 C          -3.8995  -15.7306   22.4345 C.ar    1  UNL1        0.0145
     24 C          -0.9346  -17.2269   20.5566 C.3     1  UNL1        0.4186
     25 F          -1.3765  -17.7150   19.3390 F       1  UNL1       -0.1659
     26 F          -0.3138  -16.0098   20.3346 F       1  UNL1       -0.1659
     27 F          -0.0152  -18.1110   21.0895 F       1  UNL1       -0.1659
     28 C         -10.6350  -10.1965   31.2000 C.3     1  UNL1        0.1535
     29 C         -11.3931  -11.1161   32.1189 C.2     1  UNL1        0.2443
     30 O         -12.0684  -10.6224   33.0624 O.2     1  UNL1       -0.2730
     31 N         -11.3775  -12.5369   31.8989 N.am    1  UNL1       -0.2825
     32 H         -11.0477  -12.8851   30.9704 H       1  UNL1        0.1549
     33 C         -11.8878  -13.5022   32.8339 C.ar    1  UNL1        0.0535
     34 C         -11.5040  -13.4915   34.1857 C.ar    1  UNL1        0.0353
     35 C         -12.0061  -14.4662   35.0518 C.ar    1  UNL1        0.1002
     36 N         -12.8480  -15.4259   34.5853 N.ar    1  UNL1       -0.2422
     37 C         -13.2209  -15.4717   33.2791 C.ar    1  UNL1        0.1002
     38 C         -12.7409  -14.5170   32.3794 C.ar    1  UNL1        0.0353
     39 C          -9.6228   -9.3601   32.0029 C.3     1  UNL1        0.0569
     40 C          -9.0939   -8.2156   31.1862 C.ar    1  UNL1       -0.0017
     41 C          -9.7312   -7.6096   30.1075 C.ar    1  UNL1        0.0681
     42 N          -8.9298   -6.6738   29.5501 N.ar    1  UNL1       -0.3523
     43 C          -7.7890   -6.6897   30.2612 C.ar    1  UNL1        0.0563
     44 C          -6.6503   -5.9144   30.0469 C.ar    1  UNL1        0.0170
     45 C          -5.5507   -6.1101   30.9020 C.ar    1  UNL1        0.0015
     46 C          -5.6124   -7.0661   31.9397 C.ar    1  UNL1        0.0001
     47 C          -6.7742   -7.8354   32.1322 C.ar    1  UNL1        0.0012
     48 C          -7.8495   -7.6192   31.2684 C.ar    1  UNL1        0.0131
     49 H          -9.1496   -6.0749   28.7235 H       1  UNL1        0.1660
@<TRIPOS>BOND
     1     1     2    2
     2     2     3   am
     3     3    28    1
     4    28    39    1
     5    39    40    1
     6    40    41   ar
     7    41    42   ar
     8    42    43   ar
     9    43    44   ar
    10    44    45   ar
    11    45    46   ar
    12    46    47   ar
    13    47    48   ar
    14    28    29    1
    15    29    30    2
    16    29    31   am
    17    31    33    1
    18    33    34   ar
    19    34    35   ar
    20    35    36   ar
    21    36    37   ar
    22    37    38   ar
    23     2     5    1
    24     5     6   ar
    25     6     7   ar
    26     7     8   ar
    27     8    12    1
    28    12    13    1
    29    13    14    1
    30    14    15    1
    31    15    18    1
    32    18    19   ar
    33    19    20   ar
    34    20    21   ar
    35    21    24    1
    36    24    25    1
    37    24    26    1
    38    24    27    1
    39    21    22   ar
    40    22    23   ar
    41    15    16    1
    42    16    17    1
    43     8     9   ar
    44     9    10   ar
    45    10    11    1
    46    48    40   ar
    47    38    33   ar
    48    10     5   ar
    49    48    43   ar
    50    17    12    1
    51    23    18   ar
    52     3     4    1
    53    42    49    1
    54    31    32    1
