@<TRIPOS>MOLECULE
*****
 31 33 0 0 0
SMALL
GASTEIGER

@<TRIPOS>ATOM
      1 C          46.6162   16.0246  -26.4247 C.2     1  UNL1       -0.0222
      2 C          47.1335   14.8803  -25.8936 C.2     1  UNL1       -0.0040
      3 C          48.3376   14.8954  -25.0224 C.ar    1  UNL1       -0.0001
      4 C          48.2300   15.2957  -23.6819 C.ar    1  UNL1        0.0031
      5 C          49.3605   15.3345  -22.8613 C.ar    1  UNL1        0.0369
      6 C          50.6245   14.9850  -23.3757 C.ar    1  UNL1        0.1386
      7 C          50.7298   14.5965  -24.7159 C.ar    1  UNL1        0.0369
      8 C          49.6003   14.5590  -25.5370 C.ar    1  UNL1        0.0031
      9 O          51.7950   15.0058  -22.5989 O.3     1  UNL1       -0.4740
     10 C          52.4609   13.8588  -22.0693 C.3     1  UNL1        0.2226
     11 C          52.4552   13.8884  -20.5356 C.3     1  UNL1        0.1201
     12 N          51.8098   12.6746  -19.9893 N.3     1  UNL1       -0.2672
     13 C          50.3510   12.7503  -20.1715 C.3     1  UNL1        0.0898
     14 C          52.1149   12.5106  -18.5568 C.3     1  UNL1        0.0898
     15 C          46.5005   13.5591  -26.1137 C.ar    1  UNL1       -0.0006
     16 C          45.5896   13.0408  -25.1820 C.ar    1  UNL1       -0.0000
     17 C          44.9665   11.8142  -25.4173 C.ar    1  UNL1       -0.0003
     18 C          45.2335   11.1037  -26.5901 C.ar    1  UNL1       -0.0043
     19 C          46.1247   11.6185  -27.5478 C.ar    1  UNL1       -0.0225
     20 C          46.7485   12.8564  -27.3026 C.ar    1  UNL1       -0.0043
     21 C          46.3991   10.8448  -28.8233 C.3     1  UNL1        0.0224
     22 C          47.7119   10.0593  -28.7201 C.3     1  UNL1        0.0047
     23 C          46.4064   11.7752  -30.0422 C.3     1  UNL1        0.0047
     24 C          47.3718   17.3056  -26.3637 C.ar    1  UNL1       -0.0040
     25 C          48.4469   17.5447  -27.2372 C.ar    1  UNL1       -0.0003
     26 C          49.1523   18.7503  -27.1748 C.ar    1  UNL1       -0.0000
     27 C          48.7974   19.7226  -26.2364 C.ar    1  UNL1       -0.0000
     28 C          47.7391   19.4894  -25.3549 C.ar    1  UNL1       -0.0000
     29 C          47.0316   18.2852  -25.4129 C.ar    1  UNL1       -0.0003
     30 C          45.3974   16.0691  -28.6365 C.3     1  UNL1        0.0050
     31 C          45.2628   16.0512  -27.1141 C.3     1  UNL1        0.0264
@<TRIPOS>BOND
     1    30    31    1
     2    31     1    1
     3     1     2    2
     4     2     3    1
     5     3     4   ar
     6     4     5   ar
     7     5     6   ar
     8     6     9    1
     9     9    10    1
    10    10    11    1
    11    11    12    1
    12    12    13    1
    13    12    14    1
    14     6     7   ar
    15     7     8   ar
    16     2    15    1
    17    15    16   ar
    18    16    17   ar
    19    17    18   ar
    20    18    19   ar
    21    19    21    1
    22    21    22    1
    23    21    23    1
    24    19    20   ar
    25     1    24    1
    26    24    25   ar
    27    25    26   ar
    28    26    27   ar
    29    27    28   ar
    30    28    29   ar
    31     8     3   ar
    32    20    15   ar
    33    29    24   ar
@<TRIPOS>MOLECULE
*****
 31 33 0 0 0
SMALL
GASTEIGER

@<TRIPOS>ATOM
      1 C          47.4763   13.2922  -23.8061 C.2     1  UNL1       -0.0222
      2 C          48.2141   14.3636  -23.3979 C.2     1  UNL1       -0.0040
      3 C          49.2727   14.2371  -22.3623 C.ar    1  UNL1       -0.0001
      4 C          50.5636   13.8229  -22.7241 C.ar    1  UNL1        0.0031
      5 C          51.5593   13.6796  -21.7540 C.ar    1  UNL1        0.0369
      6 C          51.2736   13.9362  -20.3987 C.ar    1  UNL1        0.1386
      7 C          49.9822   14.3387  -20.0403 C.ar    1  UNL1        0.0369
      8 C          48.9861   14.4807  -21.0093 C.ar    1  UNL1        0.0031
      9 O          52.2333   13.8084  -19.3807 O.3     1  UNL1       -0.4740
     10 C          52.4035   12.6680  -18.5380 C.3     1  UNL1        0.2226
     11 C          51.6568   12.8578  -17.2115 C.3     1  UNL1        0.1201
     12 N          50.7860   11.6960  -16.9281 N.3     1  UNL1       -0.2672
     13 C          49.7690   11.5554  -17.9832 C.3     1  UNL1        0.0898
     14 C          50.1179   11.8398  -15.6224 C.3     1  UNL1        0.0898
     15 C          48.0384   15.7082  -23.9944 C.ar    1  UNL1       -0.0006
     16 C          47.0530   16.5801  -23.5095 C.ar    1  UNL1       -0.0000
     17 C          46.9215   17.8605  -24.0495 C.ar    1  UNL1       -0.0003
     18 C          47.7818   18.2871  -25.0642 C.ar    1  UNL1       -0.0043
     19 C          48.7919   17.4366  -25.5463 C.ar    1  UNL1       -0.0225
     20 C          48.9176   16.1471  -24.9959 C.ar    1  UNL1       -0.0043
     21 C          49.7282   17.9134  -26.6403 C.3     1  UNL1        0.0224
     22 C          51.1642   18.0442  -26.1189 C.3     1  UNL1        0.0047
     23 C          49.2392   19.2333  -27.2487 C.3     1  UNL1        0.0047
     24 C          47.5220   12.0039  -23.0617 C.ar    1  UNL1       -0.0040
     25 C          46.7100   11.8007  -21.9325 C.ar    1  UNL1       -0.0003
     26 C          46.7576   10.5881  -21.2380 C.ar    1  UNL1       -0.0000
     27 C          47.6205    9.5728  -21.6581 C.ar    1  UNL1       -0.0000
     28 C          48.4413    9.7697  -22.7712 C.ar    1  UNL1       -0.0000
     29 C          48.3979   10.9806  -23.4681 C.ar    1  UNL1       -0.0003
     30 C          45.0940   13.1929  -24.6396 C.3     1  UNL1        0.0050
     31 C          46.5651   13.3584  -25.0199 C.3     1  UNL1        0.0264
@<TRIPOS>BOND
     1    30    31    1
     2    31     1    1
     3     1     2    2
     4     2     3    1
     5     3     4   ar
     6     4     5   ar
     7     5     6   ar
     8     6     9    1
     9     9    10    1
    10    10    11    1
    11    11    12    1
    12    12    13    1
    13    12    14    1
    14     6     7   ar
    15     7     8   ar
    16     2    15    1
    17    15    16   ar
    18    16    17   ar
    19    17    18   ar
    20    18    19   ar
    21    19    21    1
    22    21    22    1
    23    21    23    1
    24    19    20   ar
    25     1    24    1
    26    24    25   ar
    27    25    26   ar
    28    26    27   ar
    29    27    28   ar
    30    28    29   ar
    31     8     3   ar
    32    20    15   ar
    33    29    24   ar
@<TRIPOS>MOLECULE
*****
 31 33 0 0 0
SMALL
GASTEIGER

@<TRIPOS>ATOM
      1 C          47.1631   13.8100  -23.7015 C.2     1  UNL1       -0.0222
      2 C          48.0055   14.8242  -23.3542 C.2     1  UNL1       -0.0040
      3 C          49.1652   14.6047  -22.4508 C.ar    1  UNL1       -0.0001
      4 C          50.3842   14.1444  -22.9715 C.ar    1  UNL1        0.0031
      5 C          51.4733   13.9138  -22.1267 C.ar    1  UNL1        0.0369
      6 C          51.3547   14.1280  -20.7395 C.ar    1  UNL1        0.1386
      7 C          50.1343   14.5769  -20.2224 C.ar    1  UNL1        0.0369
      8 C          49.0449   14.8061  -21.0662 C.ar    1  UNL1        0.0031
      9 O          52.4143   13.9127  -19.8424 O.3     1  UNL1       -0.4740
     10 C          52.5903   12.7531  -19.0277 C.3     1  UNL1        0.2226
     11 C          51.6866   12.8177  -17.7899 C.3     1  UNL1        0.1201
     12 N          50.7679   11.6590  -17.7493 N.3     1  UNL1       -0.2672
     13 C          50.3687   11.2803  -19.1147 C.3     1  UNL1        0.0898
     14 C          49.5641   11.9640  -16.9558 C.3     1  UNL1        0.0898
     15 C          47.8445   16.1949  -23.8925 C.ar    1  UNL1       -0.0006
     16 C          46.7333   16.9738  -23.5390 C.ar    1  UNL1       -0.0000
     17 C          46.6103   18.2791  -24.0177 C.ar    1  UNL1       -0.0003
     18 C          47.6018   18.8233  -24.8378 C.ar    1  UNL1       -0.0043
     19 C          48.7354   18.0670  -25.1830 C.ar    1  UNL1       -0.0225
     20 C          48.8515   16.7514  -24.6955 C.ar    1  UNL1       -0.0043
     21 C          49.8118   18.6709  -26.0646 C.3     1  UNL1        0.0224
     22 C          49.2190   19.1952  -27.3780 C.3     1  UNL1        0.0047
     23 C          50.9373   17.6638  -26.3298 C.3     1  UNL1        0.0047
     24 C          47.2154   12.4982  -22.9999 C.ar    1  UNL1       -0.0040
     25 C          48.0031   11.4483  -23.5031 C.ar    1  UNL1       -0.0003
     26 C          48.0480   10.2187  -22.8391 C.ar    1  UNL1       -0.0000
     27 C          47.3020   10.0234  -21.6741 C.ar    1  UNL1       -0.0000
     28 C          46.5056   11.0559  -21.1731 C.ar    1  UNL1       -0.0000
     29 C          46.4568   12.2866  -21.8341 C.ar    1  UNL1       -0.0003
     30 C          46.6861   13.5934  -26.1725 C.3     1  UNL1        0.0050
     31 C          46.1257   13.9666  -24.8002 C.3     1  UNL1        0.0264
@<TRIPOS>BOND
     1    30    31    1
     2    31     1    1
     3     1     2    2
     4     2     3    1
     5     3     4   ar
     6     4     5   ar
     7     5     6   ar
     8     6     9    1
     9     9    10    1
    10    10    11    1
    11    11    12    1
    12    12    13    1
    13    12    14    1
    14     6     7   ar
    15     7     8   ar
    16     2    15    1
    17    15    16   ar
    18    16    17   ar
    19    17    18   ar
    20    18    19   ar
    21    19    21    1
    22    21    22    1
    23    21    23    1
    24    19    20   ar
    25     1    24    1
    26    24    25   ar
    27    25    26   ar
    28    26    27   ar
    29    27    28   ar
    30    28    29   ar
    31     8     3   ar
    32    20    15   ar
    33    29    24   ar
@<TRIPOS>MOLECULE
*****
 31 33 0 0 0
SMALL
GASTEIGER

@<TRIPOS>ATOM
      1 C          46.2365   12.2521  -24.7843 C.2     1  UNL1       -0.0222
      2 C          47.0790   12.6609  -25.7753 C.2     1  UNL1       -0.0040
      3 C          48.5550   12.6546  -25.6010 C.ar    1  UNL1       -0.0001
      4 C          49.2572   11.4397  -25.6004 C.ar    1  UNL1        0.0031
      5 C          50.6422   11.4223  -25.4148 C.ar    1  UNL1        0.0369
      6 C          51.3474   12.6248  -25.2120 C.ar    1  UNL1        0.1386
      7 C          50.6424   13.8335  -25.2025 C.ar    1  UNL1        0.0369
      8 C          49.2577   13.8514  -25.3865 C.ar    1  UNL1        0.0031
      9 O          52.7384   12.6686  -25.0195 O.3     1  UNL1       -0.4740
     10 C          53.4138   12.4329  -23.7835 C.3     1  UNL1        0.2226
     11 C          53.1840   13.5956  -22.8096 C.3     1  UNL1        0.1201
     12 N          52.5377   13.1199  -21.5669 N.3     1  UNL1       -0.2672
     13 C          51.0736   13.2095  -21.6906 C.3     1  UNL1        0.0898
     14 C          52.9785   13.9102  -20.4037 C.3     1  UNL1        0.0898
     15 C          46.5777   13.0913  -27.1012 C.ar    1  UNL1       -0.0006
     16 C          46.2490   14.4338  -27.3378 C.ar    1  UNL1       -0.0000
     17 C          45.8168   14.8383  -28.6019 C.ar    1  UNL1       -0.0003
     18 C          45.7255   13.9115  -29.6433 C.ar    1  UNL1       -0.0043
     19 C          46.0743   12.5661  -29.4324 C.ar    1  UNL1       -0.0225
     20 C          46.5095   12.1669  -28.1545 C.ar    1  UNL1       -0.0043
     21 C          45.9826   11.5700  -30.5727 C.3     1  UNL1        0.0224
     22 C          46.9071   10.3705  -30.3327 C.3     1  UNL1        0.0047
     23 C          46.2864   12.2411  -31.9175 C.3     1  UNL1        0.0047
     24 C          46.7377   12.0187  -23.4023 C.ar    1  UNL1       -0.0040
     25 C          46.9215   13.0946  -22.5164 C.ar    1  UNL1       -0.0003
     26 C          47.3924   12.8684  -21.2195 C.ar    1  UNL1       -0.0000
     27 C          47.6917   11.5702  -20.7986 C.ar    1  UNL1       -0.0000
     28 C          47.5252   10.4957  -21.6756 C.ar    1  UNL1       -0.0000
     29 C          47.0556   10.7170  -22.9734 C.ar    1  UNL1       -0.0003
     30 C          43.9185   13.2408  -24.6131 C.3     1  UNL1        0.0050
     31 C          44.7537   12.0304  -25.0297 C.3     1  UNL1        0.0264
@<TRIPOS>BOND
     1    30    31    1
     2    31     1    1
     3     1     2    2
     4     2     3    1
     5     3     4   ar
     6     4     5   ar
     7     5     6   ar
     8     6     9    1
     9     9    10    1
    10    10    11    1
    11    11    12    1
    12    12    13    1
    13    12    14    1
    14     6     7   ar
    15     7     8   ar
    16     2    15    1
    17    15    16   ar
    18    16    17   ar
    19    17    18   ar
    20    18    19   ar
    21    19    21    1
    22    21    22    1
    23    21    23    1
    24    19    20   ar
    25     1    24    1
    26    24    25   ar
    27    25    26   ar
    28    26    27   ar
    29    27    28   ar
    30    28    29   ar
    31     8     3   ar
    32    20    15   ar
    33    29    24   ar
@<TRIPOS>MOLECULE
*****
 31 33 0 0 0
SMALL
GASTEIGER

@<TRIPOS>ATOM
      1 C          48.4333   13.2810  -22.9019 C.2     1  UNL1       -0.0222
      2 C          47.9014   13.8226  -24.0344 C.2     1  UNL1       -0.0040
      3 C          47.3893   12.9748  -25.1426 C.ar    1  UNL1       -0.0001
      4 C          48.2732   12.4750  -26.1110 C.ar    1  UNL1        0.0031
      5 C          47.7976   11.6956  -27.1690 C.ar    1  UNL1        0.0369
      6 C          46.4219   11.4146  -27.2826 C.ar    1  UNL1        0.1386
      7 C          45.5420   11.9237  -26.3209 C.ar    1  UNL1        0.0369
      8 C          46.0166   12.7041  -25.2639 C.ar    1  UNL1        0.0031
      9 O          45.8867   10.6381  -28.3240 O.3     1  UNL1       -0.4740
     10 C          46.5913   10.2168  -29.4925 C.3     1  UNL1        0.2226
     11 C          46.7699   11.3861  -30.4692 C.3     1  UNL1        0.1201
     12 N          45.5599   12.2367  -30.4969 N.3     1  UNL1       -0.2672
     13 C          45.1412   12.4777  -31.8875 C.3     1  UNL1        0.0898
     14 C          45.8040   13.5281  -29.8300 C.3     1  UNL1        0.0898
     15 C          47.7584   15.2867  -24.2096 C.ar    1  UNL1       -0.0006
     16 C          46.6794   15.9718  -23.6328 C.ar    1  UNL1       -0.0000
     17 C          46.5746   17.3571  -23.7679 C.ar    1  UNL1       -0.0003
     18 C          47.5529   18.0713  -24.4640 C.ar    1  UNL1       -0.0043
     19 C          48.6551   17.4056  -25.0281 C.ar    1  UNL1       -0.0225
     20 C          48.7530   16.0084  -24.8867 C.ar    1  UNL1       -0.0043
     21 C          49.7179   18.1916  -25.7721 C.3     1  UNL1        0.0224
     22 C          49.1212   18.9131  -26.9864 C.3     1  UNL1        0.0047
     23 C          50.8850   17.2871  -26.1856 C.3     1  UNL1        0.0047
     24 C          48.7548   11.8295  -22.8264 C.ar    1  UNL1       -0.0040
     25 C          47.8813   10.9355  -22.1833 C.ar    1  UNL1       -0.0003
     26 C          48.1891    9.5732  -22.1163 C.ar    1  UNL1       -0.0000
     27 C          49.3731    9.0933  -22.6816 C.ar    1  UNL1       -0.0000
     28 C          50.2544    9.9754  -23.3113 C.ar    1  UNL1       -0.0000
     29 C          49.9514   11.3383  -23.3799 C.ar    1  UNL1       -0.0003
     30 C          50.2419   14.2987  -21.4620 C.3     1  UNL1        0.0050
     31 C          48.7386   14.1224  -21.6744 C.3     1  UNL1        0.0264
@<TRIPOS>BOND
     1    30    31    1
     2    31     1    1
     3     1     2    2
     4     2     3    1
     5     3     4   ar
     6     4     5   ar
     7     5     6   ar
     8     6     9    1
     9     9    10    1
    10    10    11    1
    11    11    12    1
    12    12    13    1
    13    12    14    1
    14     6     7   ar
    15     7     8   ar
    16     2    15    1
    17    15    16   ar
    18    16    17   ar
    19    17    18   ar
    20    18    19   ar
    21    19    21    1
    22    21    22    1
    23    21    23    1
    24    19    20   ar
    25     1    24    1
    26    24    25   ar
    27    25    26   ar
    28    26    27   ar
    29    27    28   ar
    30    28    29   ar
    31     8     3   ar
    32    20    15   ar
    33    29    24   ar
@<TRIPOS>MOLECULE
*****
 31 33 0 0 0
SMALL
GASTEIGER

@<TRIPOS>ATOM
      1 C          46.2009   12.8578  -25.1612 C.2     1  UNL1       -0.0222
      2 C          47.3189   12.8967  -24.3817 C.2     1  UNL1       -0.0040
      3 C          48.3390   13.9677  -24.5279 C.ar    1  UNL1       -0.0001
      4 C          49.4013   13.8076  -25.4306 C.ar    1  UNL1        0.0031
      5 C          50.3775   14.7995  -25.5586 C.ar    1  UNL1        0.0369
      6 C          50.3131   15.9660  -24.7716 C.ar    1  UNL1        0.1386
      7 C          49.2581   16.1173  -23.8647 C.ar    1  UNL1        0.0369
      8 C          48.2829   15.1256  -23.7353 C.ar    1  UNL1        0.0031
      9 O          51.2654   16.9954  -24.8565 O.3     1  UNL1       -0.4740
     10 C          51.0114   18.3269  -25.3060 C.3     1  UNL1        0.2226
     11 C          50.6751   18.3392  -26.8026 C.3     1  UNL1        0.1201
     12 N          49.2660   18.7329  -27.0211 N.3     1  UNL1       -0.2672
     13 C          48.7008   19.3004  -25.7859 C.3     1  UNL1        0.0898
     14 C          48.4525   17.5794  -27.4450 C.3     1  UNL1        0.0898
     15 C          47.5619   11.9020  -23.3111 C.ar    1  UNL1       -0.0006
     16 C          48.3271   10.7545  -23.5643 C.ar    1  UNL1       -0.0000
     17 C          48.5859    9.8433  -22.5391 C.ar    1  UNL1       -0.0003
     18 C          48.0987   10.0776  -21.2510 C.ar    1  UNL1       -0.0043
     19 C          47.3507   11.2346  -20.9716 C.ar    1  UNL1       -0.0225
     20 C          47.0947   12.1484  -22.0113 C.ar    1  UNL1       -0.0043
     21 C          46.8359   11.4855  -19.5670 C.3     1  UNL1        0.0224
     22 C          45.4054   12.0369  -19.5943 C.3     1  UNL1        0.0047
     23 C          47.7738   12.4209  -18.7944 C.3     1  UNL1        0.0047
     24 C          46.0710   13.7356  -26.3563 C.ar    1  UNL1       -0.0040
     25 C          45.6235   15.0617  -26.2251 C.ar    1  UNL1       -0.0003
     26 C          45.5040   15.8810  -27.3518 C.ar    1  UNL1       -0.0000
     27 C          45.8211   15.3827  -28.6180 C.ar    1  UNL1       -0.0000
     28 C          46.2539   14.0622  -28.7608 C.ar    1  UNL1       -0.0000
     29 C          46.3740   13.2391  -27.6374 C.ar    1  UNL1       -0.0003
     30 C          43.7622   12.6737  -24.5296 C.3     1  UNL1        0.0050
     31 C          45.0464   11.9157  -24.8654 C.3     1  UNL1        0.0264
@<TRIPOS>BOND
     1    30    31    1
     2    31     1    1
     3     1     2    2
     4     2     3    1
     5     3     4   ar
     6     4     5   ar
     7     5     6   ar
     8     6     9    1
     9     9    10    1
    10    10    11    1
    11    11    12    1
    12    12    13    1
    13    12    14    1
    14     6     7   ar
    15     7     8   ar
    16     2    15    1
    17    15    16   ar
    18    16    17   ar
    19    17    18   ar
    20    18    19   ar
    21    19    21    1
    22    21    22    1
    23    21    23    1
    24    19    20   ar
    25     1    24    1
    26    24    25   ar
    27    25    26   ar
    28    26    27   ar
    29    27    28   ar
    30    28    29   ar
    31     8     3   ar
    32    20    15   ar
    33    29    24   ar
@<TRIPOS>MOLECULE
*****
 31 33 0 0 0
SMALL
GASTEIGER

@<TRIPOS>ATOM
      1 C          50.1753   10.4232  -24.1795 C.2     1  UNL1       -0.0222
      2 C          50.1282   11.0593  -25.3846 C.2     1  UNL1       -0.0040
      3 C          49.4197   12.3541  -25.5599 C.ar    1  UNL1       -0.0001
      4 C          48.1067   12.3752  -26.0545 C.ar    1  UNL1        0.0031
      5 C          47.4406   13.5891  -26.2437 C.ar    1  UNL1        0.0369
      6 C          48.0860   14.8070  -25.9527 C.ar    1  UNL1        0.1386
      7 C          49.3991   14.7825  -25.4698 C.ar    1  UNL1        0.0369
      8 C          50.0660   13.5695  -25.2819 C.ar    1  UNL1        0.0031
      9 O          47.4670   16.0566  -26.1237 O.3     1  UNL1       -0.4740
     10 C          47.4361   16.8091  -27.3371 C.3     1  UNL1        0.2226
     11 C          48.5387   17.8755  -27.3421 C.3     1  UNL1        0.1201
     12 N          48.9164   18.2471  -25.9609 N.3     1  UNL1       -0.2672
     13 C          48.2456   19.4981  -25.5710 C.3     1  UNL1        0.0898
     14 C          50.3752   18.4163  -25.8372 C.3     1  UNL1        0.0898
     15 C          50.8191   10.5234  -26.5804 C.ar    1  UNL1       -0.0006
     16 C          52.1166   10.9459  -26.9035 C.ar    1  UNL1       -0.0000
     17 C          52.7760   10.4051  -28.0084 C.ar    1  UNL1       -0.0003
     18 C          52.1542    9.4274  -28.7889 C.ar    1  UNL1       -0.0043
     19 C          50.8636    8.9729  -28.4666 C.ar    1  UNL1       -0.0225
     20 C          50.2059    9.5235  -27.3503 C.ar    1  UNL1       -0.0043
     21 C          50.2016    7.9027  -29.3136 C.3     1  UNL1        0.0224
     22 C          51.0298    7.6022  -30.5686 C.3     1  UNL1        0.0047
     23 C          48.7665    8.2988  -29.6807 C.3     1  UNL1        0.0047
     24 C          49.3147   10.8642  -23.0479 C.ar    1  UNL1       -0.0040
     25 C          49.8516   11.6244  -21.9944 C.ar    1  UNL1       -0.0003
     26 C          49.0376   12.0356  -20.9346 C.ar    1  UNL1       -0.0000
     27 C          47.6853   11.6854  -20.9122 C.ar    1  UNL1       -0.0000
     28 C          47.1450   10.9189  -21.9476 C.ar    1  UNL1       -0.0000
     29 C          47.9551   10.5046  -23.0087 C.ar    1  UNL1       -0.0003
     30 C          50.2999    7.9826  -23.5409 C.3     1  UNL1        0.0050
     31 C          51.0866    9.2330  -23.9333 C.3     1  UNL1        0.0264
@<TRIPOS>BOND
     1    30    31    1
     2    31     1    1
     3     1     2    2
     4     2     3    1
     5     3     4   ar
     6     4     5   ar
     7     5     6   ar
     8     6     9    1
     9     9    10    1
    10    10    11    1
    11    11    12    1
    12    12    13    1
    13    12    14    1
    14     6     7   ar
    15     7     8   ar
    16     2    15    1
    17    15    16   ar
    18    16    17   ar
    19    17    18   ar
    20    18    19   ar
    21    19    21    1
    22    21    22    1
    23    21    23    1
    24    19    20   ar
    25     1    24    1
    26    24    25   ar
    27    25    26   ar
    28    26    27   ar
    29    27    28   ar
    30    28    29   ar
    31     8     3   ar
    32    20    15   ar
    33    29    24   ar
@<TRIPOS>MOLECULE
*****
 31 33 0 0 0
SMALL
GASTEIGER

@<TRIPOS>ATOM
      1 C          48.5343   12.5822  -24.3677 C.2     1  UNL1       -0.0222
      2 C          49.2010   13.6945  -23.9467 C.2     1  UNL1       -0.0040
      3 C          49.9505   13.7200  -22.6635 C.ar    1  UNL1       -0.0001
      4 C          49.3306   14.1931  -21.4970 C.ar    1  UNL1        0.0031
      5 C          50.0344   14.2417  -20.2906 C.ar    1  UNL1        0.0369
      6 C          51.3801   13.8288  -20.2357 C.ar    1  UNL1        0.1386
      7 C          51.9983   13.3676  -21.4033 C.ar    1  UNL1        0.0369
      8 C          51.2957   13.3202  -22.6097 C.ar    1  UNL1        0.0031
      9 O          52.1372   13.8560  -19.0525 O.3     1  UNL1       -0.4740
     10 C          52.3536   12.7469  -18.1792 C.3     1  UNL1        0.2226
     11 C          51.4840   12.8693  -16.9215 C.3     1  UNL1        0.1201
     12 N          50.6326   11.6713  -16.7531 N.3     1  UNL1       -0.2672
     13 C          49.6003   11.6314  -17.8018 C.3     1  UNL1        0.0898
     14 C          49.9843   11.6631  -15.4295 C.3     1  UNL1        0.0898
     15 C          49.2584   14.9290  -24.7636 C.ar    1  UNL1       -0.0006
     16 C          50.2128   15.0666  -25.7817 C.ar    1  UNL1       -0.0000
     17 C          50.2332   16.2157  -26.5739 C.ar    1  UNL1       -0.0003
     18 C          49.2925   17.2278  -26.3684 C.ar    1  UNL1       -0.0043
     19 C          48.3123   17.0974  -25.3692 C.ar    1  UNL1       -0.0225
     20 C          48.2987   15.9351  -24.5751 C.ar    1  UNL1       -0.0043
     21 C          47.2882   18.1969  -25.1617 C.3     1  UNL1        0.0224
     22 C          47.9121   19.5802  -25.3815 C.3     1  UNL1        0.0047
     23 C          46.6436   18.0959  -23.7740 C.3     1  UNL1        0.0047
     24 C          48.3168   11.4288  -23.4522 C.ar    1  UNL1       -0.0040
     25 C          47.2373   11.4233  -22.5518 C.ar    1  UNL1       -0.0003
     26 C          47.0385   10.3366  -21.6948 C.ar    1  UNL1       -0.0000
     27 C          47.9183    9.2517  -21.7226 C.ar    1  UNL1       -0.0000
     28 C          49.0018    9.2532  -22.6043 C.ar    1  UNL1       -0.0000
     29 C          49.2052   10.3378  -23.4622 C.ar    1  UNL1       -0.0003
     30 C          46.4558   12.6787  -25.7997 C.3     1  UNL1        0.0050
     31 C          47.9693   12.4667  -25.7731 C.3     1  UNL1        0.0264
@<TRIPOS>BOND
     1    30    31    1
     2    31     1    1
     3     1     2    2
     4     2     3    1
     5     3     4   ar
     6     4     5   ar
     7     5     6   ar
     8     6     9    1
     9     9    10    1
    10    10    11    1
    11    11    12    1
    12    12    13    1
    13    12    14    1
    14     6     7   ar
    15     7     8   ar
    16     2    15    1
    17    15    16   ar
    18    16    17   ar
    19    17    18   ar
    20    18    19   ar
    21    19    21    1
    22    21    22    1
    23    21    23    1
    24    19    20   ar
    25     1    24    1
    26    24    25   ar
    27    25    26   ar
    28    26    27   ar
    29    27    28   ar
    30    28    29   ar
    31     8     3   ar
    32    20    15   ar
    33    29    24   ar
@<TRIPOS>MOLECULE
*****
 31 33 0 0 0
SMALL
GASTEIGER

@<TRIPOS>ATOM
      1 C          45.7551   13.4256  -24.8250 C.2     1  UNL1       -0.0222
      2 C          46.8193   13.4369  -23.9726 C.2     1  UNL1       -0.0040
      3 C          47.9553   14.3788  -24.1501 C.ar    1  UNL1       -0.0001
      4 C          49.0534   14.0136  -24.9437 C.ar    1  UNL1        0.0031
      5 C          50.1361   14.8836  -25.0982 C.ar    1  UNL1        0.0369
      6 C          50.1430   16.1325  -24.4467 C.ar    1  UNL1        0.1386
      7 C          49.0510   16.4889  -23.6475 C.ar    1  UNL1        0.0369
      8 C          47.9691   15.6190  -23.4915 C.ar    1  UNL1        0.0031
      9 O          51.2031   17.0470  -24.5645 O.3     1  UNL1       -0.4740
     10 C          51.1390   18.3127  -25.2227 C.3     1  UNL1        0.2226
     11 C          50.8456   18.1324  -26.7175 C.3     1  UNL1        0.1201
     12 N          49.4903   18.6235  -27.0497 N.3     1  UNL1       -0.2672
     13 C          48.9007   19.3093  -25.8882 C.3     1  UNL1        0.0898
     14 C          48.6103   17.5150  -27.4605 C.3     1  UNL1        0.0898
     15 C          46.8863   12.5446  -22.7920 C.ar    1  UNL1       -0.0006
     16 C          46.0323   12.7444  -21.6978 C.ar    1  UNL1       -0.0000
     17 C          46.0735   11.8742  -20.6073 C.ar    1  UNL1       -0.0003
     18 C          46.9536   10.7892  -20.6068 C.ar    1  UNL1       -0.0043
     19 C          47.8000   10.5578  -21.7051 C.ar    1  UNL1       -0.0225
     20 C          47.7516   11.4402  -22.8009 C.ar    1  UNL1       -0.0043
     21 C          48.7437    9.3703  -21.6998 C.3     1  UNL1        0.0224
     22 C          49.5981    9.3507  -20.4266 C.3     1  UNL1        0.0047
     23 C          49.6236    9.3591  -22.9555 C.3     1  UNL1        0.0047
     24 C          45.7958   14.1776  -26.1090 C.ar    1  UNL1       -0.0040
     25 C          46.3329   13.5884  -27.2667 C.ar    1  UNL1       -0.0003
     26 C          46.3678   14.3002  -28.4697 C.ar    1  UNL1       -0.0000
     27 C          45.8760   15.6067  -28.5259 C.ar    1  UNL1       -0.0000
     28 C          45.3523   16.2061  -27.3779 C.ar    1  UNL1       -0.0000
     29 C          45.3163   15.4987  -26.1727 C.ar    1  UNL1       -0.0003
     30 C          44.3199   11.4468  -25.4610 C.3     1  UNL1        0.0050
     31 C          44.4902   12.6408  -24.5220 C.3     1  UNL1        0.0264
@<TRIPOS>BOND
     1    30    31    1
     2    31     1    1
     3     1     2    2
     4     2     3    1
     5     3     4   ar
     6     4     5   ar
     7     5     6   ar
     8     6     9    1
     9     9    10    1
    10    10    11    1
    11    11    12    1
    12    12    13    1
    13    12    14    1
    14     6     7   ar
    15     7     8   ar
    16     2    15    1
    17    15    16   ar
    18    16    17   ar
    19    17    18   ar
    20    18    19   ar
    21    19    21    1
    22    21    22    1
    23    21    23    1
    24    19    20   ar
    25     1    24    1
    26    24    25   ar
    27    25    26   ar
    28    26    27   ar
    29    27    28   ar
    30    28    29   ar
    31     8     3   ar
    32    20    15   ar
    33    29    24   ar
