@<TRIPOS>MOLECULE
*****
 52 58 0 0 0
SMALL
GASTEIGER

@<TRIPOS>ATOM
      1 C          62.7916   82.9087   14.1100 C.ar    1  UNL1        0.0481
      2 C          63.7317   82.9109   13.0647 C.ar    1  UNL1        0.0176
      3 C          63.6107   82.0171   11.9972 C.ar    1  UNL1        0.0382
      4 C          62.5435   81.1000   11.9550 C.ar    1  UNL1        0.1388
      5 C          61.6235   81.0810   13.0089 C.ar    1  UNL1        0.0382
      6 C          61.7383   81.9809   14.0722 C.ar    1  UNL1        0.0176
      7 N          63.3825   86.5249   15.4565 N.pl3   1  UNL1       -0.3041
      8 C          64.5536   85.6291   15.5172 C.3     1  UNL1        0.1122
      9 C          64.1353   84.1885   15.8453 C.3     1  UNL1        0.1122
     10 N          62.8635   83.8841   15.1717 N.pl3   1  UNL1       -0.3041
     11 C          61.6989   84.7472   15.4401 C.3     1  UNL1        0.1122
     12 C          62.1336   86.0700   16.0866 C.3     1  UNL1        0.1122
     13 C          63.7386   89.8395   12.7929 C.ar    1  UNL1        0.0699
     14 C          63.2542   88.6088   12.3268 C.ar    1  UNL1        0.0190
     15 C          63.0994   87.5313   13.2017 C.ar    1  UNL1        0.0160
     16 C          63.4114   87.6665   14.5685 C.ar    1  UNL1        0.0480
     17 C          63.8532   88.9159   15.0383 C.ar    1  UNL1        0.0160
     18 C          64.0172   89.9901   14.1601 C.ar    1  UNL1        0.0190
     19 N          64.9696   92.5912   10.7843 N.ar    1  UNL1       -0.2024
     20 N          63.9294   92.2135   10.0555 N.ar    1  UNL1       -0.1442
     21 C          63.3470   91.1914   10.7199 C.ar    1  UNL1        0.2073
     22 N          64.0005   90.9098   11.8687 N.ar    1  UNL1       -0.2398
     23 C          65.0154   91.7947   11.8702 C.ar    1  UNL1        0.3522
     24 O          65.9213   91.8370   12.7460 O.2     1  UNL1       -0.2444
     25 C          65.9188   93.6317   10.3725 C.3     1  UNL1        0.1099
     26 C          66.0133   94.7227   11.4481 C.3     1  UNL1        0.0265
     27 C          68.1491   93.8753    9.1436 C.3     1  UNL1        0.0021
     28 C          67.2879   92.9977   10.0512 C.3     1  UNL1        0.0245
     29 O          62.3581   80.1920   10.8984 O.3     1  UNL1       -0.4727
     30 C          61.6507   80.4540    9.6846 C.3     1  UNL1        0.2374
     31 C          60.4322   81.3505    9.9480 C.3     1  UNL1        0.1909
     32 C          59.3052   81.0830    8.9978 C.3     1  UNL1        0.1783
     33 O          58.6878   82.3122    8.7871 O.3     1  UNL1       -0.3267
     34 C          59.5949   83.3064    9.2256 C.3     1  UNL1        0.2296
     35 O          60.7514   82.6903    9.7654 O.3     1  UNL1       -0.3255
     36 C          58.9404   84.1653   10.3256 C.ar    1  UNL1        0.0409
     37 C          57.5405   84.3515   10.2928 C.ar    1  UNL1        0.0022
     38 C          56.8765   85.0484   11.3018 C.ar    1  UNL1        0.0113
     39 C          57.5928   85.5925   12.3637 C.ar    1  UNL1        0.0585
     40 CL         56.7539   86.4633   13.6345 Cl      1  UNL1       -0.0822
     41 C          58.9794   85.4566   12.4071 C.ar    1  UNL1        0.0226
     42 C          59.6638   84.7598   11.4022 C.ar    1  UNL1        0.0591
     43 CL         61.4193   84.7054   11.5617 Cl      1  UNL1       -0.0824
     44 C          60.0510   84.1381    7.9785 C.3     1  UNL1        0.1679
     45 N          61.2000   85.0257    8.2156 N.ar    1  UNL1       -0.3084
     46 C          62.4811   84.6153    8.2366 C.ar    1  UNL1        0.0979
     47 C          63.2833   85.6862    8.5387 C.ar    1  UNL1        0.1188
     48 N          62.5171   86.7700    8.7536 N.ar    1  UNL1       -0.2293
     49 C          61.2492   86.3440    8.5583 C.ar    1  UNL1        0.1201
     50 C          60.0816   87.2512    8.8930 C.3     1  UNL1        0.0569
     51 C          59.4468   87.8682    7.6415 C.3     1  UNL1        0.0079
     52 C          60.4074   88.2961    9.9589 C.3     1  UNL1        0.0079
@<TRIPOS>BOND
     1    27    28    1
     2    28    25    1
     3    25    26    1
     4    25    19    1
     5    19    20   ar
     6    20    21   ar
     7    21    22   ar
     8    22    13    1
     9    13    14   ar
    10    14    15   ar
    11    15    16   ar
    12    16     7    1
    13     7     8    1
    14     8     9    1
    15     9    10    1
    16    10     1    1
    17     1     2   ar
    18     2     3   ar
    19     3     4   ar
    20     4    29    1
    21    29    30    1
    22    30    31    1
    23    31    32    1
    24    32    33    1
    25    33    34    1
    26    34    44    1
    27    44    45    1
    28    45    46   ar
    29    46    47   ar
    30    47    48   ar
    31    48    49   ar
    32    49    50    1
    33    50    51    1
    34    50    52    1
    35    34    36    1
    36    36    37   ar
    37    37    38   ar
    38    38    39   ar
    39    39    40    1
    40    39    41   ar
    41    41    42   ar
    42    42    43    1
    43    34    35    1
    44     4     5   ar
    45     5     6   ar
    46    10    11    1
    47    11    12    1
    48    16    17   ar
    49    17    18   ar
    50    22    23   ar
    51    23    24    2
    52    23    19   ar
    53    18    13   ar
    54    12     7    1
    55     6     1   ar
    56    35    31    1
    57    49    45   ar
    58    42    36   ar
@<TRIPOS>MOLECULE
*****
 52 58 0 0 0
SMALL
GASTEIGER

@<TRIPOS>ATOM
      1 C          58.6571   82.3079   10.1886 C.ar    1  UNL1        0.0481
      2 C          58.1810   82.6521   11.4659 C.ar    1  UNL1        0.0176
      3 C          58.3515   81.7830   12.5468 C.ar    1  UNL1        0.0382
      4 C          59.0032   80.5477   12.3702 C.ar    1  UNL1        0.1388
      5 C          59.4532   80.1947   11.0933 C.ar    1  UNL1        0.0382
      6 C          59.2916   81.0674   10.0137 C.ar    1  UNL1        0.0176
      7 N          59.0910   85.8423    8.5892 N.pl3   1  UNL1       -0.3041
      8 C          57.7461   85.5509    9.1221 C.3     1  UNL1        0.1122
      9 C          57.3678   84.0791    8.9022 C.3     1  UNL1        0.1122
     10 N          58.5590   83.2360    9.0875 N.pl3   1  UNL1       -0.3041
     11 C          59.7502   83.5070    8.2623 C.3     1  UNL1        0.1122
     12 C          59.6672   84.8985    7.6191 C.3     1  UNL1        0.1122
     13 C          61.5582   88.6614   10.6322 C.ar    1  UNL1        0.0699
     14 C          62.0112   88.0512    9.4537 C.ar    1  UNL1        0.0190
     15 C          61.1936   87.1566    8.7598 C.ar    1  UNL1        0.0160
     16 C          59.8956   86.8644    9.2220 C.ar    1  UNL1        0.0480
     17 C          59.4304   87.5141   10.3789 C.ar    1  UNL1        0.0160
     18 C          60.2531   88.4012   11.0777 C.ar    1  UNL1        0.0190
     19 N          63.8796   90.2215   12.9341 N.ar    1  UNL1       -0.2024
     20 N          63.8317   91.1448   11.9848 N.ar    1  UNL1       -0.1442
     21 C          62.9585   90.6953   11.0570 C.ar    1  UNL1        0.2073
     22 N          62.4433   89.4943   11.4010 N.ar    1  UNL1       -0.2398
     23 C          63.0501   89.2233   12.5720 C.ar    1  UNL1        0.3522
     24 O          62.9023   88.1510   13.2185 O.2     1  UNL1       -0.2444
     25 C          64.7739   90.2918   14.0953 C.3     1  UNL1        0.1099
     26 C          65.6560   91.5454   14.0135 C.3     1  UNL1        0.0265
     27 C          64.0657   91.5084   16.2312 C.3     1  UNL1        0.0021
     28 C          63.9501   90.2323   15.3983 C.3     1  UNL1        0.0245
     29 O          59.2221   79.6424   13.4226 O.3     1  UNL1       -0.4727
     30 C          60.4591   79.4412   14.1094 C.3     1  UNL1        0.2374
     31 C          61.5759   80.2837   13.4765 C.3     1  UNL1        0.1909
     32 C          62.9117   80.0356   14.1079 C.3     1  UNL1        0.1783
     33 O          63.5808   81.2553   14.0698 O.3     1  UNL1       -0.3267
     34 C          62.6040   82.2506   13.8269 C.3     1  UNL1        0.2296
     35 O          61.3366   81.6408   13.6533 O.3     1  UNL1       -0.3255
     36 C          62.9535   83.0258   12.5412 C.ar    1  UNL1        0.0409
     37 C          64.0921   82.6315   11.8040 C.ar    1  UNL1        0.0022
     38 C          64.4175   83.2370   10.5907 C.ar    1  UNL1        0.0113
     39 C          63.6244   84.2636   10.0867 C.ar    1  UNL1        0.0585
     40 CL         64.0329   85.0191    8.5573 Cl      1  UNL1       -0.0822
     41 C          62.5138   84.6998   10.8074 C.ar    1  UNL1        0.0226
     42 C          62.1715   84.1035   12.0284 C.ar    1  UNL1        0.0591
     43 CL         60.7693   84.7857   12.8522 Cl      1  UNL1       -0.0824
     44 C          62.5096   83.1647   15.0959 C.3     1  UNL1        0.1679
     45 N          63.4073   84.3301   15.0848 N.ar    1  UNL1       -0.3084
     46 C          64.6490   84.3235   14.5666 C.ar    1  UNL1        0.0979
     47 C          65.2212   85.5527   14.7749 C.ar    1  UNL1        0.1188
     48 N          64.3671   86.3309   15.4622 N.ar    1  UNL1       -0.2293
     49 C          63.2694   85.5640   15.6472 C.ar    1  UNL1        0.1201
     50 C          62.1499   86.0428   16.5504 C.3     1  UNL1        0.0569
     51 C          61.1531   86.9445   15.8134 C.3     1  UNL1        0.0079
     52 C          62.6434   86.6625   17.8569 C.3     1  UNL1        0.0079
@<TRIPOS>BOND
     1    27    28    1
     2    28    25    1
     3    25    26    1
     4    25    19    1
     5    19    20   ar
     6    20    21   ar
     7    21    22   ar
     8    22    13    1
     9    13    14   ar
    10    14    15   ar
    11    15    16   ar
    12    16     7    1
    13     7     8    1
    14     8     9    1
    15     9    10    1
    16    10     1    1
    17     1     2   ar
    18     2     3   ar
    19     3     4   ar
    20     4    29    1
    21    29    30    1
    22    30    31    1
    23    31    32    1
    24    32    33    1
    25    33    34    1
    26    34    44    1
    27    44    45    1
    28    45    46   ar
    29    46    47   ar
    30    47    48   ar
    31    48    49   ar
    32    49    50    1
    33    50    51    1
    34    50    52    1
    35    34    36    1
    36    36    37   ar
    37    37    38   ar
    38    38    39   ar
    39    39    40    1
    40    39    41   ar
    41    41    42   ar
    42    42    43    1
    43    34    35    1
    44     4     5   ar
    45     5     6   ar
    46    10    11    1
    47    11    12    1
    48    16    17   ar
    49    17    18   ar
    50    22    23   ar
    51    23    24    2
    52    23    19   ar
    53    18    13   ar
    54    12     7    1
    55     6     1   ar
    56    35    31    1
    57    49    45   ar
    58    42    36   ar
@<TRIPOS>MOLECULE
*****
 52 58 0 0 0
SMALL
GASTEIGER

@<TRIPOS>ATOM
      1 C          58.5915   82.4325   10.4039 C.ar    1  UNL1        0.0481
      2 C          58.1878   82.6861   11.7265 C.ar    1  UNL1        0.0176
      3 C          58.4321   81.7517   12.7364 C.ar    1  UNL1        0.0382
      4 C          59.0866   80.5407   12.4418 C.ar    1  UNL1        0.1388
      5 C          59.4644   80.2779   11.1205 C.ar    1  UNL1        0.0382
      6 C          59.2290   81.2159   10.1115 C.ar    1  UNL1        0.0176
      7 N          59.0117   86.0366    8.9643 N.pl3   1  UNL1       -0.3041
      8 C          57.7203   85.7672    9.6257 C.3     1  UNL1        0.1122
      9 C          57.2533   84.3273    9.3680 C.3     1  UNL1        0.1122
     10 N          58.4176   83.4282    9.3734 N.pl3   1  UNL1       -0.3041
     11 C          59.5238   83.7009    8.4378 C.3     1  UNL1        0.1122
     12 C          59.4357   85.1306    7.8857 C.3     1  UNL1        0.1122
     13 C          61.8308   88.6236   10.8532 C.ar    1  UNL1        0.0699
     14 C          62.0603   88.1622    9.5490 C.ar    1  UNL1        0.0190
     15 C          61.1234   87.3462    8.9112 C.ar    1  UNL1        0.0160
     16 C          59.9261   86.9862    9.5598 C.ar    1  UNL1        0.0480
     17 C          59.6811   87.4892   10.8497 C.ar    1  UNL1        0.0160
     18 C          60.6238   88.2972   11.4905 C.ar    1  UNL1        0.0190
     19 N          64.2214   90.9938   12.1908 N.ar    1  UNL1       -0.2024
     20 N          64.2850   90.0468   13.1154 N.ar    1  UNL1       -0.1442
     21 C          63.4467   89.0651   12.7166 C.ar    1  UNL1        0.2073
     22 N          62.8469   89.3703   11.5448 N.ar    1  UNL1       -0.2398
     23 C          63.3444   90.5868   11.2522 C.ar    1  UNL1        0.3522
     24 O          62.9945   91.2783   10.2577 O.2     1  UNL1       -0.2444
     25 C          64.9300   92.2752   12.2862 C.3     1  UNL1        0.1099
     26 C          65.8111   92.3047   13.5427 C.3     1  UNL1        0.0265
     27 C          65.9379   94.0163   10.7061 C.3     1  UNL1        0.0021
     28 C          65.7338   92.5293   10.9942 C.3     1  UNL1        0.0245
     29 O          59.3779   79.5727   13.4182 O.3     1  UNL1       -0.4727
     30 C          60.6500   79.3627   14.0346 C.3     1  UNL1        0.2374
     31 C          61.7260   80.2352   13.3723 C.3     1  UNL1        0.1909
     32 C          63.0901   80.0007   13.9458 C.3     1  UNL1        0.1783
     33 O          63.7360   81.2325   13.9021 O.3     1  UNL1       -0.3267
     34 C          62.7334   82.2141   13.7153 C.3     1  UNL1        0.2296
     35 O          61.4707   81.5847   13.5817 O.3     1  UNL1       -0.3255
     36 C          63.0178   83.0164   12.4302 C.ar    1  UNL1        0.0409
     37 C          64.1294   82.6513   11.6388 C.ar    1  UNL1        0.0022
     38 C          64.3950   83.2823   10.4240 C.ar    1  UNL1        0.0113
     39 C          63.5676   84.3062    9.9724 C.ar    1  UNL1        0.0585
     40 CL         63.9010   85.0939    8.4410 Cl      1  UNL1       -0.0822
     41 C          62.4828   84.7140   10.7468 C.ar    1  UNL1        0.0226
     42 C          62.2004   84.0917   11.9702 C.ar    1  UNL1        0.0591
     43 CL         60.8253   84.7396   12.8644 Cl      1  UNL1       -0.0824
     44 C          62.6742   83.1054   15.0026 C.3     1  UNL1        0.1679
     45 N          63.5526   84.2852   14.9768 N.ar    1  UNL1       -0.3084
     46 C          64.8297   84.2683   14.5539 C.ar    1  UNL1        0.0979
     47 C          65.3661   85.5201   14.7179 C.ar    1  UNL1        0.1188
     48 N          64.4510   86.3261   15.2840 N.ar    1  UNL1       -0.2293
     49 C          63.3541   85.5516   15.4401 C.ar    1  UNL1        0.1201
     50 C          62.1627   86.0684   16.2222 C.3     1  UNL1        0.0569
     51 C          61.3889   87.1485   15.4575 C.3     1  UNL1        0.0079
     52 C          62.5080   86.4955   17.6478 C.3     1  UNL1        0.0079
@<TRIPOS>BOND
     1    27    28    1
     2    28    25    1
     3    25    26    1
     4    25    19    1
     5    19    20   ar
     6    20    21   ar
     7    21    22   ar
     8    22    13    1
     9    13    14   ar
    10    14    15   ar
    11    15    16   ar
    12    16     7    1
    13     7     8    1
    14     8     9    1
    15     9    10    1
    16    10     1    1
    17     1     2   ar
    18     2     3   ar
    19     3     4   ar
    20     4    29    1
    21    29    30    1
    22    30    31    1
    23    31    32    1
    24    32    33    1
    25    33    34    1
    26    34    44    1
    27    44    45    1
    28    45    46   ar
    29    46    47   ar
    30    47    48   ar
    31    48    49   ar
    32    49    50    1
    33    50    51    1
    34    50    52    1
    35    34    36    1
    36    36    37   ar
    37    37    38   ar
    38    38    39   ar
    39    39    40    1
    40    39    41   ar
    41    41    42   ar
    42    42    43    1
    43    34    35    1
    44     4     5   ar
    45     5     6   ar
    46    10    11    1
    47    11    12    1
    48    16    17   ar
    49    17    18   ar
    50    22    23   ar
    51    23    24    2
    52    23    19   ar
    53    18    13   ar
    54    12     7    1
    55     6     1   ar
    56    35    31    1
    57    49    45   ar
    58    42    36   ar
@<TRIPOS>MOLECULE
*****
 52 58 0 0 0
SMALL
GASTEIGER

@<TRIPOS>ATOM
      1 C          60.4987   84.5321    8.9889 C.ar    1  UNL1        0.0481
      2 C          59.7913   83.3588    8.6735 C.ar    1  UNL1        0.0176
      3 C          60.3818   82.1040    8.8459 C.ar    1  UNL1        0.0382
      4 C          61.6964   81.9981    9.3382 C.ar    1  UNL1        0.1388
      5 C          62.4088   83.1672    9.6268 C.ar    1  UNL1        0.0382
      6 C          61.8157   84.4223    9.4636 C.ar    1  UNL1        0.0176
      7 N          60.2816   88.3485    9.7806 N.pl3   1  UNL1       -0.3041
      8 C          59.5003   87.4724   10.6749 C.3     1  UNL1        0.1122
      9 C          58.9041   86.2837    9.9071 C.3     1  UNL1        0.1122
     10 N          59.8661   85.8259    8.8927 N.pl3   1  UNL1       -0.3041
     11 C          60.3483   86.7935    7.8904 C.3     1  UNL1        0.1122
     12 C          60.0533   88.2339    8.3319 C.3     1  UNL1        0.1122
     13 C          63.4376   90.6526   11.4948 C.ar    1  UNL1        0.0699
     14 C          63.0555   89.4358   12.0777 C.ar    1  UNL1        0.0190
     15 C          62.0493   88.6586   11.4999 C.ar    1  UNL1        0.0160
     16 C          61.4129   89.0749   10.3145 C.ar    1  UNL1        0.0480
     17 C          61.8319   90.2732    9.7099 C.ar    1  UNL1        0.0160
     18 C          62.8317   91.0547   10.2945 C.ar    1  UNL1        0.0190
     19 N          65.7282   92.4135   13.6798 N.ar    1  UNL1       -0.2024
     20 N          66.0865   92.9161   12.5073 N.ar    1  UNL1       -0.1442
     21 C          65.2730   92.3560   11.5856 C.ar    1  UNL1        0.2073
     22 N          64.3945   91.5004   12.1534 N.ar    1  UNL1       -0.2398
     23 C          64.7159   91.5517   13.4600 C.ar    1  UNL1        0.3522
     24 O          64.1760   90.8451   14.3538 O.2     1  UNL1       -0.2444
     25 C          66.4197   92.7100   14.9396 C.3     1  UNL1        0.1099
     26 C          65.4851   92.4620   16.1318 C.3     1  UNL1        0.0265
     27 C          68.8049   92.5861   15.8556 C.3     1  UNL1        0.0021
     28 C          67.7235   91.8904   15.0297 C.3     1  UNL1        0.0245
     29 O          62.3349   80.7645    9.5518 O.3     1  UNL1       -0.4727
     30 C          62.3497   80.0316   10.7786 C.3     1  UNL1        0.2374
     31 C          62.8100   80.9243   11.9400 C.3     1  UNL1        0.1909
     32 C          62.8637   80.1891   13.2443 C.3     1  UNL1        0.1783
     33 O          62.5116   81.1190   14.2178 O.3     1  UNL1       -0.3267
     34 C          61.8939   82.2011   13.5460 C.3     1  UNL1        0.2296
     35 O          61.9182   81.9692   12.1482 O.3     1  UNL1       -0.3255
     36 C          62.6603   83.5062   13.8382 C.ar    1  UNL1        0.0409
     37 C          62.3457   84.6572   13.0823 C.ar    1  UNL1        0.0022
     38 C          62.9431   85.8883   13.3507 C.ar    1  UNL1        0.0113
     39 C          63.8829   86.0019   14.3709 C.ar    1  UNL1        0.0585
     40 CL         64.6281   87.5531   14.7099 Cl      1  UNL1       -0.0822
     41 C          64.2412   84.8771   15.1122 C.ar    1  UNL1        0.0226
     42 C          63.6517   83.6318   14.8567 C.ar    1  UNL1        0.0591
     43 CL         64.2327   82.2884   15.8405 Cl      1  UNL1       -0.0824
     44 C          60.3898   82.2543   13.9818 C.3     1  UNL1        0.1679
     45 N          59.4278   82.3236   12.8710 N.ar    1  UNL1       -0.3084
     46 C          58.8056   83.4501   12.4786 C.ar    1  UNL1        0.0979
     47 C          57.9405   83.1447   11.4588 C.ar    1  UNL1        0.1188
     48 N          57.9751   81.8208   11.2268 N.ar    1  UNL1       -0.2293
     49 C          58.8834   81.3376   12.1035 C.ar    1  UNL1        0.1201
     50 C          59.0623   79.8410   12.2666 C.3     1  UNL1        0.0569
     51 C          58.2609   79.0431   11.2317 C.3     1  UNL1        0.0079
     52 C          58.8254   79.3507   13.6941 C.3     1  UNL1        0.0079
@<TRIPOS>BOND
     1    27    28    1
     2    28    25    1
     3    25    26    1
     4    25    19    1
     5    19    20   ar
     6    20    21   ar
     7    21    22   ar
     8    22    13    1
     9    13    14   ar
    10    14    15   ar
    11    15    16   ar
    12    16     7    1
    13     7     8    1
    14     8     9    1
    15     9    10    1
    16    10     1    1
    17     1     2   ar
    18     2     3   ar
    19     3     4   ar
    20     4    29    1
    21    29    30    1
    22    30    31    1
    23    31    32    1
    24    32    33    1
    25    33    34    1
    26    34    44    1
    27    44    45    1
    28    45    46   ar
    29    46    47   ar
    30    47    48   ar
    31    48    49   ar
    32    49    50    1
    33    50    51    1
    34    50    52    1
    35    34    36    1
    36    36    37   ar
    37    37    38   ar
    38    38    39   ar
    39    39    40    1
    40    39    41   ar
    41    41    42   ar
    42    42    43    1
    43    34    35    1
    44     4     5   ar
    45     5     6   ar
    46    10    11    1
    47    11    12    1
    48    16    17   ar
    49    17    18   ar
    50    22    23   ar
    51    23    24    2
    52    23    19   ar
    53    18    13   ar
    54    12     7    1
    55     6     1   ar
    56    35    31    1
    57    49    45   ar
    58    42    36   ar
@<TRIPOS>MOLECULE
*****
 52 58 0 0 0
SMALL
GASTEIGER

@<TRIPOS>ATOM
      1 C          61.9304   90.0629   13.0366 C.ar    1  UNL1        0.0481
      2 C          63.1814   90.4289   13.5633 C.ar    1  UNL1        0.0176
      3 C          63.5363   90.0722   14.8670 C.ar    1  UNL1        0.0382
      4 C          62.6430   89.3407   15.6724 C.ar    1  UNL1        0.1388
      5 C          61.3880   88.9998   15.1564 C.ar    1  UNL1        0.0382
      6 C          61.0359   89.3478   13.8493 C.ar    1  UNL1        0.0176
      7 N          61.3218   89.0243    9.3231 N.pl3   1  UNL1       -0.3041
      8 C          62.6757   89.5281    9.6243 C.3     1  UNL1        0.1122
      9 C          62.6306   90.6543   10.6672 C.3     1  UNL1        0.1122
     10 N          61.5913   90.3550   11.6642 N.pl3   1  UNL1       -0.3041
     11 C          60.2095   90.1371   11.1991 C.3     1  UNL1        0.1122
     12 C          60.1749   89.8701    9.6878 C.3     1  UNL1        0.1122
     13 C          60.7929   84.8754    8.4774 C.ar    1  UNL1        0.0699
     14 C          59.7039   85.7555    8.4003 C.ar    1  UNL1        0.0190
     15 C          59.8780   87.1205    8.6387 C.ar    1  UNL1        0.0160
     16 C          61.1516   87.6386    8.9443 C.ar    1  UNL1        0.0480
     17 C          62.2474   86.7581    8.9753 C.ar    1  UNL1        0.0160
     18 C          62.0699   85.3913    8.7465 C.ar    1  UNL1        0.0190
     19 N          60.4351   81.2826    8.7697 N.ar    1  UNL1       -0.2024
     20 N          59.8752   81.4802    7.5851 N.ar    1  UNL1       -0.1442
     21 C          59.9709   82.8039    7.3321 C.ar    1  UNL1        0.2073
     22 N          60.5879   83.4586    8.3405 N.ar    1  UNL1       -0.2398
     23 C          60.8525   82.4796    9.2264 C.ar    1  UNL1        0.3522
     24 O          61.3741   82.6668   10.3589 O.2     1  UNL1       -0.2444
     25 C          60.4699   79.9820    9.4482 C.3     1  UNL1        0.1099
     26 C          61.9215   79.5437    9.6864 C.3     1  UNL1        0.0265
     27 C          58.1790   80.3847   10.5130 C.3     1  UNL1        0.0021
     28 C          59.6501   80.0474   10.7535 C.3     1  UNL1        0.0245
     29 O          62.9518   88.9361   16.9824 O.3     1  UNL1       -0.4727
     30 C          63.2513   87.6016   17.3972 C.3     1  UNL1        0.2374
     31 C          62.4690   86.5823   16.5565 C.3     1  UNL1        0.1909
     32 C          62.4813   85.2103   17.1582 C.3     1  UNL1        0.1783
     33 O          62.4888   84.3258   16.0837 O.3     1  UNL1       -0.3267
     34 C          62.8698   85.0715   14.9424 C.3     1  UNL1        0.2296
     35 O          63.0392   86.4327   15.2984 O.3     1  UNL1       -0.3255
     36 C          61.7702   84.9811   13.8659 C.ar    1  UNL1        0.0409
     37 C          60.7551   84.0107   14.0179 C.ar    1  UNL1        0.0022
     38 C          59.6875   83.9300   13.1245 C.ar    1  UNL1        0.0113
     39 C          59.6113   84.8054   12.0452 C.ar    1  UNL1        0.0585
     40 CL         58.2639   84.7053   10.9266 Cl      1  UNL1       -0.0822
     41 C          60.6155   85.7516   11.8473 C.ar    1  UNL1        0.0226
     42 C          61.6959   85.8474   12.7345 C.ar    1  UNL1        0.0591
     43 CL         62.9143   87.0587   12.3363 Cl      1  UNL1       -0.0824
     44 C          64.2613   84.5427   14.4535 C.3     1  UNL1        0.1679
     45 N          64.1998   83.5805   13.3424 N.ar    1  UNL1       -0.3084
     46 C          64.5288   83.8716   12.0707 C.ar    1  UNL1        0.0979
     47 C          64.3017   82.7658   11.2913 C.ar    1  UNL1        0.1188
     48 N          63.7881   81.7830   12.0515 N.ar    1  UNL1       -0.2293
     49 C          63.7276   82.3027   13.2980 C.ar    1  UNL1        0.1201
     50 C          63.0244   81.5433   14.4057 C.3     1  UNL1        0.0569
     51 C          64.0094   80.9390   15.4129 C.3     1  UNL1        0.0079
     52 C          62.0096   80.5215   13.8955 C.3     1  UNL1        0.0079
@<TRIPOS>BOND
     1    27    28    1
     2    28    25    1
     3    25    26    1
     4    25    19    1
     5    19    20   ar
     6    20    21   ar
     7    21    22   ar
     8    22    13    1
     9    13    14   ar
    10    14    15   ar
    11    15    16   ar
    12    16     7    1
    13     7     8    1
    14     8     9    1
    15     9    10    1
    16    10     1    1
    17     1     2   ar
    18     2     3   ar
    19     3     4   ar
    20     4    29    1
    21    29    30    1
    22    30    31    1
    23    31    32    1
    24    32    33    1
    25    33    34    1
    26    34    44    1
    27    44    45    1
    28    45    46   ar
    29    46    47   ar
    30    47    48   ar
    31    48    49   ar
    32    49    50    1
    33    50    51    1
    34    50    52    1
    35    34    36    1
    36    36    37   ar
    37    37    38   ar
    38    38    39   ar
    39    39    40    1
    40    39    41   ar
    41    41    42   ar
    42    42    43    1
    43    34    35    1
    44     4     5   ar
    45     5     6   ar
    46    10    11    1
    47    11    12    1
    48    16    17   ar
    49    17    18   ar
    50    22    23   ar
    51    23    24    2
    52    23    19   ar
    53    18    13   ar
    54    12     7    1
    55     6     1   ar
    56    35    31    1
    57    49    45   ar
    58    42    36   ar
@<TRIPOS>MOLECULE
*****
 52 58 0 0 0
SMALL
GASTEIGER

@<TRIPOS>ATOM
      1 C          60.9109   85.6819    9.2657 C.ar    1  UNL1        0.0481
      2 C          60.5224   84.6817    8.3574 C.ar    1  UNL1        0.0176
      3 C          61.1363   83.4265    8.3758 C.ar    1  UNL1        0.0382
      4 C          62.1552   83.1467    9.3060 C.ar    1  UNL1        0.1388
      5 C          62.5593   84.1513   10.1920 C.ar    1  UNL1        0.0382
      6 C          61.9393   85.4039   10.1807 C.ar    1  UNL1        0.0176
      7 N          60.5768   89.4037   10.3952 N.pl3   1  UNL1       -0.3041
      8 C          59.8695   88.4214   11.2394 C.3     1  UNL1        0.1122
      9 C          59.2888   87.2783   10.3946 C.3     1  UNL1        0.1122
     10 N          60.2240   86.9508    9.3075 N.pl3   1  UNL1       -0.3041
     11 C          60.6246   88.0204    8.3754 C.3     1  UNL1        0.1122
     12 C          60.2919   89.4037    8.9520 C.3     1  UNL1        0.1122
     13 C          64.0416   91.3117   11.9961 C.ar    1  UNL1        0.0699
     14 C          63.7287   91.4436   10.6355 C.ar    1  UNL1        0.0190
     15 C          62.5759   90.8534   10.1133 C.ar    1  UNL1        0.0160
     16 C          61.7001   90.1299   10.9460 C.ar    1  UNL1        0.0480
     17 C          61.9955   90.0397   12.3177 C.ar    1  UNL1        0.0160
     18 C          63.1544   90.6221   12.8369 C.ar    1  UNL1        0.0190
     19 N          67.1148   92.1336   13.7286 N.ar    1  UNL1       -0.2024
     20 N          67.2611   92.8603   12.6302 N.ar    1  UNL1       -0.1442
     21 C          66.1462   92.6675   11.8920 C.ar    1  UNL1        0.2073
     22 N          65.2843   91.8264   12.5050 N.ar    1  UNL1       -0.2398
     23 C          65.9270   91.5030   13.6431 C.ar    1  UNL1        0.3522
     24 O          65.4977   90.6760   14.4925 O.2     1  UNL1       -0.2444
     25 C          68.1458   92.0058   14.7649 C.3     1  UNL1        0.1099
     26 C          69.5411   92.2002   14.1554 C.3     1  UNL1        0.0265
     27 C          68.9951   93.9928   16.1339 C.3     1  UNL1        0.0021
     28 C          67.8602   92.9928   15.9156 C.3     1  UNL1        0.0245
     29 O          62.7945   81.8976    9.3859 O.3     1  UNL1       -0.4727
     30 C          62.4657   80.8463   10.2965 C.3     1  UNL1        0.2374
     31 C          62.4746   81.3580   11.7441 C.3     1  UNL1        0.1909
     32 C          62.2305   80.2668   12.7414 C.3     1  UNL1        0.1783
     33 O          61.5160   80.8562   13.7800 O.3     1  UNL1       -0.3267
     34 C          61.0046   82.0789   13.2829 C.3     1  UNL1        0.2296
     35 O          61.4538   82.2769   11.9535 O.3     1  UNL1       -0.3255
     36 C          61.5102   83.2496   14.1489 C.ar    1  UNL1        0.0409
     37 C          60.8667   84.5017   14.0331 C.ar    1  UNL1        0.0022
     38 C          61.2209   85.5785   14.8452 C.ar    1  UNL1        0.0113
     39 C          62.2379   85.4405   15.7851 C.ar    1  UNL1        0.0585
     40 CL         62.6770   86.7951   16.8094 Cl      1  UNL1       -0.0822
     41 C          62.9164   84.2283   15.9000 C.ar    1  UNL1        0.0226
     42 C          62.5744   83.1354   15.0924 C.ar    1  UNL1        0.0591
     43 CL         63.5457   81.6802   15.3143 Cl      1  UNL1       -0.0824
     44 C          59.4421   81.9730   13.2343 C.3     1  UNL1        0.1679
     45 N          58.9220   80.9351   12.3308 N.ar    1  UNL1       -0.3084
     46 C          58.9001   79.6215   12.6209 C.ar    1  UNL1        0.0979
     47 C          58.4046   78.9383   11.5395 C.ar    1  UNL1        0.1188
     48 N          58.1503   79.8050   10.5435 N.ar    1  UNL1       -0.2293
     49 C          58.4793   81.0168   11.0443 C.ar    1  UNL1        0.1201
     50 C          58.4999   82.2336   10.1403 C.3     1  UNL1        0.0569
     51 C          57.8626   83.4608   10.8019 C.3     1  UNL1        0.0079
     52 C          57.9402   81.9655    8.7442 C.3     1  UNL1        0.0079
@<TRIPOS>BOND
     1    27    28    1
     2    28    25    1
     3    25    26    1
     4    25    19    1
     5    19    20   ar
     6    20    21   ar
     7    21    22   ar
     8    22    13    1
     9    13    14   ar
    10    14    15   ar
    11    15    16   ar
    12    16     7    1
    13     7     8    1
    14     8     9    1
    15     9    10    1
    16    10     1    1
    17     1     2   ar
    18     2     3   ar
    19     3     4   ar
    20     4    29    1
    21    29    30    1
    22    30    31    1
    23    31    32    1
    24    32    33    1
    25    33    34    1
    26    34    44    1
    27    44    45    1
    28    45    46   ar
    29    46    47   ar
    30    47    48   ar
    31    48    49   ar
    32    49    50    1
    33    50    51    1
    34    50    52    1
    35    34    36    1
    36    36    37   ar
    37    37    38   ar
    38    38    39   ar
    39    39    40    1
    40    39    41   ar
    41    41    42   ar
    42    42    43    1
    43    34    35    1
    44     4     5   ar
    45     5     6   ar
    46    10    11    1
    47    11    12    1
    48    16    17   ar
    49    17    18   ar
    50    22    23   ar
    51    23    24    2
    52    23    19   ar
    53    18    13   ar
    54    12     7    1
    55     6     1   ar
    56    35    31    1
    57    49    45   ar
    58    42    36   ar
@<TRIPOS>MOLECULE
*****
 52 58 0 0 0
SMALL
GASTEIGER

@<TRIPOS>ATOM
      1 C          57.9457   84.6832   11.9706 C.ar    1  UNL1        0.0481
      2 C          58.4556   83.3852   12.1493 C.ar    1  UNL1        0.0176
      3 C          58.5348   82.4976   11.0730 C.ar    1  UNL1        0.0382
      4 C          58.1033   82.8921    9.7924 C.ar    1  UNL1        0.1388
      5 C          57.5716   84.1749    9.6212 C.ar    1  UNL1        0.0382
      6 C          57.5008   85.0667   10.6952 C.ar    1  UNL1        0.0176
      7 N          59.5622   87.5380   14.0862 N.pl3   1  UNL1       -0.3041
      8 C          59.7607   86.1731   14.6108 C.3     1  UNL1        0.1122
      9 C          58.5225   85.2982   14.3671 C.3     1  UNL1        0.1122
     10 N          57.9391   85.6318   13.0586 N.pl3   1  UNL1       -0.3041
     11 C          57.5435   87.0278   12.7978 C.3     1  UNL1        0.1122
     12 C          58.1849   87.9794   13.8175 C.3     1  UNL1        0.1122
     13 C          62.9273   89.8784   12.9000 C.ar    1  UNL1        0.0699
     14 C          63.1153   88.6138   13.4762 C.ar    1  UNL1        0.0190
     15 C          62.0176   87.8270   13.8315 C.ar    1  UNL1        0.0160
     16 C          60.7045   88.2824   13.6029 C.ar    1  UNL1        0.0480
     17 C          60.5230   89.5314   12.9832 C.ar    1  UNL1        0.0160
     18 C          61.6219   90.3218   12.6375 C.ar    1  UNL1        0.0190
     19 N          65.4699   92.1487   11.6742 N.ar    1  UNL1       -0.2024
     20 N          65.8470   92.0324   12.9392 N.ar    1  UNL1       -0.1442
     21 C          64.9837   91.1695   13.5185 C.ar    1  UNL1        0.2073
     22 N          64.0573   90.7287   12.6389 N.ar    1  UNL1       -0.2398
     23 C          64.3837   91.3703   11.5009 C.ar    1  UNL1        0.3522
     24 O          63.7265   91.2943   10.4277 O.2     1  UNL1       -0.2444
     25 C          66.1061   93.0580   10.7142 C.3     1  UNL1        0.1099
     26 C          66.1144   94.4915   11.2629 C.3     1  UNL1        0.0265
     27 C          68.1655   93.3306    9.2215 C.3     1  UNL1        0.0021
     28 C          67.5204   92.5498   10.3659 C.3     1  UNL1        0.0245
     29 O          58.1774   82.0513    8.6687 O.3     1  UNL1       -0.4727
     30 C          59.2001   82.0770    7.6708 C.3     1  UNL1        0.2374
     31 C          59.8550   83.4639    7.5987 C.3     1  UNL1        0.1909
     32 C          60.9438   83.5332    6.5718 C.3     1  UNL1        0.1783
     33 O          61.8956   84.4075    7.0877 O.3     1  UNL1       -0.3267
     34 C          61.6267   84.5353    8.4715 C.3     1  UNL1        0.2296
     35 O          60.4693   83.7873    8.8022 O.3     1  UNL1       -0.3255
     36 C          61.3690   86.0143    8.8213 C.ar    1  UNL1        0.0409
     37 C          62.3122   86.6918    9.6256 C.ar    1  UNL1        0.0022
     38 C          62.1810   88.0504    9.9110 C.ar    1  UNL1        0.0113
     39 C          61.0964   88.7675    9.4148 C.ar    1  UNL1        0.0585
     40 CL         60.9374   90.4778    9.7706 Cl      1  UNL1       -0.0822
     41 C          60.1295   88.1203    8.6472 C.ar    1  UNL1        0.0226
     42 C          60.2445   86.7557    8.3502 C.ar    1  UNL1        0.0591
     43 CL         58.9264   86.0588    7.4084 Cl      1  UNL1       -0.0824
     44 C          62.8255   83.9105    9.2636 C.3     1  UNL1        0.1679
     45 N          62.4738   82.7568   10.1060 N.ar    1  UNL1       -0.3084
     46 C          62.1698   81.5363    9.6283 C.ar    1  UNL1        0.0979
     47 C          61.8392   80.7200   10.6800 C.ar    1  UNL1        0.1188
     48 N          61.8884   81.4251   11.8237 N.ar    1  UNL1       -0.2293
     49 C          62.2708   82.6669   11.4507 C.ar    1  UNL1        0.1201
     50 C          62.2593   83.8010   12.4567 C.3     1  UNL1        0.0569
     51 C          63.6035   84.5351   12.5212 C.3     1  UNL1        0.0079
     52 C          61.7529   83.3863   13.8372 C.3     1  UNL1        0.0079
@<TRIPOS>BOND
     1    27    28    1
     2    28    25    1
     3    25    26    1
     4    25    19    1
     5    19    20   ar
     6    20    21   ar
     7    21    22   ar
     8    22    13    1
     9    13    14   ar
    10    14    15   ar
    11    15    16   ar
    12    16     7    1
    13     7     8    1
    14     8     9    1
    15     9    10    1
    16    10     1    1
    17     1     2   ar
    18     2     3   ar
    19     3     4   ar
    20     4    29    1
    21    29    30    1
    22    30    31    1
    23    31    32    1
    24    32    33    1
    25    33    34    1
    26    34    44    1
    27    44    45    1
    28    45    46   ar
    29    46    47   ar
    30    47    48   ar
    31    48    49   ar
    32    49    50    1
    33    50    51    1
    34    50    52    1
    35    34    36    1
    36    36    37   ar
    37    37    38   ar
    38    38    39   ar
    39    39    40    1
    40    39    41   ar
    41    41    42   ar
    42    42    43    1
    43    34    35    1
    44     4     5   ar
    45     5     6   ar
    46    10    11    1
    47    11    12    1
    48    16    17   ar
    49    17    18   ar
    50    22    23   ar
    51    23    24    2
    52    23    19   ar
    53    18    13   ar
    54    12     7    1
    55     6     1   ar
    56    35    31    1
    57    49    45   ar
    58    42    36   ar
@<TRIPOS>MOLECULE
*****
 52 58 0 0 0
SMALL
GASTEIGER

@<TRIPOS>ATOM
      1 C          62.0146   89.6627   12.4314 C.ar    1  UNL1        0.0481
      2 C          60.6349   89.9305   12.3953 C.ar    1  UNL1        0.0176
      3 C          59.9891   90.1745   11.1803 C.ar    1  UNL1        0.0382
      4 C          60.7137   90.1562    9.9735 C.ar    1  UNL1        0.1388
      5 C          62.0914   89.9156   10.0131 C.ar    1  UNL1        0.0382
      6 C          62.7364   89.6620   11.2269 C.ar    1  UNL1        0.0176
      7 N          63.0870   87.1398   15.2106 N.pl3   1  UNL1       -0.3041
      8 C          61.8478   87.8928   15.4850 C.3     1  UNL1        0.1122
      9 C          61.9395   89.3287   14.9487 C.3     1  UNL1        0.1122
     10 N          62.6710   89.3274   13.6725 N.pl3   1  UNL1       -0.3041
     11 C          64.0326   88.7632   13.6405 C.3     1  UNL1        0.1122
     12 C          64.3004   87.9049   14.8848 C.3     1  UNL1        0.1122
     13 C          62.7991   82.9743   14.3310 C.ar    1  UNL1        0.0699
     14 C          64.0439   83.6189   14.2936 C.ar    1  UNL1        0.0190
     15 C          64.1504   84.9731   14.6175 C.ar    1  UNL1        0.0160
     16 C          63.0136   85.7102   15.0024 C.ar    1  UNL1        0.0480
     17 C          61.7762   85.0473   15.0821 C.ar    1  UNL1        0.0160
     18 C          61.6694   83.6949   14.7481 C.ar    1  UNL1        0.0190
     19 N          62.2236   79.8008   12.6821 N.ar    1  UNL1       -0.2024
     20 N          63.0160   79.4130   13.6709 N.ar    1  UNL1       -0.1442
     21 C          63.2883   80.5178   14.3993 C.ar    1  UNL1        0.2073
     22 N          62.6779   81.6108   13.8903 N.ar    1  UNL1       -0.2398
     23 C          62.0323   81.1283   12.8117 C.ar    1  UNL1        0.3522
     24 O          61.3784   81.8357   11.9983 O.2     1  UNL1       -0.2444
     25 C          61.7568   78.9093   11.6141 C.3     1  UNL1        0.1099
     26 C          60.2356   79.0289   11.4469 C.3     1  UNL1        0.0265
     27 C          61.6974   80.0268    9.3139 C.3     1  UNL1        0.0021
     28 C          62.5207   79.2083   10.3077 C.3     1  UNL1        0.0245
     29 O          60.1158   90.3736    8.7203 O.3     1  UNL1       -0.4727
     30 C          59.3870   89.4060    7.9620 C.3     1  UNL1        0.2374
     31 C          60.0693   88.0324    8.0340 C.3     1  UNL1        0.1909
     32 C          59.6329   87.1149    6.9328 C.3     1  UNL1        0.1783
     33 O          59.6367   85.8361    7.4817 O.3     1  UNL1       -0.3267
     34 C          59.6622   85.9944    8.8881 C.3     1  UNL1        0.2296
     35 O          59.7363   87.3724    9.2104 O.3     1  UNL1       -0.3255
     36 C          60.9016   85.2886    9.4729 C.ar    1  UNL1        0.0409
     37 C          61.5973   84.3646    8.6620 C.ar    1  UNL1        0.0022
     38 C          62.7715   83.7534    9.1004 C.ar    1  UNL1        0.0113
     39 C          63.2760   84.0353   10.3665 C.ar    1  UNL1        0.0585
     40 CL         64.7565   83.2694   10.9126 Cl      1  UNL1       -0.0822
     41 C          62.5939   84.9158   11.2046 C.ar    1  UNL1        0.0226
     42 C          61.4125   85.5393   10.7814 C.ar    1  UNL1        0.0591
     43 CL         60.6327   86.5931   11.9610 Cl      1  UNL1       -0.0824
     44 C          58.3101   85.4541    9.4668 C.3     1  UNL1        0.1679
     45 N          58.2019   83.9877    9.5149 N.ar    1  UNL1       -0.3084
     46 C          57.8228   83.2228    8.4750 C.ar    1  UNL1        0.0979
     47 C          57.7768   81.9139    8.8829 C.ar    1  UNL1        0.1188
     48 N          58.0827   81.8437   10.1902 N.ar    1  UNL1       -0.2293
     49 C          58.3320   83.1204   10.5582 C.ar    1  UNL1        0.1201
     50 C          58.5348   83.4650   12.0205 C.3     1  UNL1        0.0569
     51 C          58.4350   82.2334   12.9278 C.3     1  UNL1        0.0079
     52 C          57.6568   84.6188   12.5024 C.3     1  UNL1        0.0079
@<TRIPOS>BOND
     1    27    28    1
     2    28    25    1
     3    25    26    1
     4    25    19    1
     5    19    20   ar
     6    20    21   ar
     7    21    22   ar
     8    22    13    1
     9    13    14   ar
    10    14    15   ar
    11    15    16   ar
    12    16     7    1
    13     7     8    1
    14     8     9    1
    15     9    10    1
    16    10     1    1
    17     1     2   ar
    18     2     3   ar
    19     3     4   ar
    20     4    29    1
    21    29    30    1
    22    30    31    1
    23    31    32    1
    24    32    33    1
    25    33    34    1
    26    34    44    1
    27    44    45    1
    28    45    46   ar
    29    46    47   ar
    30    47    48   ar
    31    48    49   ar
    32    49    50    1
    33    50    51    1
    34    50    52    1
    35    34    36    1
    36    36    37   ar
    37    37    38   ar
    38    38    39   ar
    39    39    40    1
    40    39    41   ar
    41    41    42   ar
    42    42    43    1
    43    34    35    1
    44     4     5   ar
    45     5     6   ar
    46    10    11    1
    47    11    12    1
    48    16    17   ar
    49    17    18   ar
    50    22    23   ar
    51    23    24    2
    52    23    19   ar
    53    18    13   ar
    54    12     7    1
    55     6     1   ar
    56    35    31    1
    57    49    45   ar
    58    42    36   ar
