@<TRIPOS>MOLECULE
*****
 52 57 0 0 0
SMALL
GASTEIGER

@<TRIPOS>ATOM
      1 C          59.5771   87.9179    7.5402 C.ar    1  UNL1        0.0502
      2 C          60.2116   88.5650    8.6118 C.ar    1  UNL1        0.0148
      3 C          60.2957   87.9466    9.8612 C.ar    1  UNL1        0.0080
      4 C          59.7600   86.6636   10.0599 C.ar    1  UNL1        0.0808
      5 C          59.1014   86.0243    8.9923 C.ar    1  UNL1        0.1457
      6 F          58.5107   84.8139    9.1594 F       1  UNL1       -0.2040
      7 C          59.0156   86.6485    7.7441 C.ar    1  UNL1        0.0443
      8 N          61.8693   90.2202    5.2202 N.3     1  UNL1       -0.3053
      9 C          60.9207   89.4302    4.4311 C.3     1  UNL1        0.1490
     10 C          60.4617   88.1760    5.1936 C.3     1  UNL1        0.1273
     11 N          59.5072   88.5413    6.2440 N.pl3   1  UNL1       -0.3029
     12 C          58.3286   89.3164    5.8473 C.3     1  UNL1        0.1124
     13 C          58.7560   90.5784    5.0958 C.3     1  UNL1        0.1148
     14 N          59.7615   90.2642    4.0670 N.pl3   1  UNL1       -0.2790
     15 H          62.7272   89.6454    5.3869 H       1  UNL1        0.1203
     16 H          61.4547   90.4361    6.1555 H       1  UNL1        0.1203
     17 C          59.7866   90.9928    2.8217 C.ar    1  UNL1        0.1327
     18 C          59.9267   92.3903    2.7955 C.ar    1  UNL1        0.0343
     19 C          59.9503   93.0583    1.5704 C.ar    1  UNL1        0.0083
     20 C          59.8582   92.3379    0.3703 C.ar    1  UNL1        0.0906
     21 C          59.7011   90.9452    0.4397 C.ar    1  UNL1        0.1041
     22 N          59.6782   90.3166    1.6445 N.ar    1  UNL1       -0.2292
     23 C          59.8325   93.0517   -0.9573 C.3     1  UNL1        0.4200
     24 F          59.8054   92.1422   -2.0004 F       1  UNL1       -0.1658
     25 F          58.7043   93.8478   -1.0241 F       1  UNL1       -0.1658
     26 F          60.9554   93.8473   -1.1056 F       1  UNL1       -0.1658
     27 C          59.9293   86.0011   11.3717 C.2     1  UNL1        0.2483
     28 O          59.6146   86.6230   12.4231 O.2     1  UNL1       -0.2701
     29 N          60.5180   84.6934   11.4601 N.am    1  UNL1       -0.2945
     30 H          60.8739   84.2598   10.5785 H       1  UNL1        0.1501
     31 C          60.9949   84.1355   12.7324 C.3     1  UNL1        0.1535
     32 C          60.8163   82.6347   12.7755 C.2     1  UNL1        0.2443
     33 O          61.6080   81.9191   13.4487 O.2     1  UNL1       -0.2730
     34 N          59.7584   82.0258   12.0177 N.am    1  UNL1       -0.2825
     35 H          59.3222   82.5904   11.2538 H       1  UNL1        0.1549
     36 C          59.3237   80.6647   12.1823 C.ar    1  UNL1        0.0535
     37 C          59.2414   80.0636   13.4505 C.ar    1  UNL1        0.0353
     38 C          58.7860   78.7474   13.5610 C.ar    1  UNL1        0.1002
     39 N          58.4126   78.0584   12.4506 N.ar    1  UNL1       -0.2422
     40 C          58.4647   78.6198   11.2139 C.ar    1  UNL1        0.1002
     41 C          58.9123   79.9339   11.0590 C.ar    1  UNL1        0.0353
     42 C          62.4669   84.5318   12.9722 C.3     1  UNL1        0.0569
     43 C          62.6051   85.6949   13.9168 C.ar    1  UNL1       -0.0017
     44 C          62.6398   85.6314   15.3068 C.ar    1  UNL1        0.0681
     45 N          62.9017   86.8508   15.8297 N.ar    1  UNL1       -0.3523
     46 C          63.0405   87.6826   14.7826 C.ar    1  UNL1        0.0563
     47 C          63.3540   89.0409   14.8184 C.ar    1  UNL1        0.0170
     48 C          63.4848   89.7186   13.5921 C.ar    1  UNL1        0.0015
     49 C          63.2974   89.0326   12.3719 C.ar    1  UNL1        0.0001
     50 C          62.9772   87.6634   12.3671 C.ar    1  UNL1        0.0012
     51 C          62.8634   87.0152   13.5978 C.ar    1  UNL1        0.0131
     52 H          62.9982   87.0888   16.8419 H       1  UNL1        0.1660
@<TRIPOS>BOND
     1     8     9    1
     2     9    10    1
     3    10    11    1
     4    11     1    1
     5     1     2   ar
     6     2     3   ar
     7     3     4   ar
     8     4    27    1
     9    27    28    2
    10    27    29   am
    11    29    31    1
    12    31    42    1
    13    42    43    1
    14    43    44   ar
    15    44    45   ar
    16    45    46   ar
    17    46    47   ar
    18    47    48   ar
    19    48    49   ar
    20    49    50   ar
    21    50    51   ar
    22    31    32    1
    23    32    33    2
    24    32    34   am
    25    34    36    1
    26    36    37   ar
    27    37    38   ar
    28    38    39   ar
    29    39    40   ar
    30    40    41   ar
    31     4     5   ar
    32     5     6    1
    33     5     7   ar
    34    11    12    1
    35    12    13    1
    36    13    14    1
    37    14    17    1
    38    17    18   ar
    39    18    19   ar
    40    19    20   ar
    41    20    23    1
    42    23    24    1
    43    23    25    1
    44    23    26    1
    45    20    21   ar
    46    21    22   ar
    47    14     9    1
    48    22    17   ar
    49     7     1   ar
    50    51    43   ar
    51    41    36   ar
    52    51    46   ar
    53     8    15    1
    54     8    16    1
    55    29    30    1
    56    45    52    1
    57    34    35    1
@<TRIPOS>MOLECULE
*****
 52 57 0 0 0
SMALL
GASTEIGER

@<TRIPOS>ATOM
      1 C          62.0302   87.9006   11.3424 C.ar    1  UNL1        0.0502
      2 C          61.3035   86.8661   11.9516 C.ar    1  UNL1        0.0148
      3 C          60.4477   86.0627   11.1948 C.ar    1  UNL1        0.0080
      4 C          60.3128   86.2684    9.8120 C.ar    1  UNL1        0.0808
      5 C          61.0224   87.3220    9.2046 C.ar    1  UNL1        0.1457
      6 F          60.8695   87.5985    7.8848 F       1  UNL1       -0.2040
      7 C          61.8750   88.1267    9.9665 C.ar    1  UNL1        0.0443
      8 N          65.5324   89.7512   10.8445 N.3     1  UNL1       -0.3053
      9 C          64.7227   90.3942   11.8826 C.3     1  UNL1        0.1490
     10 C          63.2263   90.0914   11.6974 C.3     1  UNL1        0.1273
     11 N          62.9310   88.7176   12.1137 N.pl3   1  UNL1       -0.3029
     12 C          63.3348   88.3185   13.4646 C.3     1  UNL1        0.1124
     13 C          64.8243   88.5977   13.6738 C.3     1  UNL1        0.1148
     14 N          65.1767   89.9509   13.2127 N.pl3   1  UNL1       -0.2790
     15 H          65.2633   90.1488    9.9152 H       1  UNL1        0.1203
     16 H          65.3201   88.7277   10.8165 H       1  UNL1        0.1203
     17 C          66.1899   90.7166   13.8979 C.ar    1  UNL1        0.1327
     18 C          66.2730   92.1116   13.7550 C.ar    1  UNL1        0.0343
     19 C          67.2652   92.8170   14.4374 C.ar    1  UNL1        0.0083
     20 C          68.1605   92.1416   15.2800 C.ar    1  UNL1        0.0906
     21 C          68.0558   90.7459   15.3815 C.ar    1  UNL1        0.1041
     22 N          67.0830   90.0800   14.7053 N.ar    1  UNL1       -0.2292
     23 C          69.2673   92.8851   15.9834 C.3     1  UNL1        0.4200
     24 F          70.1019   93.5004   15.0665 F       1  UNL1       -0.1658
     25 F          68.7162   93.8479   16.8081 F       1  UNL1       -0.1658
     26 F          70.0285   92.0181   16.7482 F       1  UNL1       -0.1658
     27 C          59.4580   85.3556    9.0219 C.2     1  UNL1        0.2483
     28 O          58.4993   85.8306    8.3537 O.2     1  UNL1       -0.2701
     29 N          59.6632   83.9344    9.0723 N.am    1  UNL1       -0.2945
     30 H          60.3910   83.5712    9.7284 H       1  UNL1        0.1501
     31 C          58.6628   82.9821    8.5728 C.3     1  UNL1        0.1535
     32 C          59.1795   81.5622    8.6294 C.2     1  UNL1        0.2443
     33 O          59.1274   80.8252    7.6065 O.2     1  UNL1       -0.2730
     34 N          59.6999   81.0472    9.8655 N.am    1  UNL1       -0.2825
     35 H          59.4585   81.5595   10.7441 H       1  UNL1        0.1549
     36 C          60.4535   79.8276    9.9817 C.ar    1  UNL1        0.0535
     37 C          61.6732   79.6457    9.3068 C.ar    1  UNL1        0.0353
     38 C          62.3823   78.4537    9.4743 C.ar    1  UNL1        0.1002
     39 N          61.9020   77.4828   10.2951 N.ar    1  UNL1       -0.2422
     40 C          60.7349   77.6384   10.9741 C.ar    1  UNL1        0.1002
     41 C          59.9954   78.8153   10.8363 C.ar    1  UNL1        0.0353
     42 C          57.3434   83.1301    9.3593 C.3     1  UNL1        0.0569
     43 C          57.5299   82.9416   10.8404 C.ar    1  UNL1       -0.0017
     44 C          57.9131   81.7677   11.4826 C.ar    1  UNL1        0.0681
     45 N          58.1062   81.9918   12.8023 N.ar    1  UNL1       -0.3523
     46 C          57.8561   83.2981   12.9984 C.ar    1  UNL1        0.0563
     47 C          57.9582   84.0077   14.1945 C.ar    1  UNL1        0.0170
     48 C          57.6800   85.3867   14.1674 C.ar    1  UNL1        0.0015
     49 C          57.3063   86.0178   12.9604 C.ar    1  UNL1        0.0001
     50 C          57.2070   85.2754   11.7703 C.ar    1  UNL1        0.0012
     51 C          57.4980   83.9116   11.8254 C.ar    1  UNL1        0.0131
     52 H          58.4102   81.2933   13.5165 H       1  UNL1        0.1660
@<TRIPOS>BOND
     1     8     9    1
     2     9    10    1
     3    10    11    1
     4    11     1    1
     5     1     2   ar
     6     2     3   ar
     7     3     4   ar
     8     4    27    1
     9    27    28    2
    10    27    29   am
    11    29    31    1
    12    31    42    1
    13    42    43    1
    14    43    44   ar
    15    44    45   ar
    16    45    46   ar
    17    46    47   ar
    18    47    48   ar
    19    48    49   ar
    20    49    50   ar
    21    50    51   ar
    22    31    32    1
    23    32    33    2
    24    32    34   am
    25    34    36    1
    26    36    37   ar
    27    37    38   ar
    28    38    39   ar
    29    39    40   ar
    30    40    41   ar
    31     4     5   ar
    32     5     6    1
    33     5     7   ar
    34    11    12    1
    35    12    13    1
    36    13    14    1
    37    14    17    1
    38    17    18   ar
    39    18    19   ar
    40    19    20   ar
    41    20    23    1
    42    23    24    1
    43    23    25    1
    44    23    26    1
    45    20    21   ar
    46    21    22   ar
    47    14     9    1
    48    22    17   ar
    49     7     1   ar
    50    51    43   ar
    51    41    36   ar
    52    51    46   ar
    53     8    15    1
    54     8    16    1
    55    29    30    1
    56    45    52    1
    57    34    35    1
@<TRIPOS>MOLECULE
*****
 52 57 0 0 0
SMALL
GASTEIGER

@<TRIPOS>ATOM
      1 C          59.7294   87.8727    7.5006 C.ar    1  UNL1        0.0502
      2 C          59.1752   86.6067    7.7450 C.ar    1  UNL1        0.0148
      3 C          59.2575   86.0324    9.0154 C.ar    1  UNL1        0.0080
      4 C          59.8825   86.7183   10.0696 C.ar    1  UNL1        0.0808
      5 C          60.4607   87.9774    9.8190 C.ar    1  UNL1        0.1457
      6 F          61.1329   88.6441   10.7913 F       1  UNL1       -0.2040
      7 C          60.3798   88.5473    8.5447 C.ar    1  UNL1        0.0443
      8 N          61.9124   90.2461    5.1470 N.3     1  UNL1       -0.3053
      9 C          60.9947   89.4087    4.3703 C.3     1  UNL1        0.1490
     10 C          60.5924   88.1440    5.1473 C.3     1  UNL1        0.1273
     11 N          59.6278   88.4793    6.1985 N.pl3   1  UNL1       -0.3029
     12 C          58.4158   89.1999    5.7996 C.3     1  UNL1        0.1124
     13 C          58.7862   90.4712    5.0336 C.3     1  UNL1        0.1148
     14 N          59.7998   90.1893    4.0034 N.pl3   1  UNL1       -0.2790
     15 H          62.7945   89.7097    5.3155 H       1  UNL1        0.1203
     16 H          61.4930   90.4537    6.0821 H       1  UNL1        0.1203
     17 C          59.7888   90.9057    2.7508 C.ar    1  UNL1        0.1327
     18 C          58.5939   91.1273    2.0462 C.ar    1  UNL1        0.0343
     19 C          58.6243   91.8280    0.8397 C.ar    1  UNL1        0.0083
     20 C          59.8369   92.3292    0.3434 C.ar    1  UNL1        0.0906
     21 C          61.0107   92.0710    1.0677 C.ar    1  UNL1        0.1041
     22 N          60.9568   91.3839    2.2391 N.ar    1  UNL1       -0.2292
     23 C          59.8905   93.0442   -0.9827 C.3     1  UNL1        0.4200
     24 F          61.0152   93.8473   -1.0594 F       1  UNL1       -0.1658
     25 F          59.9328   92.1109   -2.0015 F       1  UNL1       -0.1658
     26 F          58.7742   93.8452   -1.1507 F       1  UNL1       -0.1658
     27 C          59.8893   86.1200   11.4224 C.2     1  UNL1        0.2483
     28 O          59.5272   86.8184   12.4086 O.2     1  UNL1       -0.2701
     29 N          60.3758   84.7839   11.6290 N.am    1  UNL1       -0.2945
     30 H          60.7770   84.2800   10.8061 H       1  UNL1        0.1501
     31 C          60.6991   84.2678   12.9655 C.3     1  UNL1        0.1535
     32 C          60.5442   82.7650   13.0264 C.2     1  UNL1        0.2443
     33 O          61.1791   82.0946   13.8865 O.2     1  UNL1       -0.2730
     34 N          59.6944   82.1020   12.0765 N.am    1  UNL1       -0.2825
     35 H          59.4292   82.6283   11.2133 H       1  UNL1        0.1549
     36 C          59.2602   80.7358   12.1932 C.ar    1  UNL1        0.0535
     37 C          59.3233   80.0423   13.4145 C.ar    1  UNL1        0.0353
     38 C          58.8628   78.7250   13.4835 C.ar    1  UNL1        0.1002
     39 N          58.3450   78.1239   12.3801 N.ar    1  UNL1       -0.2422
     40 C          58.2550   78.7757   11.1909 C.ar    1  UNL1        0.1002
     41 C          58.7025   80.0942   11.0787 C.ar    1  UNL1        0.0353
     42 C          62.1215   84.7018   13.3772 C.3     1  UNL1        0.0569
     43 C          62.1152   85.7815   14.4252 C.ar    1  UNL1       -0.0017
     44 C          61.7273   85.6409   15.7546 C.ar    1  UNL1        0.0681
     45 N          61.9703   86.7805   16.4412 N.ar    1  UNL1       -0.3523
     46 C          62.5152   87.6370   15.5598 C.ar    1  UNL1        0.0563
     47 C          62.9689   88.9318   15.8097 C.ar    1  UNL1        0.0170
     48 C          63.5404   89.6466   14.7408 C.ar    1  UNL1        0.0015
     49 C          63.6409   89.0599   13.4601 C.ar    1  UNL1        0.0001
     50 C          63.1704   87.7537   13.2368 C.ar    1  UNL1        0.0012
     51 C          62.6172   87.0653   14.3175 C.ar    1  UNL1        0.0131
     52 H          61.7904   86.9487   17.4560 H       1  UNL1        0.1660
@<TRIPOS>BOND
     1     8     9    1
     2     9    10    1
     3    10    11    1
     4    11     1    1
     5     1     2   ar
     6     2     3   ar
     7     3     4   ar
     8     4    27    1
     9    27    28    2
    10    27    29   am
    11    29    31    1
    12    31    42    1
    13    42    43    1
    14    43    44   ar
    15    44    45   ar
    16    45    46   ar
    17    46    47   ar
    18    47    48   ar
    19    48    49   ar
    20    49    50   ar
    21    50    51   ar
    22    31    32    1
    23    32    33    2
    24    32    34   am
    25    34    36    1
    26    36    37   ar
    27    37    38   ar
    28    38    39   ar
    29    39    40   ar
    30    40    41   ar
    31     4     5   ar
    32     5     6    1
    33     5     7   ar
    34    11    12    1
    35    12    13    1
    36    13    14    1
    37    14    17    1
    38    17    18   ar
    39    18    19   ar
    40    19    20   ar
    41    20    23    1
    42    23    24    1
    43    23    25    1
    44    23    26    1
    45    20    21   ar
    46    21    22   ar
    47    14     9    1
    48    22    17   ar
    49     7     1   ar
    50    51    43   ar
    51    41    36   ar
    52    51    46   ar
    53     8    15    1
    54     8    16    1
    55    29    30    1
    56    45    52    1
    57    34    35    1
@<TRIPOS>MOLECULE
*****
 52 57 0 0 0
SMALL
GASTEIGER

@<TRIPOS>ATOM
      1 C          59.7796   88.0121    7.5873 C.ar    1  UNL1        0.0502
      2 C          60.4626   88.6615    8.6271 C.ar    1  UNL1        0.0148
      3 C          60.5912   88.0521    9.8772 C.ar    1  UNL1        0.0080
      4 C          60.0523   86.7758   10.1077 C.ar    1  UNL1        0.0808
      5 C          59.3455   86.1344    9.0727 C.ar    1  UNL1        0.1457
      6 F          58.7510   84.9310    9.2732 F       1  UNL1       -0.2040
      7 C          59.2153   86.7496    7.8238 C.ar    1  UNL1        0.0443
      8 N          62.0272   90.2065    5.1234 N.3     1  UNL1       -0.3053
      9 C          61.0093   89.4453    4.3946 C.3     1  UNL1        0.1490
     10 C          60.5461   88.2159    5.1941 C.3     1  UNL1        0.1273
     11 N          59.6633   88.6260    6.2898 N.pl3   1  UNL1       -0.3029
     12 C          58.4944   89.4408    5.9479 C.3     1  UNL1        0.1124
     13 C          58.9269   90.6793    5.1609 C.3     1  UNL1        0.1148
     14 N          59.8637   90.3186    4.0836 N.pl3   1  UNL1       -0.2790
     15 H          62.8711   89.6017    5.2506 H       1  UNL1        0.1203
     16 H          61.6715   90.4460    6.0771 H       1  UNL1        0.1203
     17 C          59.8488   91.0346    2.8308 C.ar    1  UNL1        0.1327
     18 C          59.6841   92.4289    2.7881 C.ar    1  UNL1        0.0343
     19 C          59.6789   93.0855    1.5565 C.ar    1  UNL1        0.0083
     20 C          59.8604   92.3617    0.3686 C.ar    1  UNL1        0.0906
     21 C          60.0035   90.9683    0.4527 C.ar    1  UNL1        0.1041
     22 N          60.0027   90.3505    1.6633 N.ar    1  UNL1       -0.2292
     23 C          59.8072   93.0521   -0.9705 C.3     1  UNL1        0.4200
     24 F          59.7590   92.1244   -1.9966 F       1  UNL1       -0.1658
     25 F          58.6776   93.8469   -1.0281 F       1  UNL1       -0.1658
     26 F          60.9266   93.8449   -1.1557 F       1  UNL1       -0.1658
     27 C          60.2682   86.1220   11.4170 C.2     1  UNL1        0.2483
     28 O          59.5804   86.4856   12.4100 O.2     1  UNL1       -0.2701
     29 N          61.3019   85.1377   11.5815 N.am    1  UNL1       -0.2945
     30 H          61.9277   84.9490   10.7662 H       1  UNL1        0.1501
     31 C          61.7619   84.7015   12.9064 C.3     1  UNL1        0.1535
     32 C          62.2238   85.8745   13.7413 C.2     1  UNL1        0.2443
     33 O          62.4090   85.7382   14.9820 O.2     1  UNL1       -0.2730
     34 N          62.4186   87.1540   13.1176 N.am    1  UNL1       -0.2825
     35 H          61.9799   87.3088   12.1816 H       1  UNL1        0.1549
     36 C          63.0994   88.2607   13.7344 C.ar    1  UNL1        0.0535
     37 C          62.8170   88.6599   15.0525 C.ar    1  UNL1        0.0353
     38 C          63.5256   89.7234   15.6172 C.ar    1  UNL1        0.1002
     39 N          64.4906   90.3580   14.9008 N.ar    1  UNL1       -0.2422
     40 C          64.7973   89.9821   13.6312 C.ar    1  UNL1        0.1002
     41 C          64.1140   88.9228   13.0294 C.ar    1  UNL1        0.0353
     42 C          60.6510   83.9061   13.6237 C.3     1  UNL1        0.0569
     43 C          60.5860   82.4715   13.1744 C.ar    1  UNL1       -0.0017
     44 C          61.3126   81.4069   13.6999 C.ar    1  UNL1        0.0681
     45 N          60.9111   80.2406   13.1452 N.ar    1  UNL1       -0.3523
     46 C          59.9324   80.5577   12.2798 C.ar    1  UNL1        0.0563
     47 C          59.1824   79.6825   11.4947 C.ar    1  UNL1        0.0170
     48 C          58.1762   80.2295   10.6772 C.ar    1  UNL1        0.0015
     49 C          57.9474   81.6230   10.6595 C.ar    1  UNL1        0.0001
     50 C          58.7228   82.4817   11.4587 C.ar    1  UNL1        0.0012
     51 C          59.7070   81.9103   12.2665 C.ar    1  UNL1        0.0131
     52 H          61.2750   79.2868   13.3646 H       1  UNL1        0.1660
@<TRIPOS>BOND
     1     8     9    1
     2     9    10    1
     3    10    11    1
     4    11     1    1
     5     1     2   ar
     6     2     3   ar
     7     3     4   ar
     8     4    27    1
     9    27    28    2
    10    27    29   am
    11    29    31    1
    12    31    42    1
    13    42    43    1
    14    43    44   ar
    15    44    45   ar
    16    45    46   ar
    17    46    47   ar
    18    47    48   ar
    19    48    49   ar
    20    49    50   ar
    21    50    51   ar
    22    31    32    1
    23    32    33    2
    24    32    34   am
    25    34    36    1
    26    36    37   ar
    27    37    38   ar
    28    38    39   ar
    29    39    40   ar
    30    40    41   ar
    31     4     5   ar
    32     5     6    1
    33     5     7   ar
    34    11    12    1
    35    12    13    1
    36    13    14    1
    37    14    17    1
    38    17    18   ar
    39    18    19   ar
    40    19    20   ar
    41    20    23    1
    42    23    24    1
    43    23    25    1
    44    23    26    1
    45    20    21   ar
    46    21    22   ar
    47    14     9    1
    48    22    17   ar
    49     7     1   ar
    50    51    43   ar
    51    41    36   ar
    52    51    46   ar
    53     8    15    1
    54     8    16    1
    55    29    30    1
    56    45    52    1
    57    34    35    1
@<TRIPOS>MOLECULE
*****
 52 57 0 0 0
SMALL
GASTEIGER

@<TRIPOS>ATOM
      1 C          59.5257   87.9306    7.6702 C.ar    1  UNL1        0.0502
      2 C          60.0524   88.6182    8.7744 C.ar    1  UNL1        0.0148
      3 C          60.0665   88.0221   10.0373 C.ar    1  UNL1        0.0080
      4 C          59.5678   86.7217   10.2183 C.ar    1  UNL1        0.0808
      5 C          59.0164   86.0409    9.1161 C.ar    1  UNL1        0.1457
      6 F          58.4624   84.8104    9.2601 F       1  UNL1       -0.2040
      7 C          59.0003   86.6427    7.8541 C.ar    1  UNL1        0.0443
      8 N          61.8911   90.2940    5.4893 N.3     1  UNL1       -0.3053
      9 C          61.0386   89.4531    4.6450 C.3     1  UNL1        0.1490
     10 C          60.5749   88.1917    5.3927 C.3     1  UNL1        0.1273
     11 N          59.5291   88.5315    6.3616 N.pl3   1  UNL1       -0.3029
     12 C          58.3532   89.2502    5.8635 C.3     1  UNL1        0.1124
     13 C          58.7842   90.5182    5.1241 C.3     1  UNL1        0.1148
     14 N          59.8771   90.2319    4.1799 N.pl3   1  UNL1       -0.2790
     15 H          62.7568   89.7585    5.7304 H       1  UNL1        0.1203
     16 H          61.3980   90.5056    6.3867 H       1  UNL1        0.1203
     17 C          59.9669   90.9428    2.9273 C.ar    1  UNL1        0.1327
     18 C          58.8177   91.2695    2.1886 C.ar    1  UNL1        0.0343
     19 C          58.9460   91.9612    0.9833 C.ar    1  UNL1        0.0083
     20 C          60.2126   92.3493    0.5220 C.ar    1  UNL1        0.0906
     21 C          61.3370   91.9880    1.2799 C.ar    1  UNL1        0.1041
     22 N          61.1876   91.3120    2.4495 N.ar    1  UNL1       -0.2292
     23 C          60.3687   93.0528   -0.8021 C.3     1  UNL1        0.4200
     24 F          59.2666   93.8477   -1.0657 F       1  UNL1       -0.1658
     25 F          61.4990   93.8476   -0.7647 F       1  UNL1       -0.1658
     26 F          60.4964   92.1349   -1.8303 F       1  UNL1       -0.1658
     27 C          59.6638   86.0859   11.5505 C.2     1  UNL1        0.2483
     28 O          59.6633   86.8110   12.5826 O.2     1  UNL1       -0.2701
     29 N          59.8346   84.6644   11.6719 N.am    1  UNL1       -0.2945
     30 H          59.9488   84.1116   10.7925 H       1  UNL1        0.1501
     31 C          60.2497   84.0319   12.9309 C.3     1  UNL1        0.1535
     32 C          60.1295   82.5265   12.8552 C.2     1  UNL1        0.2443
     33 O          60.7927   81.7953   13.6411 O.2     1  UNL1       -0.2730
     34 N          59.2799   81.9335   11.8599 N.am    1  UNL1       -0.2825
     35 H          58.9894   82.5304   11.0524 H       1  UNL1        0.1549
     36 C          58.8783   80.5525   11.8561 C.ar    1  UNL1        0.0535
     37 C          58.2608   79.9657   10.7377 C.ar    1  UNL1        0.0353
     38 C          57.9148   78.6125   10.7725 C.ar    1  UNL1        0.1002
     39 N          58.1862   77.8663   11.8756 N.ar    1  UNL1       -0.2422
     40 C          58.7983   78.4024   12.9642 C.ar    1  UNL1        0.1002
     41 C          59.1624   79.7509   12.9705 C.ar    1  UNL1        0.0353
     42 C          61.6856   84.4617   13.2978 C.3     1  UNL1        0.0569
     43 C          62.7283   83.7514   12.4777 C.ar    1  UNL1       -0.0017
     44 C          63.6578   82.8263   12.9441 C.ar    1  UNL1        0.0681
     45 N          64.3538   82.2944   11.9136 N.ar    1  UNL1       -0.3523
     46 C          63.8671   82.8692   10.7999 C.ar    1  UNL1        0.0563
     47 C          64.2458   82.6135    9.4824 C.ar    1  UNL1        0.0170
     48 C          63.5770   83.3094    8.4585 C.ar    1  UNL1        0.0015
     49 C          62.5594   84.2377    8.7707 C.ar    1  UNL1        0.0001
     50 C          62.2021   84.4785   10.1092 C.ar    1  UNL1        0.0012
     51 C          62.8757   83.7669   11.1030 C.ar    1  UNL1        0.0131
     52 H          65.1013   81.5678   11.9737 H       1  UNL1        0.1660
@<TRIPOS>BOND
     1     8     9    1
     2     9    10    1
     3    10    11    1
     4    11     1    1
     5     1     2   ar
     6     2     3   ar
     7     3     4   ar
     8     4    27    1
     9    27    28    2
    10    27    29   am
    11    29    31    1
    12    31    42    1
    13    42    43    1
    14    43    44   ar
    15    44    45   ar
    16    45    46   ar
    17    46    47   ar
    18    47    48   ar
    19    48    49   ar
    20    49    50   ar
    21    50    51   ar
    22    31    32    1
    23    32    33    2
    24    32    34   am
    25    34    36    1
    26    36    37   ar
    27    37    38   ar
    28    38    39   ar
    29    39    40   ar
    30    40    41   ar
    31     4     5   ar
    32     5     6    1
    33     5     7   ar
    34    11    12    1
    35    12    13    1
    36    13    14    1
    37    14    17    1
    38    17    18   ar
    39    18    19   ar
    40    19    20   ar
    41    20    23    1
    42    23    24    1
    43    23    25    1
    44    23    26    1
    45    20    21   ar
    46    21    22   ar
    47    14     9    1
    48    22    17   ar
    49     7     1   ar
    50    51    43   ar
    51    41    36   ar
    52    51    46   ar
    53     8    15    1
    54     8    16    1
    55    29    30    1
    56    45    52    1
    57    34    35    1
@<TRIPOS>MOLECULE
*****
 52 57 0 0 0
SMALL
GASTEIGER

@<TRIPOS>ATOM
      1 C          59.8855   88.1615    7.9416 C.ar    1  UNL1        0.0502
      2 C          60.2563   88.6326    9.2105 C.ar    1  UNL1        0.0148
      3 C          60.1422   87.8079   10.3318 C.ar    1  UNL1        0.0080
      4 C          59.6690   86.4917   10.2044 C.ar    1  UNL1        0.0808
      5 C          59.2733   86.0266    8.9357 C.ar    1  UNL1        0.1457
      6 F          58.7473   84.7855    8.7788 F       1  UNL1       -0.2040
      7 C          59.3851   86.8568    7.8162 C.ar    1  UNL1        0.0443
      8 N          57.7736   89.0974    4.6855 N.3     1  UNL1       -0.3053
      9 C          58.7052   90.1670    5.0529 C.3     1  UNL1        0.1490
     10 C          59.0814   90.0986    6.5426 C.3     1  UNL1        0.1273
     11 N          60.0221   88.9998    6.7787 N.pl3   1  UNL1       -0.3029
     12 C          61.2474   88.9740    5.9755 C.3     1  UNL1        0.1124
     13 C          60.9029   89.0289    4.4861 C.3     1  UNL1        0.1148
     14 N          59.9131   90.0842    4.2127 N.pl3   1  UNL1       -0.2790
     15 H          56.8847   89.2284    5.2210 H       1  UNL1        0.1203
     16 H          58.1714   88.1724    4.9674 H       1  UNL1        0.1203
     17 C          59.9585   90.8275    2.9767 C.ar    1  UNL1        0.1327
     18 C          61.1611   91.3698    2.4939 C.ar    1  UNL1        0.0343
     19 C          61.1645   92.0793    1.2921 C.ar    1  UNL1        0.0083
     20 C          59.9792   92.2312    0.5573 C.ar    1  UNL1        0.0906
     21 C          58.7958   91.6903    1.0826 C.ar    1  UNL1        0.1041
     22 N          58.8164   91.0054    2.2564 N.ar    1  UNL1       -0.2292
     23 C          59.9598   93.0374   -0.7164 C.3     1  UNL1        0.4200
     24 F          61.0801   93.8461   -0.7996 F       1  UNL1       -0.1658
     25 F          59.9432   92.1778   -1.7988 F       1  UNL1       -0.1658
     26 F          58.8375   93.8460   -0.7652 F       1  UNL1       -0.1658
     27 C          59.6295   85.6157   11.3958 C.2     1  UNL1        0.2483
     28 O          58.6477   85.6892   12.1844 O.2     1  UNL1       -0.2701
     29 N          60.7305   84.7439   11.6996 N.am    1  UNL1       -0.2945
     30 H          61.5761   84.7974   11.0879 H       1  UNL1        0.1501
     31 C          60.8816   84.1044   13.0132 C.3     1  UNL1        0.1535
     32 C          60.6040   82.6200   12.9367 C.2     1  UNL1        0.2443
     33 O          61.1193   81.8326   13.7773 O.2     1  UNL1       -0.2730
     34 N          59.7759   82.1083   11.8801 N.am    1  UNL1       -0.2825
     35 H          59.6169   82.7215   11.0486 H       1  UNL1        0.1549
     36 C          59.2274   80.7790   11.8521 C.ar    1  UNL1        0.0535
     37 C          59.3356   79.9119   12.9534 C.ar    1  UNL1        0.0353
     38 C          58.7613   78.6399   12.8879 C.ar    1  UNL1        0.1002
     39 N          58.0912   78.2498   11.7718 N.ar    1  UNL1       -0.2422
     40 C          57.9553   79.0734   10.6992 C.ar    1  UNL1        0.1002
     41 C          58.5128   80.3539   10.7236 C.ar    1  UNL1        0.0353
     42 C          62.2872   84.3830   13.5857 C.3     1  UNL1        0.0569
     43 C          62.3126   85.5801   14.4970 C.ar    1  UNL1       -0.0017
     44 C          62.0924   85.5775   15.8714 C.ar    1  UNL1        0.0681
     45 N          62.3184   86.8065   16.3889 N.ar    1  UNL1       -0.3523
     46 C          62.6868   87.5834   15.3554 C.ar    1  UNL1        0.0563
     47 C          63.0586   88.9267   15.3987 C.ar    1  UNL1        0.0170
     48 C          63.4434   89.5422   14.1932 C.ar    1  UNL1        0.0015
     49 C          63.4442   88.8111   12.9849 C.ar    1  UNL1        0.0001
     50 C          63.0597   87.4586   12.9712 C.ar    1  UNL1        0.0012
     51 C          62.6922   86.8720   14.1830 C.ar    1  UNL1        0.0131
     52 H          62.2428   87.0851   17.3924 H       1  UNL1        0.1660
@<TRIPOS>BOND
     1     8     9    1
     2     9    10    1
     3    10    11    1
     4    11     1    1
     5     1     2   ar
     6     2     3   ar
     7     3     4   ar
     8     4    27    1
     9    27    28    2
    10    27    29   am
    11    29    31    1
    12    31    42    1
    13    42    43    1
    14    43    44   ar
    15    44    45   ar
    16    45    46   ar
    17    46    47   ar
    18    47    48   ar
    19    48    49   ar
    20    49    50   ar
    21    50    51   ar
    22    31    32    1
    23    32    33    2
    24    32    34   am
    25    34    36    1
    26    36    37   ar
    27    37    38   ar
    28    38    39   ar
    29    39    40   ar
    30    40    41   ar
    31     4     5   ar
    32     5     6    1
    33     5     7   ar
    34    11    12    1
    35    12    13    1
    36    13    14    1
    37    14    17    1
    38    17    18   ar
    39    18    19   ar
    40    19    20   ar
    41    20    23    1
    42    23    24    1
    43    23    25    1
    44    23    26    1
    45    20    21   ar
    46    21    22   ar
    47    14     9    1
    48    22    17   ar
    49     7     1   ar
    50    51    43   ar
    51    41    36   ar
    52    51    46   ar
    53     8    15    1
    54     8    16    1
    55    29    30    1
    56    45    52    1
    57    34    35    1
@<TRIPOS>MOLECULE
*****
 52 57 0 0 0
SMALL
GASTEIGER

@<TRIPOS>ATOM
      1 C          59.8615   88.1525    7.7090 C.ar    1  UNL1        0.0502
      2 C          60.2684   88.5911    8.9785 C.ar    1  UNL1        0.0148
      3 C          60.1205   87.7632   10.0934 C.ar    1  UNL1        0.0080
      4 C          59.5765   86.4754    9.9588 C.ar    1  UNL1        0.0808
      5 C          59.1451   86.0441    8.6898 C.ar    1  UNL1        0.1457
      6 F          58.5521   84.8343    8.5268 F       1  UNL1       -0.2040
      7 C          59.2910   86.8776    7.5768 C.ar    1  UNL1        0.0443
      8 N          57.6958   89.4075    4.5989 N.3     1  UNL1       -0.3053
      9 C          58.7704   90.3484    4.9256 C.3     1  UNL1        0.1490
     10 C          59.2205   90.2026    6.3890 C.3     1  UNL1        0.1273
     11 N          60.0322   88.9933    6.5525 N.pl3   1  UNL1       -0.3029
     12 C          61.1970   88.8370    5.6772 C.3     1  UNL1        0.1124
     13 C          60.7767   88.9656    4.2120 C.3     1  UNL1        0.1148
     14 N          59.9089   90.1385    4.0137 N.pl3   1  UNL1       -0.2790
     15 H          56.8618   89.6333    5.1884 H       1  UNL1        0.1203
     16 H          57.9933   88.4352    4.8430 H       1  UNL1        0.1203
     17 C          59.9735   90.8977    2.7881 C.ar    1  UNL1        0.1327
     18 C          59.8225   92.2942    2.7848 C.ar    1  UNL1        0.0343
     19 C          59.8951   92.9931    1.5790 C.ar    1  UNL1        0.0083
     20 C          60.1408   92.3092    0.3791 C.ar    1  UNL1        0.0906
     21 C          60.2677   90.9124    0.4223 C.ar    1  UNL1        0.1041
     22 N          60.1907   90.2530    1.6083 N.ar    1  UNL1       -0.2292
     23 C          60.1720   93.0461   -0.9357 C.3     1  UNL1        0.4200
     24 F          60.1929   92.1549   -1.9946 F       1  UNL1       -0.1658
     25 F          59.0461   93.8416   -1.0384 F       1  UNL1       -0.1658
     26 F          61.2986   93.8458   -1.0204 F       1  UNL1       -0.1658
     27 C          59.5009   85.5915   11.1426 C.2     1  UNL1        0.2483
     28 O          58.7571   85.9150   12.1087 O.2     1  UNL1       -0.2701
     29 N          60.3222   84.4158   11.2313 N.am    1  UNL1       -0.2945
     30 H          61.0112   84.2451   10.4643 H       1  UNL1        0.1501
     31 C          60.5197   83.6940   12.4951 C.3     1  UNL1        0.1535
     32 C          61.1443   84.5851   13.5450 C.2     1  UNL1        0.2443
     33 O          61.5921   84.0893   14.6154 O.2     1  UNL1       -0.2730
     34 N          61.1943   86.0047   13.3296 N.am    1  UNL1       -0.2825
     35 H          60.5642   86.4067   12.5989 H       1  UNL1        0.1549
     36 C          61.9862   86.9154   14.1121 C.ar    1  UNL1        0.0535
     37 C          63.1596   87.4990   13.6033 C.ar    1  UNL1        0.0353
     38 C          63.8792   88.3999   14.3924 C.ar    1  UNL1        0.1002
     39 N          63.4393   88.7195   15.6379 N.ar    1  UNL1       -0.2422
     40 C          62.2990   88.1847   16.1488 C.ar    1  UNL1        0.1002
     41 C          61.5487   87.2810   15.3927 C.ar    1  UNL1        0.0353
     42 C          59.1829   83.1005   12.9870 C.3     1  UNL1        0.0569
     43 C          58.6096   82.0943   12.0262 C.ar    1  UNL1       -0.0017
     44 C          58.1215   82.3556   10.7492 C.ar    1  UNL1        0.0681
     45 N          57.8035   81.2019   10.1191 N.ar    1  UNL1       -0.3523
     46 C          58.0936   80.2138   10.9834 C.ar    1  UNL1        0.0563
     47 C          57.9695   78.8413   10.7701 C.ar    1  UNL1        0.0170
     48 C          58.3653   77.9759   11.8066 C.ar    1  UNL1        0.0015
     49 C          58.8665   78.4954   13.0205 C.ar    1  UNL1        0.0001
     50 C          58.9758   79.8846   13.2087 C.ar    1  UNL1        0.0012
     51 C          58.5848   80.7184   12.1601 C.ar    1  UNL1        0.0131
     52 H          57.4301   81.1025    9.1490 H       1  UNL1        0.1660
@<TRIPOS>BOND
     1     8     9    1
     2     9    10    1
     3    10    11    1
     4    11     1    1
     5     1     2   ar
     6     2     3   ar
     7     3     4   ar
     8     4    27    1
     9    27    28    2
    10    27    29   am
    11    29    31    1
    12    31    42    1
    13    42    43    1
    14    43    44   ar
    15    44    45   ar
    16    45    46   ar
    17    46    47   ar
    18    47    48   ar
    19    48    49   ar
    20    49    50   ar
    21    50    51   ar
    22    31    32    1
    23    32    33    2
    24    32    34   am
    25    34    36    1
    26    36    37   ar
    27    37    38   ar
    28    38    39   ar
    29    39    40   ar
    30    40    41   ar
    31     4     5   ar
    32     5     6    1
    33     5     7   ar
    34    11    12    1
    35    12    13    1
    36    13    14    1
    37    14    17    1
    38    17    18   ar
    39    18    19   ar
    40    19    20   ar
    41    20    23    1
    42    23    24    1
    43    23    25    1
    44    23    26    1
    45    20    21   ar
    46    21    22   ar
    47    14     9    1
    48    22    17   ar
    49     7     1   ar
    50    51    43   ar
    51    41    36   ar
    52    51    46   ar
    53     8    15    1
    54     8    16    1
    55    29    30    1
    56    45    52    1
    57    34    35    1
