@<TRIPOS>MOLECULE
*****
 45 50 0 0 0
SMALL
GASTEIGER

@<TRIPOS>ATOM
      1 C         -64.2938  -52.0488  -24.7063 C.ar    1  UNL1        0.0702
      2 C         -63.6637  -52.3471  -23.4927 C.ar    1  UNL1        0.0191
      3 C         -64.2173  -53.2888  -22.6241 C.ar    1  UNL1        0.0356
      4 C         -65.4208  -53.9280  -22.9682 C.ar    1  UNL1        0.1318
      5 N         -66.0318  -53.5972  -24.1406 N.ar    1  UNL1       -0.2279
      6 C         -65.5091  -52.6860  -25.0031 C.ar    1  UNL1        0.1149
      7 N         -66.0276  -54.9064  -22.0964 N.pl3   1  UNL1       -0.2932
      8 C         -66.9539  -54.4917  -21.0284 C.3     1  UNL1        0.0923
      9 C         -66.9856  -55.5222  -19.8929 C.3     1  UNL1        0.0252
     10 C         -67.3256  -56.9496  -20.3907 C.3     1  UNL1        0.0472
     11 C         -66.8434  -57.2129  -21.8404 C.3     1  UNL1        0.0252
     12 C         -65.6590  -56.3244  -22.2276 C.3     1  UNL1        0.0923
     13 C         -68.8359  -57.2343  -20.2556 C.3     1  UNL1        0.2054
     14 O         -69.6102  -56.0739  -20.5655 O.3     1  UNL1       -0.4746
     15 C         -70.2659  -55.8240  -21.7836 C.ar    1  UNL1        0.1492
     16 C         -69.6271  -55.1965  -22.8727 C.ar    1  UNL1        0.0442
     17 C         -70.3199  -54.9622  -24.0740 C.ar    1  UNL1        0.0785
     18 C         -71.6610  -55.3676  -24.1795 C.ar    1  UNL1        0.0075
     19 C         -72.2955  -55.9951  -23.1066 C.ar    1  UNL1        0.0147
     20 C         -71.6039  -56.2246  -21.9146 C.ar    1  UNL1        0.0915
     21 CL        -72.4334  -57.0097  -20.5791 Cl      1  UNL1       -0.0791
     22 C         -69.6428  -54.2981  -25.2105 C.2     1  UNL1        0.3381
     23 O         -70.2658  -53.4714  -25.9304 O.2     1  UNL1       -0.2451
     24 O         -68.3091  -54.5797  -25.4958 O.3     1  UNL1       -0.4771
     25 H         -67.8365  -54.1302  -26.2709 H       1  UNL1        0.2954
     26 C         -63.9122  -49.6436  -25.4234 C.2     1  UNL1        0.2839
     27 O         -64.8045  -49.2040  -24.6492 O.2     1  UNL1       -0.2665
     28 N         -63.7237  -51.0593  -25.5802 N.am    1  UNL1       -0.2766
     29 H         -63.2118  -51.3948  -26.4275 H       1  UNL1        0.1553
     30 C         -64.1246  -49.0402  -28.5641 C.3     1  UNL1        0.0345
     31 C         -63.1745  -48.4366  -27.5739 C.ar    1  UNL1        0.0202
     32 C         -63.0845  -48.7036  -26.2031 C.ar    1  UNL1        0.1946
     33 O         -62.1243  -47.9745  -25.6627 O.2     1  UNL1       -0.4492
     34 C         -61.5864  -47.2490  -26.6124 C.ar    1  UNL1        0.1452
     35 C         -60.5434  -46.3377  -26.4900 C.ar    1  UNL1        0.0375
     36 C         -60.1197  -45.6601  -27.6462 C.ar    1  UNL1        0.0031
     37 C         -60.7408  -45.9020  -28.9013 C.ar    1  UNL1        0.0002
     38 C         -61.7994  -46.8386  -28.9825 C.ar    1  UNL1        0.0028
     39 C         -62.1941  -47.4931  -27.8147 C.ar    1  UNL1        0.0337
     40 C         -60.2847  -45.1800  -30.1161 C.ar    1  UNL1        0.0000
     41 C         -58.9453  -45.2691  -30.5412 C.ar    1  UNL1        0.0000
     42 C         -58.5185  -44.5873  -31.6850 C.ar    1  UNL1        0.0000
     43 C         -59.4206  -43.8115  -32.4163 C.ar    1  UNL1        0.0000
     44 C         -60.7518  -43.7154  -32.0053 C.ar    1  UNL1        0.0000
     45 C         -61.1841  -44.3942  -30.8618 C.ar    1  UNL1        0.0000
@<TRIPOS>BOND
     1    30    31    1
     2    31    32   ar
     3    32    26    1
     4    26    27    2
     5    26    28   am
     6    28     1    1
     7     1     2   ar
     8     2     3   ar
     9     3     4   ar
    10     4     7    1
    11     7     8    1
    12     8     9    1
    13     9    10    1
    14    10    13    1
    15    13    14    1
    16    14    15    1
    17    15    16   ar
    18    16    17   ar
    19    17    22    1
    20    22    23    2
    21    22    24    1
    22    17    18   ar
    23    18    19   ar
    24    19    20   ar
    25    20    21    1
    26    10    11    1
    27    11    12    1
    28     4     5   ar
    29     5     6   ar
    30    32    33   ar
    31    33    34   ar
    32    34    35   ar
    33    35    36   ar
    34    36    37   ar
    35    37    40    1
    36    40    41   ar
    37    41    42   ar
    38    42    43   ar
    39    43    44   ar
    40    44    45   ar
    41    37    38   ar
    42    38    39   ar
    43    39    31   ar
    44     6     1   ar
    45    39    34   ar
    46    12     7    1
    47    45    40   ar
    48    20    15   ar
    49    28    29    1
    50    24    25    1
@<TRIPOS>MOLECULE
*****
 45 50 0 0 0
SMALL
GASTEIGER

@<TRIPOS>ATOM
      1 C         -64.3700  -52.1153  -24.6516 C.ar    1  UNL1        0.0702
      2 C         -63.7313  -52.4255  -23.4455 C.ar    1  UNL1        0.0191
      3 C         -64.2761  -53.3795  -22.5848 C.ar    1  UNL1        0.0356
      4 C         -65.4793  -54.0191  -22.9291 C.ar    1  UNL1        0.1318
      5 N         -66.0987  -53.6767  -24.0937 N.ar    1  UNL1       -0.2279
      6 C         -65.5846  -52.7534  -24.9486 C.ar    1  UNL1        0.1149
      7 N         -66.0771  -55.0101  -22.0653 N.pl3   1  UNL1       -0.2932
      8 C         -66.8041  -54.6082  -20.8485 C.3     1  UNL1        0.0923
      9 C         -66.8075  -55.7354  -19.8086 C.3     1  UNL1        0.0252
     10 C         -67.3707  -57.0651  -20.3705 C.3     1  UNL1        0.0472
     11 C         -67.1128  -57.2344  -21.8898 C.3     1  UNL1        0.0252
     12 C         -65.8940  -56.4389  -22.3630 C.3     1  UNL1        0.0923
     13 C         -68.8737  -57.2047  -20.0511 C.3     1  UNL1        0.2054
     14 O         -69.4096  -55.9815  -19.5426 O.3     1  UNL1       -0.4746
     15 C         -70.0767  -55.8232  -18.3154 C.ar    1  UNL1        0.1492
     16 C         -69.4585  -56.0926  -17.0771 C.ar    1  UNL1        0.0442
     17 C         -70.1622  -55.9237  -15.8712 C.ar    1  UNL1        0.0785
     18 C         -71.4932  -55.4757  -15.9137 C.ar    1  UNL1        0.0075
     19 C         -72.1071  -55.2013  -17.1366 C.ar    1  UNL1        0.0147
     20 C         -71.4048  -55.3718  -18.3322 C.ar    1  UNL1        0.0915
     21 CL        -72.2086  -55.0255  -19.8560 Cl      1  UNL1       -0.0791
     22 C         -69.5069  -56.2139  -14.5760 C.2     1  UNL1        0.3381
     23 O         -69.9549  -57.1202  -13.8224 O.2     1  UNL1       -0.2451
     24 O         -68.3871  -55.4885  -14.1769 O.3     1  UNL1       -0.4771
     25 H         -67.9311  -55.6797  -13.2927 H       1  UNL1        0.2954
     26 C         -63.9849  -49.6996  -25.3308 C.2     1  UNL1        0.2839
     27 O         -64.8602  -49.2687  -24.5326 O.2     1  UNL1       -0.2665
     28 N         -63.8089  -51.1133  -25.5172 N.am    1  UNL1       -0.2766
     29 H         -63.3145  -51.4363  -26.3796 H       1  UNL1        0.1553
     30 C         -64.1428  -49.1527  -28.4850 C.3     1  UNL1        0.0345
     31 C         -63.2313  -48.5082  -27.4845 C.ar    1  UNL1        0.0202
     32 C         -63.1650  -48.7505  -26.1078 C.ar    1  UNL1        0.1946
     33 O         -62.2366  -47.9876  -25.5587 O.2     1  UNL1       -0.4492
     34 C         -61.6968  -47.2634  -26.5084 C.ar    1  UNL1        0.1452
     35 C         -60.6811  -46.3228  -26.3783 C.ar    1  UNL1        0.0375
     36 C         -60.2495  -45.6529  -27.5362 C.ar    1  UNL1        0.0031
     37 C         -60.8359  -45.9315  -28.8003 C.ar    1  UNL1        0.0002
     38 C         -61.8674  -46.8970  -28.8891 C.ar    1  UNL1        0.0028
     39 C         -62.2708  -47.5429  -27.7194 C.ar    1  UNL1        0.0337
     40 C         -60.3718  -45.2172  -30.0167 C.ar    1  UNL1        0.0000
     41 C         -59.0475  -45.3642  -30.4717 C.ar    1  UNL1        0.0000
     42 C         -58.6131  -44.6896  -31.6169 C.ar    1  UNL1        0.0000
     43 C         -59.4927  -43.8635  -32.3200 C.ar    1  UNL1        0.0000
     44 C         -60.8088  -43.7097  -31.8791 C.ar    1  UNL1        0.0000
     45 C         -61.2485  -44.3810  -30.7341 C.ar    1  UNL1        0.0000
@<TRIPOS>BOND
     1    30    31    1
     2    31    32   ar
     3    32    26    1
     4    26    27    2
     5    26    28   am
     6    28     1    1
     7     1     2   ar
     8     2     3   ar
     9     3     4   ar
    10     4     7    1
    11     7     8    1
    12     8     9    1
    13     9    10    1
    14    10    13    1
    15    13    14    1
    16    14    15    1
    17    15    16   ar
    18    16    17   ar
    19    17    22    1
    20    22    23    2
    21    22    24    1
    22    17    18   ar
    23    18    19   ar
    24    19    20   ar
    25    20    21    1
    26    10    11    1
    27    11    12    1
    28     4     5   ar
    29     5     6   ar
    30    32    33   ar
    31    33    34   ar
    32    34    35   ar
    33    35    36   ar
    34    36    37   ar
    35    37    40    1
    36    40    41   ar
    37    41    42   ar
    38    42    43   ar
    39    43    44   ar
    40    44    45   ar
    41    37    38   ar
    42    38    39   ar
    43    39    31   ar
    44     6     1   ar
    45    39    34   ar
    46    12     7    1
    47    45    40   ar
    48    20    15   ar
    49    28    29    1
    50    24    25    1
@<TRIPOS>MOLECULE
*****
 45 50 0 0 0
SMALL
GASTEIGER

@<TRIPOS>ATOM
      1 C         -64.3250  -52.1000  -24.6378 C.ar    1  UNL1        0.0702
      2 C         -63.6343  -52.4847  -23.4829 C.ar    1  UNL1        0.0191
      3 C         -64.1831  -53.4308  -22.6160 C.ar    1  UNL1        0.0356
      4 C         -65.4419  -53.9869  -22.9016 C.ar    1  UNL1        0.1318
      5 N         -66.1089  -53.5725  -24.0155 N.ar    1  UNL1       -0.2279
      6 C         -65.5922  -52.6555  -24.8755 C.ar    1  UNL1        0.1149
      7 N         -66.0455  -54.9667  -22.0292 N.pl3   1  UNL1       -0.2932
      8 C         -66.8739  -54.5477  -20.8852 C.3     1  UNL1        0.0923
      9 C         -66.8904  -55.6224  -19.7912 C.3     1  UNL1        0.0252
     10 C         -67.3445  -57.0063  -20.3200 C.3     1  UNL1        0.0472
     11 C         -66.9749  -57.2336  -21.8084 C.3     1  UNL1        0.0252
     12 C         -65.7691  -56.3960  -22.2405 C.3     1  UNL1        0.0923
     13 C         -68.8566  -57.2127  -20.0934 C.3     1  UNL1        0.2054
     14 O         -69.5269  -55.9641  -19.9105 O.3     1  UNL1       -0.4746
     15 C         -70.6971  -55.7612  -19.1585 C.ar    1  UNL1        0.1492
     16 C         -71.9784  -55.7265  -19.7461 C.ar    1  UNL1        0.0442
     17 C         -73.1245  -55.5182  -18.9582 C.ar    1  UNL1        0.0785
     18 C         -72.9787  -55.3500  -17.5709 C.ar    1  UNL1        0.0075
     19 C         -71.7132  -55.3903  -16.9839 C.ar    1  UNL1        0.0147
     20 C         -70.5772  -55.5960  -17.7707 C.ar    1  UNL1        0.0915
     21 CL        -68.9971  -55.6335  -17.0025 Cl      1  UNL1       -0.0791
     22 C         -74.4653  -55.4782  -19.5842 C.2     1  UNL1        0.3381
     23 O         -75.0345  -56.5443  -19.9437 O.2     1  UNL1       -0.2451
     24 O         -75.1124  -54.2609  -19.7818 O.3     1  UNL1       -0.4771
     25 H         -76.0303  -54.2228  -20.2088 H       1  UNL1        0.2954
     26 C         -63.9699  -49.6934  -25.3639 C.2     1  UNL1        0.2839
     27 O         -64.8801  -49.2631  -24.6056 O.2     1  UNL1       -0.2665
     28 N         -63.7573  -51.1070  -25.5093 N.am    1  UNL1       -0.2766
     29 H         -63.2279  -51.4395  -26.3470 H       1  UNL1        0.1553
     30 C         -64.1190  -49.1398  -28.5174 C.3     1  UNL1        0.0345
     31 C         -63.2078  -48.5000  -27.5136 C.ar    1  UNL1        0.0202
     32 C         -63.1453  -48.7453  -26.1372 C.ar    1  UNL1        0.1946
     33 O         -62.2158  -47.9862  -25.5845 O.2     1  UNL1       -0.4492
     34 C         -61.6717  -47.2618  -26.5315 C.ar    1  UNL1        0.1452
     35 C         -60.6535  -46.3245  -26.3974 C.ar    1  UNL1        0.0375
     36 C         -60.2173  -45.6537  -27.5529 C.ar    1  UNL1        0.0031
     37 C         -60.8017  -45.9279  -28.8189 C.ar    1  UNL1        0.0002
     38 C         -61.8360  -46.8901  -28.9119 C.ar    1  UNL1        0.0028
     39 C         -62.2439  -47.5372  -27.7444 C.ar    1  UNL1        0.0337
     40 C         -60.3328  -45.2126  -30.0328 C.ar    1  UNL1        0.0000
     41 C         -59.0023  -45.3467  -30.4736 C.ar    1  UNL1        0.0000
     42 C         -58.5633  -44.6712  -31.6165 C.ar    1  UNL1        0.0000
     43 C         -59.4445  -43.8569  -32.3314 C.ar    1  UNL1        0.0000
     44 C         -60.7666  -43.7160  -31.9047 C.ar    1  UNL1        0.0000
     45 C         -61.2109  -44.3883  -30.7620 C.ar    1  UNL1        0.0000
@<TRIPOS>BOND
     1    30    31    1
     2    31    32   ar
     3    32    26    1
     4    26    27    2
     5    26    28   am
     6    28     1    1
     7     1     2   ar
     8     2     3   ar
     9     3     4   ar
    10     4     7    1
    11     7     8    1
    12     8     9    1
    13     9    10    1
    14    10    13    1
    15    13    14    1
    16    14    15    1
    17    15    16   ar
    18    16    17   ar
    19    17    22    1
    20    22    23    2
    21    22    24    1
    22    17    18   ar
    23    18    19   ar
    24    19    20   ar
    25    20    21    1
    26    10    11    1
    27    11    12    1
    28     4     5   ar
    29     5     6   ar
    30    32    33   ar
    31    33    34   ar
    32    34    35   ar
    33    35    36   ar
    34    36    37   ar
    35    37    40    1
    36    40    41   ar
    37    41    42   ar
    38    42    43   ar
    39    43    44   ar
    40    44    45   ar
    41    37    38   ar
    42    38    39   ar
    43    39    31   ar
    44     6     1   ar
    45    39    34   ar
    46    12     7    1
    47    45    40   ar
    48    20    15   ar
    49    28    29    1
    50    24    25    1
@<TRIPOS>MOLECULE
*****
 45 50 0 0 0
SMALL
GASTEIGER

@<TRIPOS>ATOM
      1 C         -64.3489  -52.1371  -24.6846 C.ar    1  UNL1        0.0702
      2 C         -63.7004  -52.4691  -23.4895 C.ar    1  UNL1        0.0191
      3 C         -64.2511  -53.4206  -22.6298 C.ar    1  UNL1        0.0356
      4 C         -65.4701  -54.0355  -22.9637 C.ar    1  UNL1        0.1318
      5 N         -66.0982  -53.6719  -24.1172 N.ar    1  UNL1       -0.2279
      6 C         -65.5787  -52.7507  -24.9710 C.ar    1  UNL1        0.1149
      7 N         -66.0745  -55.0229  -22.1004 N.pl3   1  UNL1       -0.2932
      8 C         -66.7315  -54.6233  -20.8437 C.3     1  UNL1        0.0923
      9 C         -66.7413  -55.7773  -19.8336 C.3     1  UNL1        0.0252
     10 C         -67.3857  -57.0656  -20.4044 C.3     1  UNL1        0.0472
     11 C         -67.1994  -57.2044  -21.9372 C.3     1  UNL1        0.0252
     12 C         -65.9674  -56.4497  -22.4420 C.3     1  UNL1        0.0923
     13 C         -68.8787  -57.1489  -20.0243 C.3     1  UNL1        0.2054
     14 O         -69.2083  -56.1954  -19.0125 O.3     1  UNL1       -0.4746
     15 C         -70.5003  -55.7330  -18.7076 C.ar    1  UNL1        0.1492
     16 C         -71.4166  -56.4907  -17.9496 C.ar    1  UNL1        0.0442
     17 C         -72.7014  -55.9926  -17.6686 C.ar    1  UNL1        0.0785
     18 C         -73.0621  -54.7226  -18.1492 C.ar    1  UNL1        0.0075
     19 C         -72.1563  -53.9661  -18.8942 C.ar    1  UNL1        0.0147
     20 C         -70.8814  -54.4655  -19.1721 C.ar    1  UNL1        0.0915
     21 CL        -69.7667  -53.4919  -20.1196 Cl      1  UNL1       -0.0791
     22 C         -73.6587  -56.7972  -16.8764 C.2     1  UNL1        0.3381
     23 O         -74.7267  -57.2165  -17.3993 O.2     1  UNL1       -0.2451
     24 O         -73.3884  -57.0999  -15.5442 O.3     1  UNL1       -0.4771
     25 H         -74.0367  -57.6502  -14.9937 H       1  UNL1        0.2954
     26 C         -63.9923  -49.7254  -25.3928 C.2     1  UNL1        0.2839
     27 O         -64.9016  -49.3000  -24.6306 O.2     1  UNL1       -0.2665
     28 N         -63.7811  -51.1380  -25.5490 N.am    1  UNL1       -0.2766
     29 H         -63.2525  -51.4646  -26.3895 H       1  UNL1        0.1553
     30 C         -64.1557  -49.1347  -28.5389 C.3     1  UNL1        0.0345
     31 C         -63.2362  -48.5107  -27.5326 C.ar    1  UNL1        0.0202
     32 C         -63.1675  -48.7722  -26.1595 C.ar    1  UNL1        0.1946
     33 O         -62.2315  -48.0238  -25.6032 O.2     1  UNL1       -0.4492
     34 C         -61.6892  -47.2910  -26.5447 C.ar    1  UNL1        0.1452
     35 C         -60.6659  -46.3600  -26.4052 C.ar    1  UNL1        0.0375
     36 C         -60.2328  -45.6778  -27.5553 C.ar    1  UNL1        0.0031
     37 C         -60.8252  -45.9347  -28.8212 C.ar    1  UNL1        0.0002
     38 C         -61.8644  -46.8911  -28.9197 C.ar    1  UNL1        0.0028
     39 C         -62.2691  -47.5497  -27.7576 C.ar    1  UNL1        0.0337
     40 C         -60.3594  -45.2077  -30.0293 C.ar    1  UNL1        0.0000
     41 C         -59.0270  -45.3283  -30.4682 C.ar    1  UNL1        0.0000
     42 C         -58.5911  -44.6417  -31.6056 C.ar    1  UNL1        0.0000
     43 C         -59.4772  -43.8296  -32.3169 C.ar    1  UNL1        0.0000
     44 C         -60.8013  -43.7019  -31.8920 C.ar    1  UNL1        0.0000
     45 C         -61.2426  -44.3854  -30.7548 C.ar    1  UNL1        0.0000
@<TRIPOS>BOND
     1    30    31    1
     2    31    32   ar
     3    32    26    1
     4    26    27    2
     5    26    28   am
     6    28     1    1
     7     1     2   ar
     8     2     3   ar
     9     3     4   ar
    10     4     7    1
    11     7     8    1
    12     8     9    1
    13     9    10    1
    14    10    13    1
    15    13    14    1
    16    14    15    1
    17    15    16   ar
    18    16    17   ar
    19    17    22    1
    20    22    23    2
    21    22    24    1
    22    17    18   ar
    23    18    19   ar
    24    19    20   ar
    25    20    21    1
    26    10    11    1
    27    11    12    1
    28     4     5   ar
    29     5     6   ar
    30    32    33   ar
    31    33    34   ar
    32    34    35   ar
    33    35    36   ar
    34    36    37   ar
    35    37    40    1
    36    40    41   ar
    37    41    42   ar
    38    42    43   ar
    39    43    44   ar
    40    44    45   ar
    41    37    38   ar
    42    38    39   ar
    43    39    31   ar
    44     6     1   ar
    45    39    34   ar
    46    12     7    1
    47    45    40   ar
    48    20    15   ar
    49    28    29    1
    50    24    25    1
@<TRIPOS>MOLECULE
*****
 45 50 0 0 0
SMALL
GASTEIGER

@<TRIPOS>ATOM
      1 C         -62.4610  -41.1021  -20.1845 C.ar    1  UNL1        0.0702
      2 C         -62.9931  -41.7860  -21.2836 C.ar    1  UNL1        0.0191
      3 C         -62.3290  -42.8931  -21.8135 C.ar    1  UNL1        0.0356
      4 C         -61.1131  -43.3111  -21.2456 C.ar    1  UNL1        0.1318
      5 N         -60.5994  -42.6095  -20.1963 N.ar    1  UNL1       -0.2279
      6 C         -61.2305  -41.5309  -19.6618 C.ar    1  UNL1        0.1149
      7 N         -60.3936  -44.4501  -21.7656 N.pl3   1  UNL1       -0.2932
      8 C         -60.9197  -45.8156  -21.5940 C.3     1  UNL1        0.0923
      9 C         -59.7910  -46.8529  -21.6395 C.3     1  UNL1        0.0252
     10 C         -58.9378  -46.7514  -22.9291 C.3     1  UNL1        0.0472
     11 C         -58.8663  -45.3088  -23.4922 C.3     1  UNL1        0.0252
     12 C         -59.0849  -44.2516  -22.4074 C.3     1  UNL1        0.0923
     13 C         -59.4464  -47.7345  -24.0040 C.3     1  UNL1        0.2054
     14 O         -60.8741  -47.7427  -24.0626 O.3     1  UNL1       -0.4746
     15 C         -61.6919  -48.8857  -24.0324 C.ar    1  UNL1        0.1492
     16 C         -61.3165  -50.0680  -23.3621 C.ar    1  UNL1        0.0442
     17 C         -62.1629  -51.1911  -23.3581 C.ar    1  UNL1        0.0785
     18 C         -63.3959  -51.1199  -24.0280 C.ar    1  UNL1        0.0075
     19 C         -63.7748  -49.9496  -24.6871 C.ar    1  UNL1        0.0147
     20 C         -62.9301  -48.8368  -24.6898 C.ar    1  UNL1        0.0915
     21 CL        -63.4325  -47.3807  -25.5357 Cl      1  UNL1       -0.0791
     22 C         -61.7584  -52.4300  -22.6561 C.2     1  UNL1        0.3381
     23 O         -60.5569  -52.6096  -22.3186 O.2     1  UNL1       -0.2451
     24 O         -62.7023  -53.4103  -22.3603 O.3     1  UNL1       -0.4771
     25 H         -62.4358  -54.2613  -21.8798 H       1  UNL1        0.2954
     26 C         -63.0968  -38.6457  -20.2669 C.2     1  UNL1        0.2839
     27 O         -62.2383  -38.3874  -21.1529 O.2     1  UNL1       -0.2665
     28 N         -63.1448  -39.9491  -19.6642 N.am    1  UNL1       -0.2766
     29 H         -63.6369  -40.0473  -18.7472 H       1  UNL1        0.1553
     30 C         -66.2888  -38.6532  -20.5570 C.3     1  UNL1        0.0345
     31 C         -65.4240  -37.5953  -19.9404 C.ar    1  UNL1        0.0202
     32 C         -64.0300  -37.5955  -19.8165 C.ar    1  UNL1        0.1946
     33 O         -63.6295  -36.4895  -19.2149 O.2     1  UNL1       -0.4492
     34 C         -64.6917  -35.7715  -18.9429 C.ar    1  UNL1        0.1452
     35 C         -64.7344  -34.5333  -18.3120 C.ar    1  UNL1        0.0375
     36 C         -65.9911  -33.9350  -18.1164 C.ar    1  UNL1        0.0031
     37 C         -67.1805  -34.5793  -18.5521 C.ar    1  UNL1        0.0002
     38 C         -67.0928  -35.8396  -19.1909 C.ar    1  UNL1        0.0028
     39 C         -65.8288  -36.4041  -19.3688 C.ar    1  UNL1        0.0337
     40 C         -68.5027  -33.9375  -18.3399 C.ar    1  UNL1        0.0000
     41 C         -69.6603  -34.4670  -18.9415 C.ar    1  UNL1        0.0000
     42 C         -70.9038  -33.8599  -18.7406 C.ar    1  UNL1        0.0000
     43 C         -71.0066  -32.7212  -17.9386 C.ar    1  UNL1        0.0000
     44 C         -69.8660  -32.1865  -17.3360 C.ar    1  UNL1        0.0000
     45 C         -68.6197  -32.7888  -17.5341 C.ar    1  UNL1        0.0000
@<TRIPOS>BOND
     1    30    31    1
     2    31    32   ar
     3    32    26    1
     4    26    27    2
     5    26    28   am
     6    28     1    1
     7     1     2   ar
     8     2     3   ar
     9     3     4   ar
    10     4     7    1
    11     7     8    1
    12     8     9    1
    13     9    10    1
    14    10    13    1
    15    13    14    1
    16    14    15    1
    17    15    16   ar
    18    16    17   ar
    19    17    22    1
    20    22    23    2
    21    22    24    1
    22    17    18   ar
    23    18    19   ar
    24    19    20   ar
    25    20    21    1
    26    10    11    1
    27    11    12    1
    28     4     5   ar
    29     5     6   ar
    30    32    33   ar
    31    33    34   ar
    32    34    35   ar
    33    35    36   ar
    34    36    37   ar
    35    37    40    1
    36    40    41   ar
    37    41    42   ar
    38    42    43   ar
    39    43    44   ar
    40    44    45   ar
    41    37    38   ar
    42    38    39   ar
    43    39    31   ar
    44     6     1   ar
    45    39    34   ar
    46    12     7    1
    47    45    40   ar
    48    20    15   ar
    49    28    29    1
    50    24    25    1
@<TRIPOS>MOLECULE
*****
 45 50 0 0 0
SMALL
GASTEIGER

@<TRIPOS>ATOM
      1 C         -62.4678  -40.8609  -20.1489 C.ar    1  UNL1        0.0702
      2 C         -62.8474  -41.4083  -21.3799 C.ar    1  UNL1        0.0191
      3 C         -62.1516  -42.4946  -21.9124 C.ar    1  UNL1        0.0356
      4 C         -61.0568  -43.0292  -21.2118 C.ar    1  UNL1        0.1318
      5 N         -60.6869  -42.4585  -20.0308 N.ar    1  UNL1       -0.2279
      6 C         -61.3519  -41.4027  -19.4916 C.ar    1  UNL1        0.1149
      7 N         -60.3091  -44.1511  -21.7294 N.pl3   1  UNL1       -0.2932
      8 C         -60.8777  -45.5101  -21.7060 C.3     1  UNL1        0.0923
      9 C         -59.7716  -46.5724  -21.7032 C.3     1  UNL1        0.0252
     10 C         -58.7848  -46.4106  -22.8869 C.3     1  UNL1        0.0472
     11 C         -58.6251  -44.9369  -23.3410 C.3     1  UNL1        0.0252
     12 C         -58.9362  -43.9468  -22.2162 C.3     1  UNL1        0.0923
     13 C         -59.1963  -47.3077  -24.0728 C.3     1  UNL1        0.2054
     14 O         -60.1044  -46.6295  -24.9430 O.3     1  UNL1       -0.4746
     15 C         -61.1867  -47.2164  -25.6215 C.ar    1  UNL1        0.1492
     16 C         -62.1393  -48.0266  -24.9701 C.ar    1  UNL1        0.0442
     17 C         -63.2065  -48.5975  -25.6863 C.ar    1  UNL1        0.0785
     18 C         -63.3170  -48.3458  -27.0641 C.ar    1  UNL1        0.0075
     19 C         -62.3804  -47.5391  -27.7119 C.ar    1  UNL1        0.0147
     20 C         -61.3209  -46.9751  -26.9968 C.ar    1  UNL1        0.0915
     21 CL        -60.1536  -45.9705  -27.8430 Cl      1  UNL1       -0.0791
     22 C         -64.1992  -49.4510  -24.9952 C.2     1  UNL1        0.3381
     23 O         -63.9124  -50.6381  -24.6813 O.2     1  UNL1       -0.2451
     24 O         -65.4609  -48.9504  -24.6840 O.3     1  UNL1       -0.4771
     25 H         -66.1470  -49.5262  -24.2108 H       1  UNL1        0.2954
     26 C         -63.1624  -38.4201  -20.2209 C.2     1  UNL1        0.2839
     27 O         -62.3095  -38.1372  -21.1048 O.2     1  UNL1       -0.2665
     28 N         -63.1797  -39.7270  -19.6242 N.am    1  UNL1       -0.2766
     29 H         -63.6702  -39.8412  -18.7082 H       1  UNL1        0.1553
     30 C         -66.3489  -38.4781  -20.5620 C.3     1  UNL1        0.0345
     31 C         -65.5127  -37.4166  -19.9130 C.ar    1  UNL1        0.0202
     32 C         -64.1211  -37.3947  -19.7668 C.ar    1  UNL1        0.1946
     33 O         -63.7497  -36.2929  -19.1394 O.2     1  UNL1       -0.4492
     34 C         -64.8286  -35.5987  -18.8716 C.ar    1  UNL1        0.1452
     35 C         -64.9031  -34.3729  -18.2194 C.ar    1  UNL1        0.0375
     36 C         -66.1731  -33.8004  -18.0333 C.ar    1  UNL1        0.0031
     37 C         -67.3439  -34.4573  -18.4993 C.ar    1  UNL1        0.0002
     38 C         -67.2239  -35.7041  -19.1590 C.ar    1  UNL1        0.0028
     39 C         -65.9475  -36.2432  -19.3267 C.ar    1  UNL1        0.0337
     40 C         -68.6805  -33.8427  -18.2967 C.ar    1  UNL1        0.0000
     41 C         -68.8274  -32.6984  -17.4895 C.ar    1  UNL1        0.0000
     42 C         -70.0873  -32.1225  -17.2998 C.ar    1  UNL1        0.0000
     43 C         -71.2122  -32.6795  -17.9123 C.ar    1  UNL1        0.0000
     44 C         -71.0796  -33.8141  -18.7155 C.ar    1  UNL1        0.0000
     45 C         -69.8223  -34.3949  -18.9080 C.ar    1  UNL1        0.0000
@<TRIPOS>BOND
     1    30    31    1
     2    31    32   ar
     3    32    26    1
     4    26    27    2
     5    26    28   am
     6    28     1    1
     7     1     2   ar
     8     2     3   ar
     9     3     4   ar
    10     4     7    1
    11     7     8    1
    12     8     9    1
    13     9    10    1
    14    10    13    1
    15    13    14    1
    16    14    15    1
    17    15    16   ar
    18    16    17   ar
    19    17    22    1
    20    22    23    2
    21    22    24    1
    22    17    18   ar
    23    18    19   ar
    24    19    20   ar
    25    20    21    1
    26    10    11    1
    27    11    12    1
    28     4     5   ar
    29     5     6   ar
    30    32    33   ar
    31    33    34   ar
    32    34    35   ar
    33    35    36   ar
    34    36    37   ar
    35    37    40    1
    36    40    41   ar
    37    41    42   ar
    38    42    43   ar
    39    43    44   ar
    40    44    45   ar
    41    37    38   ar
    42    38    39   ar
    43    39    31   ar
    44     6     1   ar
    45    39    34   ar
    46    12     7    1
    47    45    40   ar
    48    20    15   ar
    49    28    29    1
    50    24    25    1
@<TRIPOS>MOLECULE
*****
 45 50 0 0 0
SMALL
GASTEIGER

@<TRIPOS>ATOM
      1 C         -62.4842  -41.1230  -20.1760 C.ar    1  UNL1        0.0702
      2 C         -63.0888  -41.8966  -21.1734 C.ar    1  UNL1        0.0191
      3 C         -62.4299  -43.0092  -21.6985 C.ar    1  UNL1        0.0356
      4 C         -61.1475  -43.3422  -21.2296 C.ar    1  UNL1        0.1318
      5 N         -60.5668  -42.5549  -20.2809 N.ar    1  UNL1       -0.2279
      6 C         -61.1912  -41.4691  -19.7528 C.ar    1  UNL1        0.1149
      7 N         -60.4311  -44.4838  -21.7484 N.pl3   1  UNL1       -0.2932
      8 C         -61.0405  -45.8251  -21.7344 C.3     1  UNL1        0.0923
      9 C         -59.9669  -46.9203  -21.7306 C.3     1  UNL1        0.0252
     10 C         -58.9691  -46.7830  -22.9082 C.3     1  UNL1        0.0472
     11 C         -58.7626  -45.3128  -23.3545 C.3     1  UNL1        0.0252
     12 C         -59.0499  -44.3189  -22.2268 C.3     1  UNL1        0.0923
     13 C         -59.4008  -47.6620  -24.1004 C.3     1  UNL1        0.2054
     14 O         -60.4492  -48.5588  -23.7283 O.3     1  UNL1       -0.4746
     15 C         -61.6624  -48.7363  -24.4159 C.ar    1  UNL1        0.1492
     16 C         -62.0483  -47.9154  -25.4953 C.ar    1  UNL1        0.0442
     17 C         -63.2725  -48.1247  -26.1552 C.ar    1  UNL1        0.0785
     18 C         -64.1086  -49.1701  -25.7285 C.ar    1  UNL1        0.0075
     19 C         -63.7279  -49.9896  -24.6650 C.ar    1  UNL1        0.0147
     20 C         -62.5115  -49.7770  -24.0114 C.ar    1  UNL1        0.0915
     21 CL        -62.0645  -50.8211  -22.6704 Cl      1  UNL1       -0.0791
     22 C         -63.6719  -47.2547  -27.2842 C.2     1  UNL1        0.3381
     23 O         -63.6157  -45.9998  -27.1745 O.2     1  UNL1       -0.2451
     24 O         -64.1135  -47.8143  -28.4805 O.3     1  UNL1       -0.4771
     25 H         -64.3885  -47.2276  -29.2593 H       1  UNL1        0.2954
     26 C         -63.1219  -38.6676  -20.2752 C.2     1  UNL1        0.2839
     27 O         -62.2688  -38.4163  -21.1684 O.2     1  UNL1       -0.2665
     28 N         -63.1657  -39.9659  -19.6613 N.am    1  UNL1       -0.2766
     29 H         -63.6522  -40.0568  -18.7407 H       1  UNL1        0.1553
     30 C         -66.3151  -38.6763  -20.5522 C.3     1  UNL1        0.0345
     31 C         -65.4475  -37.6144  -19.9463 C.ar    1  UNL1        0.0202
     32 C         -64.0531  -37.6142  -19.8281 C.ar    1  UNL1        0.1946
     33 O         -63.6499  -36.5042  -19.2356 O.2     1  UNL1       -0.4492
     34 C         -64.7108  -35.7842  -18.9642 C.ar    1  UNL1        0.1452
     35 C         -64.7507  -34.5417  -18.3414 C.ar    1  UNL1        0.0375
     36 C         -66.0065  -33.9418  -18.1447 C.ar    1  UNL1        0.0031
     37 C         -67.1977  -34.5887  -18.5712 C.ar    1  UNL1        0.0002
     38 C         -67.1129  -35.8534  -19.2019 C.ar    1  UNL1        0.0028
     39 C         -65.8497  -36.4193  -19.3811 C.ar    1  UNL1        0.0337
     40 C         -68.5189  -33.9452  -18.3579 C.ar    1  UNL1        0.0000
     41 C         -69.6745  -34.4610  -18.9752 C.ar    1  UNL1        0.0000
     42 C         -70.9170  -33.8524  -18.7732 C.ar    1  UNL1        0.0000
     43 C         -71.0209  -32.7256  -17.9546 C.ar    1  UNL1        0.0000
     44 C         -69.8823  -32.2046  -17.3364 C.ar    1  UNL1        0.0000
     45 C         -68.6370  -32.8085  -17.5355 C.ar    1  UNL1        0.0000
@<TRIPOS>BOND
     1    30    31    1
     2    31    32   ar
     3    32    26    1
     4    26    27    2
     5    26    28   am
     6    28     1    1
     7     1     2   ar
     8     2     3   ar
     9     3     4   ar
    10     4     7    1
    11     7     8    1
    12     8     9    1
    13     9    10    1
    14    10    13    1
    15    13    14    1
    16    14    15    1
    17    15    16   ar
    18    16    17   ar
    19    17    22    1
    20    22    23    2
    21    22    24    1
    22    17    18   ar
    23    18    19   ar
    24    19    20   ar
    25    20    21    1
    26    10    11    1
    27    11    12    1
    28     4     5   ar
    29     5     6   ar
    30    32    33   ar
    31    33    34   ar
    32    34    35   ar
    33    35    36   ar
    34    36    37   ar
    35    37    40    1
    36    40    41   ar
    37    41    42   ar
    38    42    43   ar
    39    43    44   ar
    40    44    45   ar
    41    37    38   ar
    42    38    39   ar
    43    39    31   ar
    44     6     1   ar
    45    39    34   ar
    46    12     7    1
    47    45    40   ar
    48    20    15   ar
    49    28    29    1
    50    24    25    1
@<TRIPOS>MOLECULE
*****
 45 50 0 0 0
SMALL
GASTEIGER

@<TRIPOS>ATOM
      1 C         -64.8718  -52.9167  -24.9004 C.ar    1  UNL1        0.0702
      2 C         -64.9650  -53.3258  -26.2357 C.ar    1  UNL1        0.0191
      3 C         -65.9992  -54.1694  -26.6435 C.ar    1  UNL1        0.0356
      4 C         -66.9414  -54.6185  -25.7023 C.ar    1  UNL1        0.1318
      5 N         -66.8108  -54.2319  -24.4020 N.ar    1  UNL1       -0.2279
      6 C         -65.8140  -53.4082  -23.9831 C.ar    1  UNL1        0.1149
      7 N         -68.0250  -55.4939  -26.0831 N.pl3   1  UNL1       -0.2932
      8 C         -69.2926  -55.4937  -25.3321 C.3     1  UNL1        0.0923
      9 C         -70.0196  -56.8367  -25.4739 C.3     1  UNL1        0.0252
     10 C         -70.2576  -57.2340  -26.9526 C.3     1  UNL1        0.0472
     11 C         -69.1625  -56.6911  -27.9062 C.3     1  UNL1        0.0252
     12 C         -67.8343  -56.4490  -27.1854 C.3     1  UNL1        0.0923
     13 C         -71.6599  -56.7937  -27.4217 C.3     1  UNL1        0.2054
     14 O         -71.6613  -55.4251  -27.8324 O.3     1  UNL1       -0.4746
     15 C         -72.7912  -54.6836  -28.2192 C.ar    1  UNL1        0.1492
     16 C         -73.3023  -53.6224  -27.4442 C.ar    1  UNL1        0.0442
     17 C         -74.4373  -52.9069  -27.8656 C.ar    1  UNL1        0.0785
     18 C         -75.0563  -53.2591  -29.0767 C.ar    1  UNL1        0.0075
     19 C         -74.5501  -54.3043  -29.8506 C.ar    1  UNL1        0.0147
     20 C         -73.4232  -55.0134  -29.4273 C.ar    1  UNL1        0.0915
     21 CL        -72.8150  -56.3295  -30.4203 Cl      1  UNL1       -0.0791
     22 C         -74.9701  -51.7975  -27.0430 C.2     1  UNL1        0.3381
     23 O         -75.2015  -50.6718  -27.5617 O.2     1  UNL1       -0.2451
     24 O         -75.2221  -51.9867  -25.6865 O.3     1  UNL1       -0.4771
     25 H         -75.5873  -51.2342  -25.1150 H       1  UNL1        0.2954
     26 C         -63.5832  -50.7308  -24.9799 C.2     1  UNL1        0.2839
     27 O         -64.2101  -50.3241  -25.9949 O.2     1  UNL1       -0.2665
     28 N         -63.7872  -52.0662  -24.4904 N.am    1  UNL1       -0.2766
     29 H         -63.0580  -52.4751  -23.8631 H       1  UNL1        0.1553
     30 C         -62.2665  -48.0663  -26.1799 C.3     1  UNL1        0.0345
     31 C         -62.0294  -48.6837  -24.8346 C.ar    1  UNL1        0.0202
     32 C         -62.6059  -49.8481  -24.3147 C.ar    1  UNL1        0.1946
     33 O         -62.1506  -50.0721  -23.0948 O.2     1  UNL1       -0.4492
     34 C         -61.3080  -49.1135  -22.7970 C.ar    1  UNL1        0.1452
     35 C         -60.5957  -48.9535  -21.6136 C.ar    1  UNL1        0.0375
     36 C         -59.7408  -47.8434  -21.5026 C.ar    1  UNL1        0.0031
     37 C         -59.6106  -46.9145  -22.5701 C.ar    1  UNL1        0.0002
     38 C         -60.3536  -47.1145  -23.7585 C.ar    1  UNL1        0.0028
     39 C         -61.1924  -48.2274  -23.8342 C.ar    1  UNL1        0.0337
     40 C         -58.7043  -45.7452  -22.4412 C.ar    1  UNL1        0.0000
     41 C         -57.3082  -45.9228  -22.3981 C.ar    1  UNL1        0.0000
     42 C         -56.4574  -44.8199  -22.2757 C.ar    1  UNL1        0.0000
     43 C         -56.9881  -43.5305  -22.1960 C.ar    1  UNL1        0.0000
     44 C         -58.3710  -43.3411  -22.2380 C.ar    1  UNL1        0.0000
     45 C         -59.2267  -44.4403  -22.3594 C.ar    1  UNL1        0.0000
@<TRIPOS>BOND
     1    30    31    1
     2    31    32   ar
     3    32    26    1
     4    26    27    2
     5    26    28   am
     6    28     1    1
     7     1     2   ar
     8     2     3   ar
     9     3     4   ar
    10     4     7    1
    11     7     8    1
    12     8     9    1
    13     9    10    1
    14    10    13    1
    15    13    14    1
    16    14    15    1
    17    15    16   ar
    18    16    17   ar
    19    17    22    1
    20    22    23    2
    21    22    24    1
    22    17    18   ar
    23    18    19   ar
    24    19    20   ar
    25    20    21    1
    26    10    11    1
    27    11    12    1
    28     4     5   ar
    29     5     6   ar
    30    32    33   ar
    31    33    34   ar
    32    34    35   ar
    33    35    36   ar
    34    36    37   ar
    35    37    40    1
    36    40    41   ar
    37    41    42   ar
    38    42    43   ar
    39    43    44   ar
    40    44    45   ar
    41    37    38   ar
    42    38    39   ar
    43    39    31   ar
    44     6     1   ar
    45    39    34   ar
    46    12     7    1
    47    45    40   ar
    48    20    15   ar
    49    28    29    1
    50    24    25    1
