@<TRIPOS>MOLECULE
*****
 46 51 0 0 0
SMALL
GASTEIGER

@<TRIPOS>ATOM
      1 C          60.4905   85.8308   12.2981 C.ar    1  UNL1        0.0702
      2 C          59.0916   85.8884   12.2935 C.ar    1  UNL1        0.0191
      3 C          58.3482   84.8928   11.6585 C.ar    1  UNL1        0.0356
      4 C          59.0116   83.8180   11.0462 C.ar    1  UNL1        0.1318
      5 N          60.3728   83.7781   11.0682 N.ar    1  UNL1       -0.2279
      6 C          61.1175   84.7387   11.6766 C.ar    1  UNL1        0.1149
      7 N          58.2813   82.7842   10.3598 N.pl3   1  UNL1       -0.2932
      8 C          58.6518   81.3796   10.5817 C.3     1  UNL1        0.0923
      9 C          58.0059   80.4551    9.5363 C.3     1  UNL1        0.0252
     10 C          58.0266   81.0879    8.1265 C.3     1  UNL1        0.0472
     11 C          57.3333   82.4825    8.1029 C.3     1  UNL1        0.0252
     12 C          57.1318   83.0916    9.4986 C.3     1  UNL1        0.0923
     13 C          59.4632   81.1625    7.5762 C.3     1  UNL1        0.2054
     14 O          59.6699   82.4197    6.9351 O.3     1  UNL1       -0.4755
     15 C          60.5121   83.4300    7.4223 C.ar    1  UNL1        0.1388
     16 C          61.8371   83.1786    7.8236 C.ar    1  UNL1        0.0369
     17 C          62.6344   84.2197    8.3035 C.ar    1  UNL1        0.0033
     18 C          62.1227   85.5165    8.3882 C.ar    1  UNL1        0.0066
     19 C          60.8012   85.7865    7.9914 C.ar    1  UNL1        0.0785
     20 C          60.0048   84.7325    7.5091 C.ar    1  UNL1        0.0433
     21 C          60.2527   87.1580    8.0785 C.2     1  UNL1        0.3381
     22 O          59.0842   87.4055    7.6748 O.2     1  UNL1       -0.2451
     23 O          61.0234   88.1900    8.6082 O.3     1  UNL1       -0.4771
     24 H          60.6574   89.1325    8.6724 H       1  UNL1        0.2954
     25 C          61.9035   87.9372   12.3048 C.2     1  UNL1        0.2839
     26 O          61.5145   88.3066   11.1644 O.2     1  UNL1       -0.2665
     27 N          61.2431   86.8524   12.9745 N.am    1  UNL1       -0.2766
     28 H          61.2340   86.8599   14.0197 H       1  UNL1        0.1553
     29 C          66.0499   90.5281   13.5776 C.ar    1  UNL1       -0.0194
     30 C          66.4193   90.9937   14.8772 C.ar    1  UNL1       -0.0038
     31 C          65.5796   90.7550   15.9879 C.ar    1  UNL1        0.0028
     32 C          64.3801   90.0531   15.8426 C.ar    1  UNL1        0.0375
     33 C          64.0276   89.6121   14.5758 C.ar    1  UNL1        0.1449
     34 O          62.9461   88.9436   14.2689 O.2     1  UNL1       -0.4492
     35 C          62.9658   88.7070   12.9755 C.ar    1  UNL1        0.1946
     36 C          64.1054   89.2797   12.3978 C.ar    1  UNL1        0.0199
     37 C          64.4295   89.3153   10.9312 C.3     1  UNL1        0.0345
     38 C          64.8115   89.8445   13.4657 C.ar    1  UNL1        0.0297
     39 C          67.6734   91.7348   15.1166 C.ar    1  UNL1       -0.0003
     40 C          67.6387   92.9947   15.7334 C.ar    1  UNL1       -0.0000
     41 C          68.8274   93.6894   15.9779 C.ar    1  UNL1       -0.0000
     42 C          70.0550   93.1251   15.6184 C.ar    1  UNL1       -0.0000
     43 C          70.0960   91.8635   15.0177 C.ar    1  UNL1       -0.0000
     44 C          68.9094   91.1659   14.7715 C.ar    1  UNL1       -0.0000
     45 C          66.4507   92.0355   11.6135 C.3     1  UNL1        0.0050
     46 C          66.9347   90.8067   12.3801 C.3     1  UNL1        0.0265
@<TRIPOS>BOND
     1    45    46    1
     2    46    29    1
     3    29    30   ar
     4    30    39    1
     5    39    40   ar
     6    40    41   ar
     7    41    42   ar
     8    42    43   ar
     9    43    44   ar
    10    30    31   ar
    11    31    32   ar
    12    32    33   ar
    13    33    34   ar
    14    34    35   ar
    15    35    25    1
    16    25    26    2
    17    25    27   am
    18    27     1    1
    19     1     2   ar
    20     2     3   ar
    21     3     4   ar
    22     4     7    1
    23     7     8    1
    24     8     9    1
    25     9    10    1
    26    10    13    1
    27    13    14    1
    28    14    15    1
    29    15    16   ar
    30    16    17   ar
    31    17    18   ar
    32    18    19   ar
    33    19    21    1
    34    21    22    2
    35    21    23    1
    36    19    20   ar
    37    10    11    1
    38    11    12    1
    39     4     5   ar
    40     5     6   ar
    41    35    36   ar
    42    36    37    1
    43    36    38   ar
    44    38    29   ar
    45    44    39   ar
    46    38    33   ar
    47     6     1   ar
    48    12     7    1
    49    20    15   ar
    50    27    28    1
    51    23    24    1
@<TRIPOS>MOLECULE
*****
 46 51 0 0 0
SMALL
GASTEIGER

@<TRIPOS>ATOM
      1 C          60.4402   85.7558   12.3259 C.ar    1  UNL1        0.0702
      2 C          60.6798   84.4146   12.6484 C.ar    1  UNL1        0.0191
      3 C          59.9741   83.3985   12.0029 C.ar    1  UNL1        0.0356
      4 C          59.0401   83.7285   11.0084 C.ar    1  UNL1        0.1318
      5 N          58.8273   85.0392   10.7055 N.ar    1  UNL1       -0.2279
      6 C          59.4996   86.0456   11.3241 C.ar    1  UNL1        0.1149
      7 N          58.2746   82.7105   10.3370 N.pl3   1  UNL1       -0.2932
      8 C          58.5054   81.3002   10.6794 C.3     1  UNL1        0.0923
      9 C          57.8591   80.3579    9.6503 C.3     1  UNL1        0.0252
     10 C          58.0362   80.8831    8.2076 C.3     1  UNL1        0.0472
     11 C          57.4695   82.3241    8.0378 C.3     1  UNL1        0.0252
     12 C          57.2213   83.0470    9.3702 C.3     1  UNL1        0.0923
     13 C          59.5098   80.8008    7.7674 C.3     1  UNL1        0.2054
     14 O          59.9446   82.0746    7.2954 O.3     1  UNL1       -0.4755
     15 C          60.8463   82.9070    7.9746 C.ar    1  UNL1        0.1388
     16 C          60.8817   84.2998    7.7777 C.ar    1  UNL1        0.0369
     17 C          61.8005   85.0843    8.4779 C.ar    1  UNL1        0.0033
     18 C          62.6896   84.4925    9.3778 C.ar    1  UNL1        0.0066
     19 C          62.6685   83.1025    9.5877 C.ar    1  UNL1        0.0785
     20 C          61.7400   82.3194    8.8787 C.ar    1  UNL1        0.0433
     21 C          63.6077   82.4690   10.5395 C.2     1  UNL1        0.3381
     22 O          63.4737   82.6437   11.7811 O.2     1  UNL1       -0.2451
     23 O          64.6501   81.6724   10.0722 O.3     1  UNL1       -0.4771
     24 H          65.2986   81.2342   10.7153 H       1  UNL1        0.2954
     25 C          61.8830   87.8416   12.2925 C.2     1  UNL1        0.2839
     26 O          61.5293   88.1734   11.1293 O.2     1  UNL1       -0.2665
     27 N          61.1898   86.7914   12.9839 N.am    1  UNL1       -0.2766
     28 H          61.1535   86.8380   14.0275 H       1  UNL1        0.1553
     29 C          66.0035   90.4758   13.5604 C.ar    1  UNL1       -0.0194
     30 C          66.3719   90.9412   14.8604 C.ar    1  UNL1       -0.0038
     31 C          65.5388   90.6890   15.9730 C.ar    1  UNL1        0.0028
     32 C          64.3470   89.9737   15.8293 C.ar    1  UNL1        0.0375
     33 C          63.9954   89.5331   14.5622 C.ar    1  UNL1        0.1449
     34 O          62.9206   88.8532   14.2565 O.2     1  UNL1       -0.4492
     35 C          62.9387   88.6213   12.9622 C.ar    1  UNL1        0.1946
     36 C          64.0697   89.2091   12.3828 C.ar    1  UNL1        0.0199
     37 C          64.3884   89.2534   10.9152 C.3     1  UNL1        0.0345
     38 C          64.7728   89.7783   13.4503 C.ar    1  UNL1        0.0297
     39 C          67.6182   91.6958   15.0982 C.ar    1  UNL1       -0.0003
     40 C          67.5728   92.9455   15.7350 C.ar    1  UNL1       -0.0000
     41 C          68.7543   93.6528   15.9778 C.ar    1  UNL1       -0.0000
     42 C          69.9857   93.1114   15.5967 C.ar    1  UNL1       -0.0000
     43 C          70.0376   91.8599   14.9758 C.ar    1  UNL1       -0.0000
     44 C          68.8581   91.1497   14.7312 C.ar    1  UNL1       -0.0000
     45 C          66.4124   92.0256   11.6312 C.3     1  UNL1        0.0050
     46 C          66.8811   90.7687   12.3609 C.3     1  UNL1        0.0265
@<TRIPOS>BOND
     1    45    46    1
     2    46    29    1
     3    29    30   ar
     4    30    39    1
     5    39    40   ar
     6    40    41   ar
     7    41    42   ar
     8    42    43   ar
     9    43    44   ar
    10    30    31   ar
    11    31    32   ar
    12    32    33   ar
    13    33    34   ar
    14    34    35   ar
    15    35    25    1
    16    25    26    2
    17    25    27   am
    18    27     1    1
    19     1     2   ar
    20     2     3   ar
    21     3     4   ar
    22     4     7    1
    23     7     8    1
    24     8     9    1
    25     9    10    1
    26    10    13    1
    27    13    14    1
    28    14    15    1
    29    15    16   ar
    30    16    17   ar
    31    17    18   ar
    32    18    19   ar
    33    19    21    1
    34    21    22    2
    35    21    23    1
    36    19    20   ar
    37    10    11    1
    38    11    12    1
    39     4     5   ar
    40     5     6   ar
    41    35    36   ar
    42    36    37    1
    43    36    38   ar
    44    38    29   ar
    45    44    39   ar
    46    38    33   ar
    47     6     1   ar
    48    12     7    1
    49    20    15   ar
    50    27    28    1
    51    23    24    1
@<TRIPOS>MOLECULE
*****
 46 51 0 0 0
SMALL
GASTEIGER

@<TRIPOS>ATOM
      1 C          60.8581   85.8087   11.5664 C.ar    1  UNL1        0.0702
      2 C          59.9174   86.0773   10.5650 C.ar    1  UNL1        0.0191
      3 C          59.0921   85.0604   10.0834 C.ar    1  UNL1        0.0356
      4 C          59.1930   83.7708   10.6284 C.ar    1  UNL1        0.1318
      5 N          60.1103   83.5329   11.6066 N.ar    1  UNL1       -0.2279
      6 C          60.9276   84.5066   12.0878 C.ar    1  UNL1        0.1149
      7 N          58.3765   82.6894   10.1415 N.pl3   1  UNL1       -0.2932
      8 C          58.6356   81.3254   10.6229 C.3     1  UNL1        0.0923
      9 C          57.9089   80.2775    9.7634 C.3     1  UNL1        0.0252
     10 C          57.9679   80.6337    8.2607 C.3     1  UNL1        0.0472
     11 C          57.3879   82.0507    7.9739 C.3     1  UNL1        0.0252
     12 C          57.2479   82.9225    9.2308 C.3     1  UNL1        0.0923
     13 C          59.4010   80.4896    7.7153 C.3     1  UNL1        0.2054
     14 O          59.8513   81.7426    7.2040 O.3     1  UNL1       -0.4755
     15 C          60.9018   82.4924    7.7532 C.ar    1  UNL1        0.1388
     16 C          61.2613   83.7603    7.2601 C.ar    1  UNL1        0.0369
     17 C          62.3168   84.4658    7.8415 C.ar    1  UNL1        0.0033
     18 C          63.0221   83.9186    8.9156 C.ar    1  UNL1        0.0066
     19 C          62.6767   82.6532    9.4219 C.ar    1  UNL1        0.0785
     20 C          61.6123   81.9492    8.8308 C.ar    1  UNL1        0.0433
     21 C          63.4196   82.0675   10.5595 C.2     1  UNL1        0.3381
     22 O          64.6589   81.8526   10.4705 O.2     1  UNL1       -0.2451
     23 O          62.7559   81.7474   11.7413 O.3     1  UNL1       -0.4771
     24 H          63.2551   81.3459   12.5261 H       1  UNL1        0.2954
     25 C          62.2917   87.8754   11.2391 C.2     1  UNL1        0.2839
     26 O          61.7961   88.1476   10.1128 O.2     1  UNL1       -0.2665
     27 N          61.6873   86.8709   12.0681 N.am    1  UNL1       -0.2766
     28 H          61.7822   86.9740   13.1039 H       1  UNL1        0.1553
     29 C          65.8008   90.3024   13.9449 C.ar    1  UNL1       -0.0194
     30 C          66.8034   91.1997   13.4632 C.ar    1  UNL1       -0.0038
     31 C          66.9022   91.4877   12.0837 C.ar    1  UNL1        0.0028
     32 C          66.0199   90.9122   11.1657 C.ar    1  UNL1        0.0375
     33 C          65.0555   90.0372   11.6429 C.ar    1  UNL1        0.1449
     34 O          64.1568   89.4176   10.9222 O.2     1  UNL1       -0.4492
     35 C          63.4252   88.6797   11.7282 C.ar    1  UNL1        0.1946
     36 C          63.8901   88.7964   13.0437 C.ar    1  UNL1        0.0199
     37 C          63.3824   88.0288   14.2314 C.3     1  UNL1        0.0345
     38 C          64.9422   89.7165   12.9790 C.ar    1  UNL1        0.0297
     39 C          67.7676   91.8557   14.3682 C.ar    1  UNL1       -0.0003
     40 C          67.4918   93.1312   14.8842 C.ar    1  UNL1       -0.0000
     41 C          68.3955   93.7459   15.7564 C.ar    1  UNL1       -0.0000
     42 C          69.5715   93.0862   16.1257 C.ar    1  UNL1       -0.0000
     43 C          69.8437   91.8090   15.6265 C.ar    1  UNL1       -0.0000
     44 C          68.9424   91.1913   14.7540 C.ar    1  UNL1       -0.0000
     45 C          64.6938   90.8671   16.1236 C.3     1  UNL1        0.0050
     46 C          65.7100   89.9702   15.4200 C.3     1  UNL1        0.0265
@<TRIPOS>BOND
     1    45    46    1
     2    46    29    1
     3    29    30   ar
     4    30    39    1
     5    39    40   ar
     6    40    41   ar
     7    41    42   ar
     8    42    43   ar
     9    43    44   ar
    10    30    31   ar
    11    31    32   ar
    12    32    33   ar
    13    33    34   ar
    14    34    35   ar
    15    35    25    1
    16    25    26    2
    17    25    27   am
    18    27     1    1
    19     1     2   ar
    20     2     3   ar
    21     3     4   ar
    22     4     7    1
    23     7     8    1
    24     8     9    1
    25     9    10    1
    26    10    13    1
    27    13    14    1
    28    14    15    1
    29    15    16   ar
    30    16    17   ar
    31    17    18   ar
    32    18    19   ar
    33    19    21    1
    34    21    22    2
    35    21    23    1
    36    19    20   ar
    37    10    11    1
    38    11    12    1
    39     4     5   ar
    40     5     6   ar
    41    35    36   ar
    42    36    37    1
    43    36    38   ar
    44    38    29   ar
    45    44    39   ar
    46    38    33   ar
    47     6     1   ar
    48    12     7    1
    49    20    15   ar
    50    27    28    1
    51    23    24    1
@<TRIPOS>MOLECULE
*****
 46 51 0 0 0
SMALL
GASTEIGER

@<TRIPOS>ATOM
      1 C          60.9826   85.7595   11.7540 C.ar    1  UNL1        0.0702
      2 C          59.6141   85.9981   11.5794 C.ar    1  UNL1        0.0191
      3 C          58.7808   84.9916   11.0899 C.ar    1  UNL1        0.0356
      4 C          59.3192   83.7285   10.7979 C.ar    1  UNL1        0.1318
      5 N          60.6519   83.5158   10.9814 N.ar    1  UNL1       -0.2279
      6 C          61.4832   84.4825   11.4527 C.ar    1  UNL1        0.1149
      7 N          58.4971   82.6718   10.2681 N.pl3   1  UNL1       -0.2932
      8 C          58.8692   81.2752   10.5339 C.3     1  UNL1        0.0923
      9 C          58.0906   80.3036    9.6314 C.3     1  UNL1        0.0252
     10 C          57.9552   80.8485    8.1915 C.3     1  UNL1        0.0472
     11 C          57.2857   82.2547    8.1605 C.3     1  UNL1        0.0252
     12 C          57.2594   82.9523    9.5288 C.3     1  UNL1        0.0923
     13 C          59.3181   80.8565    7.4742 C.3     1  UNL1        0.2054
     14 O          59.4923   82.0915    6.7822 O.3     1  UNL1       -0.4755
     15 C          60.3114   83.1404    7.2250 C.ar    1  UNL1        0.1388
     16 C          61.6553   82.9439    7.5929 C.ar    1  UNL1        0.0369
     17 C          62.4283   84.0219    8.0290 C.ar    1  UNL1        0.0033
     18 C          61.8735   85.3015    8.1027 C.ar    1  UNL1        0.0066
     19 C          60.5327   85.5169    7.7388 C.ar    1  UNL1        0.0785
     20 C          59.7609   84.4259    7.3006 C.ar    1  UNL1        0.0433
     21 C          59.9385   86.8699    7.8146 C.2     1  UNL1        0.3381
     22 O          58.6986   87.0330    7.6542 O.2     1  UNL1       -0.2451
     23 O          60.7447   87.9777    8.0643 O.3     1  UNL1       -0.4771
     24 H          60.3480   88.9083    8.1181 H       1  UNL1        0.2954
     25 C          62.3110   87.9057   11.5037 C.2     1  UNL1        0.2839
     26 O          61.6949   88.2688   10.4659 O.2     1  UNL1       -0.2665
     27 N          61.8255   86.7993   12.2793 N.am    1  UNL1       -0.2766
     28 H          62.0223   86.8018   13.3058 H       1  UNL1        0.1553
     29 C          65.8749   90.3625   14.1091 C.ar    1  UNL1       -0.0194
     30 C          66.8997   91.2132   13.5910 C.ar    1  UNL1       -0.0038
     31 C          67.0072   91.4382   12.2005 C.ar    1  UNL1        0.0028
     32 C          66.1123   90.8448   11.3064 C.ar    1  UNL1        0.0375
     33 C          65.1262   90.0152   11.8192 C.ar    1  UNL1        0.1449
     34 O          64.2136   89.3867   11.1241 O.2     1  UNL1       -0.4492
     35 C          63.4632   88.7028   11.9598 C.ar    1  UNL1        0.1946
     36 C          63.9291   88.8655   13.2701 C.ar    1  UNL1        0.0199
     37 C          63.4013   88.1632   14.4890 C.3     1  UNL1        0.0345
     38 C          65.0034   89.7561   13.1677 C.ar    1  UNL1        0.0297
     39 C          67.8785   91.8846   14.4687 C.ar    1  UNL1       -0.0003
     40 C          67.5993   93.1577   14.9887 C.ar    1  UNL1       -0.0000
     41 C          68.5173   93.7868   15.8354 C.ar    1  UNL1       -0.0000
     42 C          69.7114   93.1438   16.1752 C.ar    1  UNL1       -0.0000
     43 C          69.9873   91.8689   15.6721 C.ar    1  UNL1       -0.0000
     44 C          69.0717   91.2368   14.8251 C.ar    1  UNL1       -0.0000
     45 C          64.7592   91.0304   16.2539 C.3     1  UNL1        0.0050
     46 C          65.7741   90.0974   15.5971 C.3     1  UNL1        0.0265
@<TRIPOS>BOND
     1    45    46    1
     2    46    29    1
     3    29    30   ar
     4    30    39    1
     5    39    40   ar
     6    40    41   ar
     7    41    42   ar
     8    42    43   ar
     9    43    44   ar
    10    30    31   ar
    11    31    32   ar
    12    32    33   ar
    13    33    34   ar
    14    34    35   ar
    15    35    25    1
    16    25    26    2
    17    25    27   am
    18    27     1    1
    19     1     2   ar
    20     2     3   ar
    21     3     4   ar
    22     4     7    1
    23     7     8    1
    24     8     9    1
    25     9    10    1
    26    10    13    1
    27    13    14    1
    28    14    15    1
    29    15    16   ar
    30    16    17   ar
    31    17    18   ar
    32    18    19   ar
    33    19    21    1
    34    21    22    2
    35    21    23    1
    36    19    20   ar
    37    10    11    1
    38    11    12    1
    39     4     5   ar
    40     5     6   ar
    41    35    36   ar
    42    36    37    1
    43    36    38   ar
    44    38    29   ar
    45    44    39   ar
    46    38    33   ar
    47     6     1   ar
    48    12     7    1
    49    20    15   ar
    50    27    28    1
    51    23    24    1
@<TRIPOS>MOLECULE
*****
 46 51 0 0 0
SMALL
GASTEIGER

@<TRIPOS>ATOM
      1 C          61.2663   85.8845   10.5352 C.ar    1  UNL1        0.0702
      2 C          59.9543   85.6125   10.9414 C.ar    1  UNL1        0.0191
      3 C          59.1962   84.6496   10.2742 C.ar    1  UNL1        0.0356
      4 C          59.7667   83.9358    9.2086 C.ar    1  UNL1        0.1318
      5 N          61.0468   84.2115    8.8342 N.ar    1  UNL1       -0.2279
      6 C          61.8024   85.1480    9.4663 C.ar    1  UNL1        0.1149
      7 N          59.0091   82.9521    8.4796 N.pl3   1  UNL1       -0.2932
      8 C          57.6101   82.7051    8.8553 C.3     1  UNL1        0.0923
      9 C          57.0727   81.4171    8.2094 C.3     1  UNL1        0.0252
     10 C          58.1292   80.2893    8.2240 C.3     1  UNL1        0.0472
     11 C          59.4532   80.7211    7.5261 C.3     1  UNL1        0.0252
     12 C          59.5750   82.2393    7.3268 C.3     1  UNL1        0.0923
     13 C          58.3843   79.7907    9.6587 C.3     1  UNL1        0.2054
     14 O          59.7876   79.7247    9.9046 O.3     1  UNL1       -0.4755
     15 C          60.4990   80.6411   10.6929 C.ar    1  UNL1        0.1388
     16 C          59.9357   81.2591   11.8246 C.ar    1  UNL1        0.0369
     17 C          60.6862   82.1662   12.5753 C.ar    1  UNL1        0.0033
     18 C          62.0001   82.4660   12.2087 C.ar    1  UNL1        0.0066
     19 C          62.5797   81.8579   11.0814 C.ar    1  UNL1        0.0785
     20 C          61.8172   80.9453   10.3306 C.ar    1  UNL1        0.0433
     21 C          63.9712   82.1709   10.6872 C.2     1  UNL1        0.3381
     22 O          64.2209   82.6416    9.5444 O.2     1  UNL1       -0.2451
     23 O          65.0197   81.9482   11.5763 O.3     1  UNL1       -0.4771
     24 H          65.9759   82.1590   11.3164 H       1  UNL1        0.2954
     25 C          62.4680   88.1135   10.6794 C.2     1  UNL1        0.2839
     26 O          61.8388   88.6145    9.7091 O.2     1  UNL1       -0.2665
     27 N          62.0431   86.8642   11.2453 N.am    1  UNL1       -0.2766
     28 H          62.2324   86.7010   12.2602 H       1  UNL1        0.1553
     29 C          65.8122   90.3490   13.7362 C.ar    1  UNL1       -0.0194
     30 C          66.8318   91.2829   13.3748 C.ar    1  UNL1       -0.0038
     31 C          67.0004   91.6715   12.0271 C.ar    1  UNL1        0.0028
     32 C          66.1717   91.1615   11.0243 C.ar    1  UNL1        0.0375
     33 C          65.1904   90.2503   11.3850 C.ar    1  UNL1        0.1449
     34 O          64.3354   89.6817   10.5746 O.2     1  UNL1       -0.4492
     35 C          63.5682   88.8841   11.2849 C.ar    1  UNL1        0.1946
     36 C          63.9627   88.9059   12.6281 C.ar    1  UNL1        0.0199
     37 C          63.3994   88.0515   13.7282 C.3     1  UNL1        0.0345
     38 C          65.0098   89.8322   12.6863 C.ar    1  UNL1        0.0297
     39 C          67.7423   91.8746   14.3748 C.ar    1  UNL1       -0.0003
     40 C          68.8552   91.1499   14.8280 C.ar    1  UNL1       -0.0000
     41 C          69.7291   91.7165   15.7611 C.ar    1  UNL1       -0.0000
     42 C          69.5024   93.0115   16.2367 C.ar    1  UNL1       -0.0000
     43 C          68.4037   93.7434   15.7768 C.ar    1  UNL1       -0.0000
     44 C          67.5276   93.1800   14.8438 C.ar    1  UNL1       -0.0000
     45 C          64.6520   90.8035   15.9130 C.3     1  UNL1        0.0050
     46 C          65.6469   89.9093   15.1763 C.3     1  UNL1        0.0265
@<TRIPOS>BOND
     1    45    46    1
     2    46    29    1
     3    29    30   ar
     4    30    39    1
     5    39    40   ar
     6    40    41   ar
     7    41    42   ar
     8    42    43   ar
     9    43    44   ar
    10    30    31   ar
    11    31    32   ar
    12    32    33   ar
    13    33    34   ar
    14    34    35   ar
    15    35    25    1
    16    25    26    2
    17    25    27   am
    18    27     1    1
    19     1     2   ar
    20     2     3   ar
    21     3     4   ar
    22     4     7    1
    23     7     8    1
    24     8     9    1
    25     9    10    1
    26    10    13    1
    27    13    14    1
    28    14    15    1
    29    15    16   ar
    30    16    17   ar
    31    17    18   ar
    32    18    19   ar
    33    19    21    1
    34    21    22    2
    35    21    23    1
    36    19    20   ar
    37    10    11    1
    38    11    12    1
    39     4     5   ar
    40     5     6   ar
    41    35    36   ar
    42    36    37    1
    43    36    38   ar
    44    38    29   ar
    45    44    39   ar
    46    38    33   ar
    47     6     1   ar
    48    12     7    1
    49    20    15   ar
    50    27    28    1
    51    23    24    1
@<TRIPOS>MOLECULE
*****
 46 51 0 0 0
SMALL
GASTEIGER

@<TRIPOS>ATOM
      1 C          60.9889   85.8742   11.2226 C.ar    1  UNL1        0.0702
      2 C          59.6472   85.5579   11.4672 C.ar    1  UNL1        0.0191
      3 C          58.9710   84.6660   10.6340 C.ar    1  UNL1        0.0356
      4 C          59.6527   84.0669    9.5631 C.ar    1  UNL1        0.1318
      5 N          60.9595   84.3835    9.3470 N.ar    1  UNL1       -0.2279
      6 C          61.6370   85.2528   10.1427 C.ar    1  UNL1        0.1149
      7 N          58.9833   83.1606    8.6665 N.pl3   1  UNL1       -0.2932
      8 C          57.5755   82.8200    8.9141 C.3     1  UNL1        0.0923
      9 C          57.1334   81.6089    8.0758 C.3     1  UNL1        0.0252
     10 C          58.2335   80.5250    8.0174 C.3     1  UNL1        0.0472
     11 C          59.5786   81.0879    7.4694 C.3     1  UNL1        0.0252
     12 C          59.6486   82.6224    7.4727 C.3     1  UNL1        0.0923
     13 C          58.4206   79.8540    9.3911 C.3     1  UNL1        0.2054
     14 O          59.8111   79.7389    9.6868 O.3     1  UNL1       -0.4755
     15 C          60.5048   80.5724   10.5764 C.ar    1  UNL1        0.1388
     16 C          59.9187   81.0724   11.7539 C.ar    1  UNL1        0.0369
     17 C          60.6522   81.9006   12.6059 C.ar    1  UNL1        0.0033
     18 C          61.9715   82.2378   12.2957 C.ar    1  UNL1        0.0066
     19 C          62.5738   81.7473   11.1238 C.ar    1  UNL1        0.0785
     20 C          61.8283   80.9137   10.2711 C.ar    1  UNL1        0.0433
     21 C          63.9711   82.1007   10.7891 C.2     1  UNL1        0.3381
     22 O          64.2429   82.6634    9.6939 O.2     1  UNL1       -0.2451
     23 O          65.0008   81.8145   11.6819 O.3     1  UNL1       -0.4771
     24 H          65.9609   82.0521   11.4624 H       1  UNL1        0.2954
     25 C          62.0754   88.1085   11.7334 C.2     1  UNL1        0.2839
     26 O          61.4770   88.7111   10.8022 O.2     1  UNL1       -0.2665
     27 N          61.6793   86.7785   12.1018 N.am    1  UNL1       -0.2766
     28 H          61.8206   86.4870   13.0956 H       1  UNL1        0.1553
     29 C          66.1461   90.6210   13.3586 C.ar    1  UNL1       -0.0194
     30 C          66.4599   90.9915   14.7027 C.ar    1  UNL1       -0.0038
     31 C          65.5789   90.6668   15.7583 C.ar    1  UNL1        0.0028
     32 C          64.3921   89.9710   15.5138 C.ar    1  UNL1        0.0375
     33 C          64.0937   89.6228   14.2049 C.ar    1  UNL1        0.1449
     34 O          63.0308   88.9728   13.8064 O.2     1  UNL1       -0.4492
     35 C          63.1038   88.8325   12.5010 C.ar    1  UNL1        0.1946
     36 C          64.2606   89.4525   12.0132 C.ar    1  UNL1        0.0199
     37 C          64.6422   89.5980   10.5673 C.3     1  UNL1        0.0345
     38 C          64.9190   89.9408   13.1472 C.ar    1  UNL1        0.0297
     39 C          67.6972   91.7197   15.0461 C.ar    1  UNL1       -0.0003
     40 C          67.6242   92.9832   15.6522 C.ar    1  UNL1       -0.0000
     41 C          68.7954   93.6658   15.9952 C.ar    1  UNL1       -0.0000
     42 C          70.0428   93.0859   15.7453 C.ar    1  UNL1       -0.0000
     43 C          70.1207   91.8207   15.1557 C.ar    1  UNL1       -0.0000
     44 C          68.9516   91.1352   14.8112 C.ar    1  UNL1       -0.0000
     45 C          66.5356   92.1870   11.4385 C.3     1  UNL1        0.0050
     46 C          67.0753   90.9921   12.2213 C.3     1  UNL1        0.0265
@<TRIPOS>BOND
     1    45    46    1
     2    46    29    1
     3    29    30   ar
     4    30    39    1
     5    39    40   ar
     6    40    41   ar
     7    41    42   ar
     8    42    43   ar
     9    43    44   ar
    10    30    31   ar
    11    31    32   ar
    12    32    33   ar
    13    33    34   ar
    14    34    35   ar
    15    35    25    1
    16    25    26    2
    17    25    27   am
    18    27     1    1
    19     1     2   ar
    20     2     3   ar
    21     3     4   ar
    22     4     7    1
    23     7     8    1
    24     8     9    1
    25     9    10    1
    26    10    13    1
    27    13    14    1
    28    14    15    1
    29    15    16   ar
    30    16    17   ar
    31    17    18   ar
    32    18    19   ar
    33    19    21    1
    34    21    22    2
    35    21    23    1
    36    19    20   ar
    37    10    11    1
    38    11    12    1
    39     4     5   ar
    40     5     6   ar
    41    35    36   ar
    42    36    37    1
    43    36    38   ar
    44    38    29   ar
    45    44    39   ar
    46    38    33   ar
    47     6     1   ar
    48    12     7    1
    49    20    15   ar
    50    27    28    1
    51    23    24    1
@<TRIPOS>MOLECULE
*****
 46 51 0 0 0
SMALL
GASTEIGER

@<TRIPOS>ATOM
      1 C          58.8224   88.7399    6.0258 C.ar    1  UNL1        0.0702
      2 C          60.0975   88.9359    5.4819 C.ar    1  UNL1        0.0191
      3 C          60.2882   89.8528    4.4475 C.ar    1  UNL1        0.0356
      4 C          59.1971   90.5975    3.9729 C.ar    1  UNL1        0.1318
      5 N          57.9666   90.3960    4.5207 N.ar    1  UNL1       -0.2279
      6 C          57.7564   89.5053    5.5256 C.ar    1  UNL1        0.1149
      7 N          59.3485   91.5352    2.8907 N.pl3   1  UNL1       -0.2932
      8 C          58.4008   91.4905    1.7685 C.3     1  UNL1        0.0923
      9 C          58.9033   92.3184    0.5740 C.3     1  UNL1        0.0252
     10 C          60.4240   92.1448    0.3605 C.3     1  UNL1        0.0472
     11 C          61.2376   92.5079    1.6383 C.3     1  UNL1        0.0252
     12 C          60.3813   92.5794    2.9115 C.3     1  UNL1        0.0923
     13 C          60.7533   90.7235   -0.1331 C.3     1  UNL1        0.2054
     14 O          61.9204   90.7552   -0.9523 O.3     1  UNL1       -0.4755
     15 C          62.8998   91.7578   -0.8996 C.ar    1  UNL1        0.1388
     16 C          63.1943   92.5828   -2.0008 C.ar    1  UNL1        0.0369
     17 C          64.1804   93.5660   -1.8972 C.ar    1  UNL1        0.0033
     18 C          64.8804   93.7374   -0.7009 C.ar    1  UNL1        0.0066
     19 C          64.5994   92.9227    0.4100 C.ar    1  UNL1        0.0785
     20 C          63.6047   91.9348    0.2975 C.ar    1  UNL1        0.0433
     21 C          65.3373   93.0987    1.6804 C.2     1  UNL1        0.3381
     22 O          64.8792   93.8458    2.5870 O.2     1  UNL1       -0.2451
     23 O          66.5467   92.4398    1.8870 O.3     1  UNL1       -0.4771
     24 H          67.0598   92.5535    2.7531 H       1  UNL1        0.2954
     25 C          59.7262   87.1531    7.7861 C.2     1  UNL1        0.2839
     26 O          60.8773   87.6662    7.7830 O.2     1  UNL1       -0.2665
     27 N          58.6443   87.8073    7.1057 N.am    1  UNL1       -0.2766
     28 H          57.6785   87.6656    7.4794 H       1  UNL1        0.1553
     29 C          59.4500   82.4700    9.6615 C.ar    1  UNL1       -0.0194
     30 C          58.7779   82.0476   10.8500 C.ar    1  UNL1       -0.0038
     31 C          58.0972   82.9852   11.6583 C.ar    1  UNL1        0.0028
     32 C          58.0578   84.3378   11.3099 C.ar    1  UNL1        0.0375
     33 C          58.7195   84.7380   10.1587 C.ar    1  UNL1        0.1449
     34 O          58.7794   85.9587    9.6925 O.2     1  UNL1       -0.4492
     35 C          59.4930   85.9393    8.5881 C.ar    1  UNL1        0.1946
     36 C          59.9531   84.6416    8.3341 C.ar    1  UNL1        0.0199
     37 C          60.8832   84.2350    7.2264 C.3     1  UNL1        0.0345
     38 C          59.4112   83.8552    9.3568 C.ar    1  UNL1        0.0297
     39 C          58.7644   80.6364   11.2828 C.ar    1  UNL1       -0.0003
     40 C          59.5227   80.2342   12.3930 C.ar    1  UNL1       -0.0000
     41 C          59.4961   78.9016   12.8156 C.ar    1  UNL1       -0.0000
     42 C          58.7048   77.9681   12.1394 C.ar    1  UNL1       -0.0000
     43 C          57.9357   78.3668   11.0422 C.ar    1  UNL1       -0.0000
     44 C          57.9598   79.6986   10.6167 C.ar    1  UNL1       -0.0000
     45 C          59.3098   80.9036    7.7077 C.3     1  UNL1        0.0050
     46 C          60.2039   81.4715    8.8077 C.3     1  UNL1        0.0265
@<TRIPOS>BOND
     1    45    46    1
     2    46    29    1
     3    29    30   ar
     4    30    39    1
     5    39    40   ar
     6    40    41   ar
     7    41    42   ar
     8    42    43   ar
     9    43    44   ar
    10    30    31   ar
    11    31    32   ar
    12    32    33   ar
    13    33    34   ar
    14    34    35   ar
    15    35    25    1
    16    25    26    2
    17    25    27   am
    18    27     1    1
    19     1     2   ar
    20     2     3   ar
    21     3     4   ar
    22     4     7    1
    23     7     8    1
    24     8     9    1
    25     9    10    1
    26    10    13    1
    27    13    14    1
    28    14    15    1
    29    15    16   ar
    30    16    17   ar
    31    17    18   ar
    32    18    19   ar
    33    19    21    1
    34    21    22    2
    35    21    23    1
    36    19    20   ar
    37    10    11    1
    38    11    12    1
    39     4     5   ar
    40     5     6   ar
    41    35    36   ar
    42    36    37    1
    43    36    38   ar
    44    38    29   ar
    45    44    39   ar
    46    38    33   ar
    47     6     1   ar
    48    12     7    1
    49    20    15   ar
    50    27    28    1
    51    23    24    1
@<TRIPOS>MOLECULE
*****
 46 51 0 0 0
SMALL
GASTEIGER

@<TRIPOS>ATOM
      1 C          60.2215   87.6654    8.7577 C.ar    1  UNL1        0.0702
      2 C          59.3369   86.6171    8.4774 C.ar    1  UNL1        0.0191
      3 C          59.0196   85.6813    9.4627 C.ar    1  UNL1        0.0356
      4 C          59.5731   85.8129   10.7460 C.ar    1  UNL1        0.1318
      5 N          60.4261   86.8440   10.9990 N.ar    1  UNL1       -0.2279
      6 C          60.7530   87.7644   10.0538 C.ar    1  UNL1        0.1149
      7 N          59.2896   84.8542   11.7822 N.pl3   1  UNL1       -0.2932
      8 C          60.3005   84.6021   12.8186 C.3     1  UNL1        0.0923
      9 C          59.9735   83.3360   13.6278 C.3     1  UNL1        0.0252
     10 C          59.4385   82.2038   12.7221 C.3     1  UNL1        0.0472
     11 C          58.1889   82.6505   11.9064 C.3     1  UNL1        0.0252
     12 C          57.9912   84.1734   11.8711 C.3     1  UNL1        0.0923
     13 C          60.5487   81.6621   11.8021 C.3     1  UNL1        0.2054
     14 O          59.9682   81.0742   10.6395 O.3     1  UNL1       -0.4755
     15 C          60.1235   81.5714    9.3371 C.ar    1  UNL1        0.1388
     16 C          59.3741   81.0850    8.2500 C.ar    1  UNL1        0.0369
     17 C          59.5681   81.6130    6.9720 C.ar    1  UNL1        0.0033
     18 C          60.5061   82.6266    6.7640 C.ar    1  UNL1        0.0066
     19 C          61.2636   83.1253    7.8384 C.ar    1  UNL1        0.0785
     20 C          61.0622   82.5883    9.1225 C.ar    1  UNL1        0.0433
     21 C          62.2590   84.1991    7.6252 C.2     1  UNL1        0.3381
     22 O          62.4124   85.1080    8.4856 O.2     1  UNL1       -0.2451
     23 O          63.0372   84.2158    6.4704 O.3     1  UNL1       -0.4771
     24 H          63.7216   84.9464    6.3147 H       1  UNL1        0.2954
     25 C          59.7712   88.7808    6.5246 C.2     1  UNL1        0.2839
     26 O          58.5755   88.3865    6.4699 O.2     1  UNL1       -0.2665
     27 N          60.5229   88.6346    7.7391 N.am    1  UNL1       -0.2766
     28 H          61.2748   89.3344    7.9326 H       1  UNL1        0.1553
     29 C          60.6166   91.3959    2.2852 C.ar    1  UNL1       -0.0194
     30 C          61.8723   91.6314    1.6448 C.ar    1  UNL1       -0.0038
     31 C          63.0659   91.1194    2.2008 C.ar    1  UNL1        0.0028
     32 C          63.0438   90.3668    3.3778 C.ar    1  UNL1        0.0375
     33 C          61.8209   90.1505    3.9951 C.ar    1  UNL1        0.1449
     34 O          61.6257   89.4707    5.0955 O.2     1  UNL1       -0.4492
     35 C          60.3384   89.4885    5.3634 C.ar    1  UNL1        0.1946
     36 C          59.6569   90.2485    4.4050 C.ar    1  UNL1        0.0199
     37 C          58.1938   90.5896    4.4253 C.3     1  UNL1        0.0345
     38 C          60.6386   90.6517    3.4931 C.ar    1  UNL1        0.0297
     39 C          61.9804   92.4085    0.3944 C.ar    1  UNL1       -0.0003
     40 C          63.1568   93.1172    0.1065 C.ar    1  UNL1       -0.0000
     41 C          63.2676   93.8384   -1.0864 C.ar    1  UNL1       -0.0000
     42 C          62.2102   93.8460   -2.0010 C.ar    1  UNL1       -0.0000
     43 C          61.0420   93.1291   -1.7259 C.ar    1  UNL1       -0.0000
     44 C          60.9275   92.4069   -0.5340 C.ar    1  UNL1       -0.0000
     45 C          58.7903   91.0725    0.5968 C.3     1  UNL1        0.0050
     46 C          59.3386   91.9670    1.7065 C.3     1  UNL1        0.0265
@<TRIPOS>BOND
     1    45    46    1
     2    46    29    1
     3    29    30   ar
     4    30    39    1
     5    39    40   ar
     6    40    41   ar
     7    41    42   ar
     8    42    43   ar
     9    43    44   ar
    10    30    31   ar
    11    31    32   ar
    12    32    33   ar
    13    33    34   ar
    14    34    35   ar
    15    35    25    1
    16    25    26    2
    17    25    27   am
    18    27     1    1
    19     1     2   ar
    20     2     3   ar
    21     3     4   ar
    22     4     7    1
    23     7     8    1
    24     8     9    1
    25     9    10    1
    26    10    13    1
    27    13    14    1
    28    14    15    1
    29    15    16   ar
    30    16    17   ar
    31    17    18   ar
    32    18    19   ar
    33    19    21    1
    34    21    22    2
    35    21    23    1
    36    19    20   ar
    37    10    11    1
    38    11    12    1
    39     4     5   ar
    40     5     6   ar
    41    35    36   ar
    42    36    37    1
    43    36    38   ar
    44    38    29   ar
    45    44    39   ar
    46    38    33   ar
    47     6     1   ar
    48    12     7    1
    49    20    15   ar
    50    27    28    1
    51    23    24    1
@<TRIPOS>MOLECULE
*****
 46 51 0 0 0
SMALL
GASTEIGER

@<TRIPOS>ATOM
      1 C          60.8870   85.1766   12.2350 C.ar    1  UNL1        0.0702
      2 C          60.0852   84.5333   13.1856 C.ar    1  UNL1        0.0191
      3 C          59.3415   83.4066   12.8326 C.ar    1  UNL1        0.0356
      4 C          59.4228   82.9059   11.5238 C.ar    1  UNL1        0.1318
      5 N          60.2141   83.5430   10.6167 N.ar    1  UNL1       -0.2279
      6 C          60.9436   84.6443   10.9366 C.ar    1  UNL1        0.1149
      7 N          58.6522   81.7606   11.1143 N.pl3   1  UNL1       -0.2932
      8 C          58.3437   80.7167   12.1016 C.3     1  UNL1        0.0923
      9 C          57.8170   79.4401   11.4251 C.3     1  UNL1        0.0252
     10 C          58.5892   79.1251   10.1240 C.3     1  UNL1        0.0472
     11 C          58.5483   80.3145    9.1189 C.3     1  UNL1        0.0252
     12 C          58.1075   81.6412    9.7555 C.3     1  UNL1        0.0923
     13 C          60.0360   78.6956   10.4312 C.3     1  UNL1        0.2054
     14 O          60.9483   79.6451    9.8829 O.3     1  UNL1       -0.4755
     15 C          61.9211   80.3309   10.6249 C.ar    1  UNL1        0.1388
     16 C          62.9639   81.0530   10.0157 C.ar    1  UNL1        0.0369
     17 C          63.9087   81.7176   10.8000 C.ar    1  UNL1        0.0033
     18 C          63.8253   81.6706   12.1934 C.ar    1  UNL1        0.0066
     19 C          62.7902   80.9544   12.8196 C.ar    1  UNL1        0.0785
     20 C          61.8424   80.2878   12.0225 C.ar    1  UNL1        0.0433
     21 C          62.6958   80.9002   14.2953 C.2     1  UNL1        0.3381
     22 O          61.9087   81.6670   14.9137 O.2     1  UNL1       -0.2451
     23 O          63.4769   80.0004   15.0161 O.3     1  UNL1       -0.4771
     24 H          63.4200   79.9552   16.0266 H       1  UNL1        0.2954
     25 C          62.1730   87.2937   11.6894 C.2     1  UNL1        0.2839
     26 O          61.6205   87.4442   10.5668 O.2     1  UNL1       -0.2665
     27 N          61.6644   86.3239   12.6181 N.am    1  UNL1       -0.2766
     28 H          61.7900   86.5152   13.6380 H       1  UNL1        0.1553
     29 C          65.6373   90.1125   14.0512 C.ar    1  UNL1       -0.0194
     30 C          66.5448   91.0474   13.4641 C.ar    1  UNL1       -0.0038
     31 C          66.5482   91.2602   12.0675 C.ar    1  UNL1        0.0028
     32 C          65.6618   90.5722   11.2348 C.ar    1  UNL1        0.0375
     33 C          64.7905   89.6619   11.8141 C.ar    1  UNL1        0.1449
     34 O          63.9016   88.9402   11.1815 O.2     1  UNL1       -0.4492
     35 C          63.2699   88.2019   12.0675 C.ar    1  UNL1        0.1946
     36 C          63.7951   88.4274   13.3456 C.ar    1  UNL1        0.0199
     37 C          63.4090   87.6974   14.6008 C.3     1  UNL1        0.0345
     38 C          64.7728   89.4129   13.1700 C.ar    1  UNL1        0.0297
     39 C          67.5062   91.8206   14.2746 C.ar    1  UNL1       -0.0003
     40 C          67.1857   93.1204   14.6953 C.ar    1  UNL1       -0.0000
     41 C          68.0875   93.8469   15.4789 C.ar    1  UNL1       -0.0000
     42 C          69.3069   93.2757   15.8549 C.ar    1  UNL1       -0.0000
     43 C          69.6245   91.9754   15.4512 C.ar    1  UNL1       -0.0000
     44 C          68.7252   91.2459   14.6674 C.ar    1  UNL1       -0.0000
     45 C          64.6730   90.7876   16.2660 C.3     1  UNL1        0.0050
     46 C          65.6503   89.8618   15.5450 C.3     1  UNL1        0.0265
@<TRIPOS>BOND
     1    45    46    1
     2    46    29    1
     3    29    30   ar
     4    30    39    1
     5    39    40   ar
     6    40    41   ar
     7    41    42   ar
     8    42    43   ar
     9    43    44   ar
    10    30    31   ar
    11    31    32   ar
    12    32    33   ar
    13    33    34   ar
    14    34    35   ar
    15    35    25    1
    16    25    26    2
    17    25    27   am
    18    27     1    1
    19     1     2   ar
    20     2     3   ar
    21     3     4   ar
    22     4     7    1
    23     7     8    1
    24     8     9    1
    25     9    10    1
    26    10    13    1
    27    13    14    1
    28    14    15    1
    29    15    16   ar
    30    16    17   ar
    31    17    18   ar
    32    18    19   ar
    33    19    21    1
    34    21    22    2
    35    21    23    1
    36    19    20   ar
    37    10    11    1
    38    11    12    1
    39     4     5   ar
    40     5     6   ar
    41    35    36   ar
    42    36    37    1
    43    36    38   ar
    44    38    29   ar
    45    44    39   ar
    46    38    33   ar
    47     6     1   ar
    48    12     7    1
    49    20    15   ar
    50    27    28    1
    51    23    24    1
