@<TRIPOS>MOLECULE
*****
 40 44 0 0 0
SMALL
GASTEIGER

@<TRIPOS>ATOM
      1 C         -23.8424   -8.1930  -13.7420 C.2     1  UNL1        0.2506
      2 O         -23.0549   -7.4590  -14.3990 O.2     1  UNL1       -0.2699
      3 N         -24.6367   -7.6217  -12.6821 N.am    1  UNL1       -0.2680
      4 C         -24.9154   -8.3850  -11.4580 C.3     1  UNL1        0.1412
      5 C         -26.3092   -8.0782  -10.9024 C.3     1  UNL1        0.2268
      6 O         -27.3062   -8.1578  -11.9190 O.3     1  UNL1       -0.4739
      7 C         -27.5212   -7.2115  -12.9376 C.ar    1  UNL1        0.1362
      8 C         -28.7745   -7.2258  -13.5608 C.ar    1  UNL1        0.0366
      9 C         -29.0878   -6.3085  -14.5636 C.ar    1  UNL1        0.0031
     10 C         -28.1474   -5.3531  -14.9641 C.ar    1  UNL1       -0.0002
     11 C         -26.8746   -5.3520  -14.3768 C.ar    1  UNL1        0.0004
     12 C         -26.5415   -6.2764  -13.3714 C.ar    1  UNL1        0.0317
     13 C         -25.1438   -6.2518  -12.8073 C.3     1  UNL1        0.1236
     14 C         -28.4856   -4.3753  -16.0225 C.ar    1  UNL1       -0.0002
     15 C         -29.7450   -3.7229  -15.9598 C.ar    1  UNL1        0.0014
     16 C         -30.1410   -2.8186  -16.9582 C.ar    1  UNL1        0.0206
     17 C         -29.2618   -2.5857  -18.0075 C.ar    1  UNL1        0.0983
     18 N         -29.4521   -1.7806  -19.0678 N.ar    1  UNL1       -0.2241
     19 C         -28.3020   -1.9318  -19.7731 C.ar    1  UNL1        0.1750
     20 N         -27.4240   -2.7860  -19.1966 N.ar    1  UNL1       -0.3351
     21 C         -28.0432   -3.1923  -18.0778 C.ar    1  UNL1        0.0739
     22 C         -27.5889   -4.0849  -17.0950 C.ar    1  UNL1        0.0244
     23 H         -26.4852   -3.0631  -19.5590 H       1  UNL1        0.1675
     24 C         -26.2187   -4.7074  -17.2039 C.3     1  UNL1        0.1702
     25 O         -25.9293   -4.9427  -18.5652 O.3     1  UNL1       -0.3463
     26 C         -24.9073   -5.9079  -18.6679 C.3     1  UNL1        0.1746
     27 C         -22.9283  -10.3317  -14.7501 C.ar    1  UNL1        0.0503
     28 C         -23.1573  -11.6638  -15.1515 C.ar    1  UNL1        0.0328
     29 C         -24.3912  -12.2828  -14.9196 C.ar    1  UNL1        0.1069
     30 C         -25.4171  -11.5699  -14.2945 C.ar    1  UNL1        0.0186
     31 C         -25.2127  -10.2492  -13.8989 C.ar    1  UNL1        0.0071
     32 C         -23.9787   -9.6170  -14.1206 C.ar    1  UNL1        0.0667
     33 S         -24.6554  -13.9442  -15.4396 S.O2    1  UNL1        0.0105
     34 C         -23.2312  -14.9246  -15.0250 C.3     1  UNL1        0.1816
     35 O         -25.8701  -14.5036  -14.7535 O.2     1  UNL1       -0.1686
     36 O         -24.8782  -13.9876  -16.9255 O.2     1  UNL1       -0.1686
     37 N         -21.6301   -9.7263  -14.9311 N.pl3   1  UNL1       -0.3325
     38 H         -21.1266   -9.3502  -14.0964 H       1  UNL1        0.1468
     39 C         -20.5772   -8.1601  -16.5181 C.3     1  UNL1        0.0229
     40 C         -20.9827   -9.6042  -16.2396 C.3     1  UNL1        0.0871
@<TRIPOS>BOND
     1    39    40    1
     2    40    37    1
     3    37    27    1
     4    27    28   ar
     5    28    29   ar
     6    29    33    1
     7    33    34    1
     8    33    35    2
     9    33    36    2
    10    29    30   ar
    11    30    31   ar
    12    31    32   ar
    13    32     1    1
    14     1     2    2
    15     1     3   am
    16     3     4    1
    17     4     5    1
    18     5     6    1
    19     6     7    1
    20     7     8   ar
    21     8     9   ar
    22     9    10   ar
    23    10    14    1
    24    14    15   ar
    25    15    16   ar
    26    16    17   ar
    27    17    18   ar
    28    18    19   ar
    29    19    20   ar
    30    20    21   ar
    31    21    22   ar
    32    22    24    1
    33    24    25    1
    34    25    26    1
    35    10    11   ar
    36    11    12   ar
    37    12    13    1
    38    32    27   ar
    39    13     3    1
    40    12     7   ar
    41    22    14   ar
    42    21    17   ar
    43    37    38    1
    44    20    23    1
@<TRIPOS>MOLECULE
*****
 40 44 0 0 0
SMALL
GASTEIGER

@<TRIPOS>ATOM
      1 C         -23.6406   -8.4536  -13.1563 C.2     1  UNL1        0.2506
      2 O         -22.8403   -7.7168  -13.7944 O.2     1  UNL1       -0.2699
      3 N         -24.4781   -7.8807  -12.1311 N.am    1  UNL1       -0.2680
      4 C         -24.7892   -8.6337  -10.9084 C.3     1  UNL1        0.1412
      5 C         -26.2052   -8.3388  -10.4047 C.3     1  UNL1        0.2268
      6 O         -27.1654   -8.4430  -11.4540 O.3     1  UNL1       -0.4739
      7 C         -27.3571   -7.5112  -12.4905 C.ar    1  UNL1        0.1362
      8 C         -28.5879   -7.5490  -13.1561 C.ar    1  UNL1        0.0366
      9 C         -28.8780   -6.6473  -14.1799 C.ar    1  UNL1        0.0031
     10 C         -27.9365   -5.6842  -14.5590 C.ar    1  UNL1       -0.0002
     11 C         -26.6849   -5.6598  -13.9284 C.ar    1  UNL1        0.0004
     12 C         -26.3750   -6.5683  -12.9013 C.ar    1  UNL1        0.0317
     13 C         -24.9980   -6.5190  -12.2898 C.3     1  UNL1        0.1236
     14 C         -28.2504   -4.7230  -15.6398 C.ar    1  UNL1       -0.0002
     15 C         -27.2010   -4.3146  -16.5044 C.ar    1  UNL1        0.0014
     16 C         -27.4269   -3.3718  -17.5200 C.ar    1  UNL1        0.0206
     17 C         -28.7081   -2.8523  -17.6489 C.ar    1  UNL1        0.0983
     18 N         -29.1297   -1.9312  -18.5334 N.ar    1  UNL1       -0.2241
     19 C         -30.4419   -1.7857  -18.2169 C.ar    1  UNL1        0.1750
     20 N         -30.8385   -2.5700  -17.1871 N.ar    1  UNL1       -0.3351
     21 C         -29.7313   -3.2421  -16.8371 C.ar    1  UNL1        0.0739
     22 C         -29.5656   -4.1980  -15.8232 C.ar    1  UNL1        0.0244
     23 H         -31.7922   -2.6209  -16.7658 H       1  UNL1        0.1675
     24 C         -30.7376   -4.6176  -14.9706 C.3     1  UNL1        0.1702
     25 O         -31.4061   -3.4626  -14.5106 O.3     1  UNL1       -0.3463
     26 C         -32.7384   -3.7890  -14.1864 C.3     1  UNL1        0.1746
     27 C         -22.6603  -10.7820  -13.3646 C.ar    1  UNL1        0.0503
     28 C         -22.8090  -12.1125  -13.8069 C.ar    1  UNL1        0.0328
     29 C         -24.0103  -12.5510  -14.3762 C.ar    1  UNL1        0.1069
     30 C         -25.0742  -11.6577  -14.5225 C.ar    1  UNL1        0.0186
     31 C         -24.9429  -10.3361  -14.0998 C.ar    1  UNL1        0.0071
     32 C         -23.7456   -9.8834  -13.5226 C.ar    1  UNL1        0.0667
     33 S         -24.1674  -14.2151  -14.9300 S.O2    1  UNL1        0.0105
     34 C         -22.5491  -14.9195  -15.1448 C.3     1  UNL1        0.1816
     35 O         -24.9361  -15.0165  -13.9171 O.2     1  UNL1       -0.1686
     36 O         -24.9080  -14.2532  -16.2375 O.2     1  UNL1       -0.1686
     37 N         -21.4419  -10.3590  -12.7155 N.pl3   1  UNL1       -0.3325
     38 H         -20.8514   -9.6293  -13.1743 H       1  UNL1        0.1468
     39 C         -20.1470   -9.8980  -10.6684 C.3     1  UNL1        0.0229
     40 C         -20.9845  -10.9138  -11.4392 C.3     1  UNL1        0.0871
@<TRIPOS>BOND
     1    39    40    1
     2    40    37    1
     3    37    27    1
     4    27    28   ar
     5    28    29   ar
     6    29    33    1
     7    33    34    1
     8    33    35    2
     9    33    36    2
    10    29    30   ar
    11    30    31   ar
    12    31    32   ar
    13    32     1    1
    14     1     2    2
    15     1     3   am
    16     3     4    1
    17     4     5    1
    18     5     6    1
    19     6     7    1
    20     7     8   ar
    21     8     9   ar
    22     9    10   ar
    23    10    14    1
    24    14    15   ar
    25    15    16   ar
    26    16    17   ar
    27    17    18   ar
    28    18    19   ar
    29    19    20   ar
    30    20    21   ar
    31    21    22   ar
    32    22    24    1
    33    24    25    1
    34    25    26    1
    35    10    11   ar
    36    11    12   ar
    37    12    13    1
    38    32    27   ar
    39    13     3    1
    40    12     7   ar
    41    22    14   ar
    42    21    17   ar
    43    37    38    1
    44    20    23    1
@<TRIPOS>MOLECULE
*****
 40 44 0 0 0
SMALL
GASTEIGER

@<TRIPOS>ATOM
      1 C         -23.7872   -8.1617  -13.3737 C.2     1  UNL1        0.2506
      2 O         -22.9908   -7.4167  -14.0073 O.2     1  UNL1       -0.2699
      3 N         -24.6367   -7.5974  -12.3536 N.am    1  UNL1       -0.2680
      4 C         -24.9471   -8.3533  -11.1326 C.3     1  UNL1        0.1412
      5 C         -26.3691   -8.0731  -10.6374 C.3     1  UNL1        0.2268
      6 O         -27.3220   -8.1875  -11.6922 O.3     1  UNL1       -0.4739
      7 C         -27.5172   -7.2579  -12.7300 C.ar    1  UNL1        0.1362
      8 C         -28.7436   -7.3087  -13.4029 C.ar    1  UNL1        0.0366
      9 C         -29.0370   -6.4103  -14.4286 C.ar    1  UNL1        0.0031
     10 C         -28.1034   -5.4375  -14.8025 C.ar    1  UNL1       -0.0002
     11 C         -26.8558   -5.3999  -14.1644 C.ar    1  UNL1        0.0004
     12 C         -26.5425   -6.3050  -13.1353 C.ar    1  UNL1        0.0317
     13 C         -25.1698   -6.2412  -12.5157 C.3     1  UNL1        0.1236
     14 C         -28.4209   -4.4798  -15.8853 C.ar    1  UNL1       -0.0002
     15 C         -29.6816   -3.8276  -15.8601 C.ar    1  UNL1        0.0014
     16 C         -30.0580   -2.9424  -16.8829 C.ar    1  UNL1        0.0206
     17 C         -29.1581   -2.7280  -17.9183 C.ar    1  UNL1        0.0983
     18 N         -29.3275   -1.9429  -18.9970 N.ar    1  UNL1       -0.2241
     19 C         -28.1633   -2.1059  -19.6760 C.ar    1  UNL1        0.1750
     20 N         -27.2965   -2.9483  -19.0662 N.ar    1  UNL1       -0.3351
     21 C         -27.9378   -3.3345  -17.9528 C.ar    1  UNL1        0.0739
     22 C         -27.5028   -4.2083  -16.9448 C.ar    1  UNL1        0.0244
     23 H         -26.3504   -3.2311  -19.4045 H       1  UNL1        0.1675
     24 C         -26.1303   -4.8313  -17.0144 C.3     1  UNL1        0.1702
     25 O         -25.8138   -5.0924  -18.3650 O.3     1  UNL1       -0.3463
     26 C         -24.7145   -5.9722  -18.4280 C.3     1  UNL1        0.1746
     27 C         -22.7835  -10.4811  -13.5698 C.ar    1  UNL1        0.0503
     28 C         -22.9153  -11.8132  -14.0129 C.ar    1  UNL1        0.0328
     29 C         -24.1061  -12.2629  -14.5951 C.ar    1  UNL1        0.1069
     30 C         -25.1764  -11.3794  -14.7537 C.ar    1  UNL1        0.0186
     31 C         -25.0618  -10.0565  -14.3304 C.ar    1  UNL1        0.0071
     32 C         -23.8752   -9.5926  -13.7402 C.ar    1  UNL1        0.0667
     33 S         -24.2420  -13.9287  -15.1496 S.O2    1  UNL1        0.0105
     34 C         -22.6318  -14.6828  -15.1485 C.3     1  UNL1        0.1816
     35 O         -25.1583  -14.6942  -14.2367 O.2     1  UNL1       -0.1686
     36 O         -24.8098  -13.9618  -16.5410 O.2     1  UNL1       -0.1686
     37 N         -21.5762  -10.0468  -12.9075 N.pl3   1  UNL1       -0.3325
     38 H         -20.8296   -9.5814  -13.4711 H       1  UNL1        0.1468
     39 C         -20.5418  -11.5094  -11.2132 C.3     1  UNL1        0.0229
     40 C         -21.3409  -10.2363  -11.4741 C.3     1  UNL1        0.0871
@<TRIPOS>BOND
     1    39    40    1
     2    40    37    1
     3    37    27    1
     4    27    28   ar
     5    28    29   ar
     6    29    33    1
     7    33    34    1
     8    33    35    2
     9    33    36    2
    10    29    30   ar
    11    30    31   ar
    12    31    32   ar
    13    32     1    1
    14     1     2    2
    15     1     3   am
    16     3     4    1
    17     4     5    1
    18     5     6    1
    19     6     7    1
    20     7     8   ar
    21     8     9   ar
    22     9    10   ar
    23    10    14    1
    24    14    15   ar
    25    15    16   ar
    26    16    17   ar
    27    17    18   ar
    28    18    19   ar
    29    19    20   ar
    30    20    21   ar
    31    21    22   ar
    32    22    24    1
    33    24    25    1
    34    25    26    1
    35    10    11   ar
    36    11    12   ar
    37    12    13    1
    38    32    27   ar
    39    13     3    1
    40    12     7   ar
    41    22    14   ar
    42    21    17   ar
    43    37    38    1
    44    20    23    1
@<TRIPOS>MOLECULE
*****
 40 44 0 0 0
SMALL
GASTEIGER

@<TRIPOS>ATOM
      1 C         -23.3152   -7.7758  -12.9210 C.2     1  UNL1        0.2506
      2 O         -22.6212   -6.8534  -13.4291 O.2     1  UNL1       -0.2699
      3 N         -24.3253   -7.4551  -11.9424 N.am    1  UNL1       -0.2680
      4 C         -24.5839   -8.3531  -10.8087 C.3     1  UNL1        0.1412
      5 C         -26.0657   -8.3666  -10.4216 C.3     1  UNL1        0.2268
      6 O         -26.9020   -8.5558  -11.5611 O.3     1  UNL1       -0.4739
      7 C         -27.1840   -7.5905  -12.5450 C.ar    1  UNL1        0.1362
      8 C         -28.3282   -7.7968  -13.3245 C.ar    1  UNL1        0.0366
      9 C         -28.7019   -6.8802  -14.3071 C.ar    1  UNL1        0.0031
     10 C         -27.9335   -5.7323  -14.5294 C.ar    1  UNL1       -0.0002
     11 C         -26.7636   -5.5323  -13.7835 C.ar    1  UNL1        0.0004
     12 C         -26.3695   -6.4523  -12.7962 C.ar    1  UNL1        0.0317
     13 C         -25.0801   -6.2034  -12.0559 C.3     1  UNL1        0.1236
     14 C         -28.3372   -4.7568  -15.5667 C.ar    1  UNL1       -0.0002
     15 C         -27.3461   -4.2765  -16.4624 C.ar    1  UNL1        0.0014
     16 C         -27.6583   -3.3172  -17.4390 C.ar    1  UNL1        0.0206
     17 C         -28.9660   -2.8541  -17.4979 C.ar    1  UNL1        0.0983
     18 N         -29.4669   -1.9291  -18.3359 N.ar    1  UNL1       -0.2241
     19 C         -30.7692   -1.8533  -17.9598 C.ar    1  UNL1        0.1750
     20 N         -31.0847   -2.6835  -16.9380 N.ar    1  UNL1       -0.3351
     21 C         -29.9342   -3.3132  -16.6554 C.ar    1  UNL1        0.0739
     22 C         -29.6814   -4.2882  -15.6785 C.ar    1  UNL1        0.0244
     23 H         -32.0158   -2.7901  -16.4783 H       1  UNL1        0.1675
     24 C         -30.7950   -4.7851  -14.7898 C.3     1  UNL1        0.1702
     25 O         -31.5628   -3.6824  -14.3575 O.3     1  UNL1       -0.3463
     26 C         -32.8571   -4.1187  -14.0101 C.3     1  UNL1        0.1746
     27 C         -22.1488   -9.4945  -14.3740 C.ar    1  UNL1        0.0503
     28 C         -22.0694  -10.8264  -14.8300 C.ar    1  UNL1        0.0328
     29 C         -22.9158  -11.8148  -14.3141 C.ar    1  UNL1        0.1069
     30 C         -23.8627  -11.4784  -13.3438 C.ar    1  UNL1        0.0186
     31 C         -23.9625  -10.1653  -12.8874 C.ar    1  UNL1        0.0071
     32 C         -23.1170   -9.1644  -13.3922 C.ar    1  UNL1        0.0667
     33 S         -22.8036  -13.4688  -14.9075 S.O2    1  UNL1        0.0105
     34 C         -24.3571  -14.2940  -14.6485 C.3     1  UNL1        0.1816
     35 O         -22.4751  -13.4605  -16.3742 O.2     1  UNL1       -0.1686
     36 O         -21.7171  -14.2046  -14.1743 O.2     1  UNL1       -0.1686
     37 N         -21.2246   -8.4982  -14.8619 N.pl3   1  UNL1       -0.3325
     38 H         -20.5814   -8.0302  -14.1844 H       1  UNL1        0.1468
     39 C         -22.5106   -7.6381  -16.7819 C.3     1  UNL1        0.0229
     40 C         -21.1502   -8.1014  -16.2701 C.3     1  UNL1        0.0871
@<TRIPOS>BOND
     1    39    40    1
     2    40    37    1
     3    37    27    1
     4    27    28   ar
     5    28    29   ar
     6    29    33    1
     7    33    34    1
     8    33    35    2
     9    33    36    2
    10    29    30   ar
    11    30    31   ar
    12    31    32   ar
    13    32     1    1
    14     1     2    2
    15     1     3   am
    16     3     4    1
    17     4     5    1
    18     5     6    1
    19     6     7    1
    20     7     8   ar
    21     8     9   ar
    22     9    10   ar
    23    10    14    1
    24    14    15   ar
    25    15    16   ar
    26    16    17   ar
    27    17    18   ar
    28    18    19   ar
    29    19    20   ar
    30    20    21   ar
    31    21    22   ar
    32    22    24    1
    33    24    25    1
    34    25    26    1
    35    10    11   ar
    36    11    12   ar
    37    12    13    1
    38    32    27   ar
    39    13     3    1
    40    12     7   ar
    41    22    14   ar
    42    21    17   ar
    43    37    38    1
    44    20    23    1
@<TRIPOS>MOLECULE
*****
 40 44 0 0 0
SMALL
GASTEIGER

@<TRIPOS>ATOM
      1 C         -22.3068   -8.2057  -16.2445 C.2     1  UNL1        0.2506
      2 O         -21.1013   -7.8511  -16.3513 O.2     1  UNL1       -0.2699
      3 N         -22.6247   -9.5826  -15.9552 N.am    1  UNL1       -0.2680
      4 C         -23.8033  -10.2228  -16.5549 C.3     1  UNL1        0.1412
      5 C         -24.4482  -11.2325  -15.6007 C.3     1  UNL1        0.2268
      6 O         -24.6431  -10.6744  -14.3029 O.3     1  UNL1       -0.4739
      7 C         -23.6371  -10.4386  -13.3482 C.ar    1  UNL1        0.1362
      8 C         -24.0473  -10.3016  -12.0169 C.ar    1  UNL1        0.0366
      9 C         -23.1185  -10.0913  -10.9979 C.ar    1  UNL1        0.0031
     10 C         -21.7530  -10.0143  -11.2933 C.ar    1  UNL1       -0.0002
     11 C         -21.3309  -10.1102  -12.6265 C.ar    1  UNL1        0.0004
     12 C         -22.2565  -10.3129  -13.6651 C.ar    1  UNL1        0.0317
     13 C         -21.7456  -10.3668  -15.0823 C.3     1  UNL1        0.1236
     14 C         -20.7689   -9.7998  -10.2088 C.ar    1  UNL1       -0.0002
     15 C         -19.5670  -10.5550  -10.2304 C.ar    1  UNL1        0.0014
     16 C         -18.6152  -10.4282   -9.2059 C.ar    1  UNL1        0.0206
     17 C         -18.8895   -9.5423   -8.1725 C.ar    1  UNL1        0.0983
     18 N         -18.1291   -9.2879   -7.0927 N.ar    1  UNL1       -0.2241
     19 C         -18.8619   -8.3665   -6.4167 C.ar    1  UNL1        0.1750
     20 N         -20.0265   -8.0484   -7.0293 N.ar    1  UNL1       -0.3351
     21 C         -20.0315   -8.7988   -8.1415 C.ar    1  UNL1        0.0739
     22 C         -21.0032   -8.8693   -9.1514 C.ar    1  UNL1        0.0244
     23 H         -20.7511   -7.3762   -6.6936 H       1  UNL1        0.1675
     24 C         -22.2368   -8.0029   -9.0856 C.3     1  UNL1        0.1702
     25 O         -21.8784   -6.7329   -8.5846 O.3     1  UNL1       -0.3463
     26 C         -21.6499   -5.8512   -9.6602 C.3     1  UNL1        0.1746
     27 C         -24.2470   -6.8879  -15.2828 C.ar    1  UNL1        0.0503
     28 C         -25.2829   -5.9535  -15.4876 C.ar    1  UNL1        0.0328
     29 C         -25.4362   -5.3084  -16.7204 C.ar    1  UNL1        0.1069
     30 C         -24.5612   -5.6016  -17.7691 C.ar    1  UNL1        0.0186
     31 C         -23.5368   -6.5292  -17.5886 C.ar    1  UNL1        0.0071
     32 C         -23.3680   -7.1805  -16.3561 C.ar    1  UNL1        0.0667
     33 S         -26.7443   -4.1530  -16.9539 S.O2    1  UNL1        0.0105
     34 C         -28.0687   -4.5275  -15.8283 C.3     1  UNL1        0.1816
     35 O         -26.2426   -2.7597  -16.6969 O.2     1  UNL1       -0.1686
     36 O         -27.2508   -4.2300  -18.3670 O.2     1  UNL1       -0.1686
     37 N         -24.0554   -7.4949  -13.9869 N.pl3   1  UNL1       -0.3325
     38 H         -23.8977   -8.5262  -13.9298 H       1  UNL1        0.1468
     39 C         -25.4143   -6.9018  -12.0167 C.3     1  UNL1        0.0229
     40 C         -24.0804   -6.7311  -12.7371 C.3     1  UNL1        0.0871
@<TRIPOS>BOND
     1    39    40    1
     2    40    37    1
     3    37    27    1
     4    27    28   ar
     5    28    29   ar
     6    29    33    1
     7    33    34    1
     8    33    35    2
     9    33    36    2
    10    29    30   ar
    11    30    31   ar
    12    31    32   ar
    13    32     1    1
    14     1     2    2
    15     1     3   am
    16     3     4    1
    17     4     5    1
    18     5     6    1
    19     6     7    1
    20     7     8   ar
    21     8     9   ar
    22     9    10   ar
    23    10    14    1
    24    14    15   ar
    25    15    16   ar
    26    16    17   ar
    27    17    18   ar
    28    18    19   ar
    29    19    20   ar
    30    20    21   ar
    31    21    22   ar
    32    22    24    1
    33    24    25    1
    34    25    26    1
    35    10    11   ar
    36    11    12   ar
    37    12    13    1
    38    32    27   ar
    39    13     3    1
    40    12     7   ar
    41    22    14   ar
    42    21    17   ar
    43    37    38    1
    44    20    23    1
@<TRIPOS>MOLECULE
*****
 40 44 0 0 0
SMALL
GASTEIGER

@<TRIPOS>ATOM
      1 C         -24.2147  -10.3576  -11.5319 C.2     1  UNL1        0.2506
      2 O         -24.8241  -10.6141  -10.4580 O.2     1  UNL1       -0.2699
      3 N         -23.7394   -9.0190  -11.7828 N.am    1  UNL1       -0.2680
      4 C         -23.7678   -8.4543  -13.1388 C.3     1  UNL1        0.1412
      5 C         -22.5753   -7.5273  -13.3930 C.3     1  UNL1        0.2268
      6 O         -21.3465   -8.1382  -13.0051 O.3     1  UNL1       -0.4739
      7 C         -20.9002   -8.3242  -11.6839 C.ar    1  UNL1        0.1362
      8 C         -19.5280   -8.5332  -11.5028 C.ar    1  UNL1        0.0366
      9 C         -18.9901   -8.7018  -10.2270 C.ar    1  UNL1        0.0031
     10 C         -19.8199   -8.6635   -9.1012 C.ar    1  UNL1       -0.0002
     11 C         -21.2012   -8.4944   -9.2699 C.ar    1  UNL1        0.0004
     12 C         -21.7587   -8.3326  -10.5503 C.ar    1  UNL1        0.0317
     13 C         -23.2552   -8.1959  -10.6703 C.3     1  UNL1        0.1236
     14 C         -19.2452   -8.8339   -7.7480 C.ar    1  UNL1       -0.0002
     15 C         -19.5975   -7.8952   -6.7430 C.ar    1  UNL1        0.0014
     16 C         -19.0504   -7.9782   -5.4526 C.ar    1  UNL1        0.0206
     17 C         -18.1537   -9.0063   -5.1937 C.ar    1  UNL1        0.0983
     18 N         -17.5045   -9.2519   -4.0418 N.ar    1  UNL1       -0.2241
     19 C         -16.7637  -10.3499   -4.3398 C.ar    1  UNL1        0.1750
     20 N         -16.9294  -10.7834   -5.6116 N.ar    1  UNL1       -0.3351
     21 C         -17.8137   -9.9249   -6.1417 C.ar    1  UNL1        0.0739
     22 C         -18.3494   -9.9019   -7.4384 C.ar    1  UNL1        0.0244
     23 H         -16.4596  -11.5979   -6.0651 H       1  UNL1        0.1675
     24 C         -17.9632  -10.9597   -8.4428 C.3     1  UNL1        0.1702
     25 O         -16.6101  -11.3086   -8.2433 O.3     1  UNL1       -0.3463
     26 C         -16.2424  -12.3093   -9.1651 C.3     1  UNL1        0.1746
     27 C         -22.6268  -11.8459  -12.8316 C.ar    1  UNL1        0.0503
     28 C         -22.4478  -12.8516  -13.8036 C.ar    1  UNL1        0.0328
     29 C         -23.5477  -13.4739  -14.4055 C.ar    1  UNL1        0.1069
     30 C         -24.8422  -13.0866  -14.0512 C.ar    1  UNL1        0.0186
     31 C         -25.0392  -12.0879  -13.0993 C.ar    1  UNL1        0.0071
     32 C         -23.9455  -11.4582  -12.4836 C.ar    1  UNL1        0.0667
     33 S         -23.2974  -14.7201  -15.6240 S.O2    1  UNL1        0.0105
     34 C         -24.8424  -15.0750  -16.4294 C.3     1  UNL1        0.1816
     35 O         -22.2971  -14.2434  -16.6394 O.2     1  UNL1       -0.1686
     36 O         -22.7702  -15.9709  -14.9783 O.2     1  UNL1       -0.1686
     37 N         -21.4868  -11.2603  -12.1667 N.pl3   1  UNL1       -0.3325
     38 H         -21.1114  -10.3493  -12.5145 H       1  UNL1        0.1468
     39 C         -19.7807  -12.9065  -11.4891 C.3     1  UNL1        0.0229
     40 C         -20.8194  -11.8901  -11.0248 C.3     1  UNL1        0.0871
@<TRIPOS>BOND
     1    39    40    1
     2    40    37    1
     3    37    27    1
     4    27    28   ar
     5    28    29   ar
     6    29    33    1
     7    33    34    1
     8    33    35    2
     9    33    36    2
    10    29    30   ar
    11    30    31   ar
    12    31    32   ar
    13    32     1    1
    14     1     2    2
    15     1     3   am
    16     3     4    1
    17     4     5    1
    18     5     6    1
    19     6     7    1
    20     7     8   ar
    21     8     9   ar
    22     9    10   ar
    23    10    14    1
    24    14    15   ar
    25    15    16   ar
    26    16    17   ar
    27    17    18   ar
    28    18    19   ar
    29    19    20   ar
    30    20    21   ar
    31    21    22   ar
    32    22    24    1
    33    24    25    1
    34    25    26    1
    35    10    11   ar
    36    11    12   ar
    37    12    13    1
    38    32    27   ar
    39    13     3    1
    40    12     7   ar
    41    22    14   ar
    42    21    17   ar
    43    37    38    1
    44    20    23    1
@<TRIPOS>MOLECULE
*****
 40 44 0 0 0
SMALL
GASTEIGER

@<TRIPOS>ATOM
      1 C         -28.1641   -6.6901  -13.4728 C.2     1  UNL1        0.2506
      2 O         -29.0557   -7.5764  -13.3736 O.2     1  UNL1       -0.2699
      3 N         -27.0443   -6.6967  -12.5636 N.am    1  UNL1       -0.2680
      4 C         -26.4657   -5.4372  -12.0762 C.3     1  UNL1        0.1412
      5 C         -24.9498   -5.5448  -11.8859 C.3     1  UNL1        0.2268
      6 O         -24.3180   -6.1104  -13.0324 O.3     1  UNL1       -0.4739
      7 C         -24.3514   -7.4663  -13.4062 C.ar    1  UNL1        0.1362
      8 C         -23.3515   -7.9065  -14.2814 C.ar    1  UNL1        0.0366
      9 C         -23.2890   -9.2394  -14.6872 C.ar    1  UNL1        0.0031
     10 C         -24.2311  -10.1632  -14.2216 C.ar    1  UNL1       -0.0002
     11 C         -25.2613   -9.7287  -13.3761 C.ar    1  UNL1        0.0004
     12 C         -25.3424   -8.3864  -12.9662 C.ar    1  UNL1        0.0317
     13 C         -26.4965   -7.9714  -12.0897 C.3     1  UNL1        0.1236
     14 C         -24.1571  -11.5789  -14.6469 C.ar    1  UNL1       -0.0002
     15 C         -25.3263  -12.1856  -15.1765 C.ar    1  UNL1        0.0014
     16 C         -25.3307  -13.5374  -15.5558 C.ar    1  UNL1        0.0206
     17 C         -24.1558  -14.2597  -15.3943 C.ar    1  UNL1        0.0983
     18 N         -23.9527  -15.5598  -15.6725 N.ar    1  UNL1       -0.2241
     19 C         -22.6537  -15.7446  -15.3239 C.ar    1  UNL1        0.1750
     20 N         -22.0580  -14.6254  -14.8492 N.ar    1  UNL1       -0.3351
     21 C         -23.0197  -13.6912  -14.9004 C.ar    1  UNL1        0.0739
     22 C         -22.9544  -12.3395  -14.5292 C.ar    1  UNL1        0.0244
     23 H         -21.0742  -14.5300  -14.5135 H       1  UNL1        0.1675
     24 C         -21.6637  -11.7505  -14.0155 C.3     1  UNL1        0.1702
     25 O         -21.2069  -12.5262  -12.9283 O.3     1  UNL1       -0.3463
     26 C         -21.1249  -11.7181  -11.7765 C.3     1  UNL1        0.1746
     27 C         -29.5053   -5.2449  -15.0661 C.ar    1  UNL1        0.0503
     28 C         -29.5173   -4.3573  -16.1616 C.ar    1  UNL1        0.0328
     29 C         -28.3227   -3.9126  -16.7400 C.ar    1  UNL1        0.1069
     30 C         -27.0999   -4.3628  -16.2368 C.ar    1  UNL1        0.0186
     31 C         -27.0679   -5.2476  -15.1604 C.ar    1  UNL1        0.0071
     32 C         -28.2581   -5.6983  -14.5670 C.ar    1  UNL1        0.0667
     33 S         -28.3649   -2.8120  -18.1139 S.O2    1  UNL1        0.0105
     34 C         -30.0558   -2.4389  -18.5178 C.3     1  UNL1        0.1816
     35 O         -27.6365   -1.5431  -17.7701 O.2     1  UNL1       -0.1686
     36 O         -27.6946   -3.4463  -19.3003 O.2     1  UNL1       -0.1686
     37 N         -30.7407   -5.6420  -14.4330 N.pl3   1  UNL1       -0.3325
     38 H         -30.7156   -6.3789  -13.6927 H       1  UNL1        0.1468
     39 C         -32.2384   -3.7092  -14.1145 C.3     1  UNL1        0.0229
     40 C         -32.0396   -5.0641  -14.7868 C.3     1  UNL1        0.0871
@<TRIPOS>BOND
     1    39    40    1
     2    40    37    1
     3    37    27    1
     4    27    28   ar
     5    28    29   ar
     6    29    33    1
     7    33    34    1
     8    33    35    2
     9    33    36    2
    10    29    30   ar
    11    30    31   ar
    12    31    32   ar
    13    32     1    1
    14     1     2    2
    15     1     3   am
    16     3     4    1
    17     4     5    1
    18     5     6    1
    19     6     7    1
    20     7     8   ar
    21     8     9   ar
    22     9    10   ar
    23    10    14    1
    24    14    15   ar
    25    15    16   ar
    26    16    17   ar
    27    17    18   ar
    28    18    19   ar
    29    19    20   ar
    30    20    21   ar
    31    21    22   ar
    32    22    24    1
    33    24    25    1
    34    25    26    1
    35    10    11   ar
    36    11    12   ar
    37    12    13    1
    38    32    27   ar
    39    13     3    1
    40    12     7   ar
    41    22    14   ar
    42    21    17   ar
    43    37    38    1
    44    20    23    1
@<TRIPOS>MOLECULE
*****
 40 44 0 0 0
SMALL
GASTEIGER

@<TRIPOS>ATOM
      1 C         -20.8998   -8.0744   -9.3466 C.2     1  UNL1        0.2506
      2 O         -20.4407   -6.9369   -9.6395 O.2     1  UNL1       -0.2699
      3 N         -22.3193   -8.2456   -9.1559 N.am    1  UNL1       -0.2680
      4 C         -22.8336   -9.1673   -8.1338 C.3     1  UNL1        0.1412
      5 C         -24.1302   -9.8474   -8.5832 C.3     1  UNL1        0.2268
      6 O         -24.0080  -10.3894   -9.8966 O.3     1  UNL1       -0.4739
      7 C         -23.9985   -9.6515  -11.0944 C.ar    1  UNL1        0.1362
      8 C         -24.3026  -10.3485  -12.2696 C.ar    1  UNL1        0.0366
      9 C         -24.3425   -9.6953  -13.5013 C.ar    1  UNL1        0.0031
     10 C         -24.0780   -8.3236  -13.5809 C.ar    1  UNL1       -0.0002
     11 C         -23.7333   -7.6207  -12.4182 C.ar    1  UNL1        0.0004
     12 C         -23.6800   -8.2677  -11.1712 C.ar    1  UNL1        0.0317
     13 C         -23.2634   -7.4673   -9.9637 C.3     1  UNL1        0.1236
     14 C         -24.1297   -7.6313  -14.8880 C.ar    1  UNL1       -0.0002
     15 C         -23.1053   -7.8993  -15.8337 C.ar    1  UNL1        0.0014
     16 C         -23.0755   -7.2405  -17.0732 C.ar    1  UNL1        0.0206
     17 C         -24.0787   -6.3187  -17.3415 C.ar    1  UNL1        0.0983
     18 N         -24.2231   -5.5693  -18.4490 N.ar    1  UNL1       -0.2241
     19 C         -25.3446   -4.8514  -18.1846 C.ar    1  UNL1        0.1750
     20 N         -25.8882   -5.1257  -16.9755 N.ar    1  UNL1       -0.3351
     21 C         -25.0779   -6.0580  -16.4518 C.ar    1  UNL1        0.0739
     22 C         -25.1681   -6.7057  -15.2102 C.ar    1  UNL1        0.0244
     23 H         -26.7404   -4.6930  -16.5558 H       1  UNL1        0.1675
     24 C         -26.3110   -6.4032  -14.2728 C.3     1  UNL1        0.1702
     25 O         -26.1151   -5.1240  -13.7093 O.3     1  UNL1       -0.3463
     26 C         -26.4030   -5.1692  -12.3303 C.3     1  UNL1        0.1746
     27 C         -18.9489   -9.2997   -8.2892 C.ar    1  UNL1        0.0503
     28 C         -18.0530  -10.3879   -8.3242 C.ar    1  UNL1        0.0328
     29 C         -18.1754  -11.3893   -9.2946 C.ar    1  UNL1        0.1069
     30 C         -19.1894  -11.3060  -10.2518 C.ar    1  UNL1        0.0186
     31 C         -20.0788  -10.2330  -10.2390 C.ar    1  UNL1        0.0071
     32 C         -19.9712   -9.2238   -9.2687 C.ar    1  UNL1        0.0667
     33 S         -17.0376  -12.7329   -9.3231 S.O2    1  UNL1        0.0105
     34 C         -15.3778  -12.1007   -9.2409 C.3     1  UNL1        0.1816
     35 O         -17.2915  -13.6378   -8.1502 O.2     1  UNL1       -0.1686
     36 O         -17.2100  -13.5247  -10.5891 O.2     1  UNL1       -0.1686
     37 N         -18.8566   -8.3098   -7.2421 N.pl3   1  UNL1       -0.3325
     38 H         -19.0254   -7.3062   -7.4786 H       1  UNL1        0.1468
     39 C         -17.5233   -7.6525   -5.2748 C.3     1  UNL1        0.0229
     40 C         -18.5261   -8.6451   -5.8549 C.3     1  UNL1        0.0871
@<TRIPOS>BOND
     1    39    40    1
     2    40    37    1
     3    37    27    1
     4    27    28   ar
     5    28    29   ar
     6    29    33    1
     7    33    34    1
     8    33    35    2
     9    33    36    2
    10    29    30   ar
    11    30    31   ar
    12    31    32   ar
    13    32     1    1
    14     1     2    2
    15     1     3   am
    16     3     4    1
    17     4     5    1
    18     5     6    1
    19     6     7    1
    20     7     8   ar
    21     8     9   ar
    22     9    10   ar
    23    10    14    1
    24    14    15   ar
    25    15    16   ar
    26    16    17   ar
    27    17    18   ar
    28    18    19   ar
    29    19    20   ar
    30    20    21   ar
    31    21    22   ar
    32    22    24    1
    33    24    25    1
    34    25    26    1
    35    10    11   ar
    36    11    12   ar
    37    12    13    1
    38    32    27   ar
    39    13     3    1
    40    12     7   ar
    41    22    14   ar
    42    21    17   ar
    43    37    38    1
    44    20    23    1
@<TRIPOS>MOLECULE
*****
 40 44 0 0 0
SMALL
GASTEIGER

@<TRIPOS>ATOM
      1 C         -23.8158   -7.9589  -11.2136 C.2     1  UNL1        0.2506
      2 O         -24.6799   -7.4747  -10.4330 O.2     1  UNL1       -0.2699
      3 N         -22.5369   -7.3076  -11.3580 N.am    1  UNL1       -0.2680
      4 C         -21.8578   -7.2673  -12.6602 C.3     1  UNL1        0.1412
      5 C         -20.3358   -7.3495  -12.5097 C.3     1  UNL1        0.2268
      6 O         -19.9528   -8.4189  -11.6475 O.3     1  UNL1       -0.4739
      7 C         -20.0762   -8.4315  -10.2461 C.ar    1  UNL1        0.1362
      8 C         -19.2770   -9.3447   -9.5485 C.ar    1  UNL1        0.0366
      9 C         -19.3125   -9.4117   -8.1558 C.ar    1  UNL1        0.0031
     10 C         -20.1531   -8.5606   -7.4301 C.ar    1  UNL1       -0.0002
     11 C         -20.9882   -7.6684   -8.1170 C.ar    1  UNL1        0.0004
     12 C         -20.9699   -7.5963   -9.5209 C.ar    1  UNL1        0.0317
     13 C         -21.9203   -6.6462  -10.2039 C.3     1  UNL1        0.1236
     14 C         -20.1824   -8.6278   -5.9519 C.ar    1  UNL1       -0.0002
     15 C         -21.3338   -9.1720   -5.3245 C.ar    1  UNL1        0.0014
     16 C         -21.4390   -9.2218   -3.9253 C.ar    1  UNL1        0.0206
     17 C         -20.3819   -8.7204   -3.1776 C.ar    1  UNL1        0.0983
     18 N         -20.2900   -8.6536   -1.8375 N.ar    1  UNL1       -0.2241
     19 C         -19.0750   -8.0791   -1.6456 C.ar    1  UNL1        0.1750
     20 N         -18.4250   -7.7940   -2.7984 N.ar    1  UNL1       -0.3351
     21 C         -19.2627   -8.2065   -3.7618 C.ar    1  UNL1        0.0739
     22 C         -19.0964   -8.1553   -5.1542 C.ar    1  UNL1        0.0244
     23 H         -17.4880   -7.3449   -2.8981 H       1  UNL1        0.1675
     24 C         -17.8252   -7.6038   -5.7513 C.3     1  UNL1        0.1702
     25 O         -16.7393   -8.4048   -5.3369 O.3     1  UNL1       -0.3463
     26 C         -15.6864   -7.5774   -4.8973 C.3     1  UNL1        0.1746
     27 C         -25.1426   -9.3219  -12.8892 C.ar    1  UNL1        0.0503
     28 C         -25.4217  -10.5798  -13.4618 C.ar    1  UNL1        0.0328
     29 C         -24.6894  -11.7152  -13.0954 C.ar    1  UNL1        0.1069
     30 C         -23.6766  -11.6074  -12.1395 C.ar    1  UNL1        0.0186
     31 C         -23.3923  -10.3743  -11.5555 C.ar    1  UNL1        0.0071
     32 C         -24.1152   -9.2260  -11.9168 C.ar    1  UNL1        0.0667
     33 S         -25.0643  -13.2767  -13.8177 S.O2    1  UNL1        0.0105
     34 C         -23.6136  -13.9167  -14.6224 C.3     1  UNL1        0.1816
     35 O         -25.5133  -14.2348  -12.7503 O.2     1  UNL1       -0.1686
     36 O         -26.1697  -13.1243  -14.8247 O.2     1  UNL1       -0.1686
     37 N         -25.8566   -8.1452  -13.3255 N.pl3   1  UNL1       -0.3325
     38 H         -25.4435   -7.5543  -14.0818 H       1  UNL1        0.1468
     39 C         -28.1117   -7.2894  -13.8370 C.3     1  UNL1        0.0229
     40 C         -27.1378   -7.7305  -12.7488 C.3     1  UNL1        0.0871
@<TRIPOS>BOND
     1    39    40    1
     2    40    37    1
     3    37    27    1
     4    27    28   ar
     5    28    29   ar
     6    29    33    1
     7    33    34    1
     8    33    35    2
     9    33    36    2
    10    29    30   ar
    11    30    31   ar
    12    31    32   ar
    13    32     1    1
    14     1     2    2
    15     1     3   am
    16     3     4    1
    17     4     5    1
    18     5     6    1
    19     6     7    1
    20     7     8   ar
    21     8     9   ar
    22     9    10   ar
    23    10    14    1
    24    14    15   ar
    25    15    16   ar
    26    16    17   ar
    27    17    18   ar
    28    18    19   ar
    29    19    20   ar
    30    20    21   ar
    31    21    22   ar
    32    22    24    1
    33    24    25    1
    34    25    26    1
    35    10    11   ar
    36    11    12   ar
    37    12    13    1
    38    32    27   ar
    39    13     3    1
    40    12     7   ar
    41    22    14   ar
    42    21    17   ar
    43    37    38    1
    44    20    23    1
