@<TRIPOS>MOLECULE
*****
 49 54 0 0 0
SMALL
GASTEIGER

@<TRIPOS>ATOM
      1 O           5.6851   73.1209   27.6138 O.2     1  UNL1       -0.2701
      2 C           5.8546   74.3358   27.3293 C.2     1  UNL1        0.2483
      3 N           4.8985   75.3165   27.7695 N.am    1  UNL1       -0.2945
      4 H           4.0643   74.9858   28.3061 H       1  UNL1        0.1501
      5 C           7.0305   74.7405   26.5470 C.ar    1  UNL1        0.0808
      6 C           8.0692   75.4311   27.1828 C.ar    1  UNL1        0.0080
      7 C           9.0136   76.1268   26.4265 C.ar    1  UNL1        0.0148
      8 C           8.9286   76.1482   25.0236 C.ar    1  UNL1        0.0502
      9 C           7.9407   75.3703   24.3906 C.ar    1  UNL1        0.0443
     10 C           6.9970   74.6710   25.1476 C.ar    1  UNL1        0.1457
     11 F           5.9846   74.0238   24.5160 F       1  UNL1       -0.2040
     12 N           9.7334   77.0807   24.2703 N.pl3   1  UNL1       -0.3040
     13 C           9.3632   78.5089   24.2918 C.3     1  UNL1        0.1123
     14 C           9.5504   79.1480   22.9097 C.3     1  UNL1        0.1136
     15 N           9.2740   78.1481   21.8695 N.pl3   1  UNL1       -0.2897
     16 C          10.0800   76.9178   21.8429 C.3     1  UNL1        0.1136
     17 C          10.6707   76.6247   23.2324 C.3     1  UNL1        0.1123
     18 C           8.1242   78.2531   21.0113 C.ar    1  UNL1        0.1318
     19 C           6.9631   77.5068   21.2635 C.ar    1  UNL1        0.0343
     20 C           5.8839   77.5952   20.3841 C.ar    1  UNL1        0.0083
     21 C           5.9656   78.4090   19.2451 C.ar    1  UNL1        0.0906
     22 C           7.1391   79.1518   19.0385 C.ar    1  UNL1        0.1041
     23 N           8.1809   79.0446   19.9054 N.ar    1  UNL1       -0.2292
     24 C           4.7893   78.5461   18.3129 C.3     1  UNL1        0.4200
     25 F           4.7877   77.5267   17.3765 F       1  UNL1       -0.1658
     26 F           4.8377   79.7539   17.6388 F       1  UNL1       -0.1658
     27 F           3.6190   78.4860   19.0458 F       1  UNL1       -0.1658
     28 C           4.9453   76.7145   27.3201 C.3     1  UNL1        0.1535
     29 C           3.9540   76.9308   26.2076 C.2     1  UNL1        0.2443
     30 O           2.7732   77.2776   26.4842 O.2     1  UNL1       -0.2730
     31 N           4.3586   76.7414   24.8420 N.am    1  UNL1       -0.2825
     32 H           5.2593   76.2455   24.6547 H       1  UNL1        0.1549
     33 C           3.5321   77.0733   23.7175 C.ar    1  UNL1        0.0535
     34 C           2.9956   78.3607   23.5627 C.ar    1  UNL1        0.0353
     35 C           2.2144   78.6487   22.4408 C.ar    1  UNL1        0.1002
     36 N           1.9867   77.6906   21.5036 N.ar    1  UNL1       -0.2422
     37 C           2.5077   76.4407   21.6220 C.ar    1  UNL1        0.1002
     38 C           3.2982   76.1134   22.7256 C.ar    1  UNL1        0.0353
     39 C           4.6862   77.6778   28.4892 C.3     1  UNL1        0.0569
     40 C           5.8358   77.6617   29.4602 C.ar    1  UNL1       -0.0017
     41 C           5.7982   77.2088   30.7759 C.ar    1  UNL1        0.0681
     42 N           6.9611   77.4904   31.4064 N.ar    1  UNL1       -0.3523
     43 C           7.7265   78.1320   30.5065 C.ar    1  UNL1        0.0563
     44 C           8.9957   78.6722   30.7104 C.ar    1  UNL1        0.0170
     45 C           9.5952   79.3651   29.6429 C.ar    1  UNL1        0.0015
     46 C           8.9206   79.5013   28.4097 C.ar    1  UNL1        0.0001
     47 C           7.6416   78.9439   28.2317 C.ar    1  UNL1        0.0012
     48 C           7.0732   78.2600   29.3077 C.ar    1  UNL1        0.0131
     49 H           7.1971   77.2847   32.4026 H       1  UNL1        0.1660
@<TRIPOS>BOND
     1     1     2    2
     2     2     3   am
     3     3    28    1
     4    28    39    1
     5    39    40    1
     6    40    41   ar
     7    41    42   ar
     8    42    43   ar
     9    43    44   ar
    10    44    45   ar
    11    45    46   ar
    12    46    47   ar
    13    47    48   ar
    14    28    29    1
    15    29    30    2
    16    29    31   am
    17    31    33    1
    18    33    34   ar
    19    34    35   ar
    20    35    36   ar
    21    36    37   ar
    22    37    38   ar
    23     2     5    1
    24     5     6   ar
    25     6     7   ar
    26     7     8   ar
    27     8    12    1
    28    12    13    1
    29    13    14    1
    30    14    15    1
    31    15    18    1
    32    18    19   ar
    33    19    20   ar
    34    20    21   ar
    35    21    24    1
    36    24    25    1
    37    24    26    1
    38    24    27    1
    39    21    22   ar
    40    22    23   ar
    41    15    16    1
    42    16    17    1
    43     8     9   ar
    44     9    10   ar
    45    10    11    1
    46    48    40   ar
    47    38    33   ar
    48    10     5   ar
    49    48    43   ar
    50    17    12    1
    51    23    18   ar
    52     3     4    1
    53    42    49    1
    54    31    32    1
@<TRIPOS>MOLECULE
*****
 49 54 0 0 0
SMALL
GASTEIGER

@<TRIPOS>ATOM
      1 O           5.5640   73.3302   27.7411 O.2     1  UNL1       -0.2701
      2 C           5.7119   74.5117   27.3314 C.2     1  UNL1        0.2483
      3 N           5.0599   75.5960   28.0160 N.am    1  UNL1       -0.2945
      4 H           4.4546   75.3677   28.8375 H       1  UNL1        0.1501
      5 C           6.5509   74.7715   26.1536 C.ar    1  UNL1        0.0808
      6 C           6.1696   74.2449   24.9136 C.ar    1  UNL1        0.0080
      7 C           7.0943   74.1681   23.8711 C.ar    1  UNL1        0.0148
      8 C           8.4158   74.6098   24.0558 C.ar    1  UNL1        0.0502
      9 C           8.7621   75.2281   25.2720 C.ar    1  UNL1        0.0443
     10 C           7.8356   75.3081   26.3150 C.ar    1  UNL1        0.1457
     11 F           8.2275   75.8024   27.5170 F       1  UNL1       -0.2040
     12 N           9.4257   74.2797   23.0780 N.pl3   1  UNL1       -0.3040
     13 C          10.6289   73.5523   23.5254 C.3     1  UNL1        0.1123
     14 C          11.8852   74.0762   22.8177 C.3     1  UNL1        0.1136
     15 N          11.7318   75.5132   22.5538 N.pl3   1  UNL1       -0.2897
     16 C          10.6018   75.9607   21.7251 C.3     1  UNL1        0.1136
     17 C           9.4611   74.9296   21.7588 C.3     1  UNL1        0.1123
     18 C          12.5337   76.4935   23.2363 C.ar    1  UNL1        0.1318
     19 C          11.9478   77.4368   24.0939 C.ar    1  UNL1        0.0343
     20 C          12.7481   78.4042   24.7018 C.ar    1  UNL1        0.0083
     21 C          14.1255   78.4463   24.4427 C.ar    1  UNL1        0.0906
     22 C          14.6744   77.4740   23.5914 C.ar    1  UNL1        0.1041
     23 N          13.8740   76.5448   23.0046 N.ar    1  UNL1       -0.2292
     24 C          15.0057   79.4591   25.1289 C.3     1  UNL1        0.4200
     25 F          14.2801   80.5899   25.4619 F       1  UNL1       -0.1658
     26 F          16.0483   79.8408   24.3025 F       1  UNL1       -0.1658
     27 F          15.5258   78.9023   26.2821 F       1  UNL1       -0.1658
     28 C           5.0482   76.9655   27.4842 C.3     1  UNL1        0.1535
     29 C           3.9776   77.1005   26.4340 C.2     1  UNL1        0.2443
     30 O           2.7866   77.3244   26.7840 O.2     1  UNL1       -0.2730
     31 N           4.3189   76.9739   25.0440 N.am    1  UNL1       -0.2825
     32 H           5.2513   76.5725   24.7958 H       1  UNL1        0.1549
     33 C           3.4000   77.2404   23.9752 C.ar    1  UNL1        0.0535
     34 C           3.2777   76.3655   22.8848 C.ar    1  UNL1        0.0353
     35 C           2.3540   76.6506   21.8761 C.ar    1  UNL1        0.1002
     36 N           1.5744   77.7611   21.9586 N.ar    1  UNL1       -0.2422
     37 C           1.6622   78.6161   23.0117 C.ar    1  UNL1        0.1002
     38 C           2.5691   78.3650   24.0435 C.ar    1  UNL1        0.0353
     39 C           4.8528   77.9923   28.6109 C.3     1  UNL1        0.0569
     40 C           5.9844   77.9220   29.6004 C.ar    1  UNL1       -0.0017
     41 C           5.8955   77.5120   30.9277 C.ar    1  UNL1        0.0681
     42 N           7.0667   77.7275   31.5688 N.ar    1  UNL1       -0.3523
     43 C           7.8892   78.2856   30.6636 C.ar    1  UNL1        0.0563
     44 C           9.1913   78.7389   30.8725 C.ar    1  UNL1        0.0170
     45 C           9.8543   79.3551   29.7958 C.ar    1  UNL1        0.0015
     46 C           9.2088   79.5031   28.5484 C.ar    1  UNL1        0.0001
     47 C           7.8955   79.0343   28.3656 C.ar    1  UNL1        0.0012
     48 C           7.2639   78.4249   29.4512 C.ar    1  UNL1        0.0131
     49 H           7.2731   77.5348   32.5740 H       1  UNL1        0.1660
@<TRIPOS>BOND
     1     1     2    2
     2     2     3   am
     3     3    28    1
     4    28    39    1
     5    39    40    1
     6    40    41   ar
     7    41    42   ar
     8    42    43   ar
     9    43    44   ar
    10    44    45   ar
    11    45    46   ar
    12    46    47   ar
    13    47    48   ar
    14    28    29    1
    15    29    30    2
    16    29    31   am
    17    31    33    1
    18    33    34   ar
    19    34    35   ar
    20    35    36   ar
    21    36    37   ar
    22    37    38   ar
    23     2     5    1
    24     5     6   ar
    25     6     7   ar
    26     7     8   ar
    27     8    12    1
    28    12    13    1
    29    13    14    1
    30    14    15    1
    31    15    18    1
    32    18    19   ar
    33    19    20   ar
    34    20    21   ar
    35    21    24    1
    36    24    25    1
    37    24    26    1
    38    24    27    1
    39    21    22   ar
    40    22    23   ar
    41    15    16    1
    42    16    17    1
    43     8     9   ar
    44     9    10   ar
    45    10    11    1
    46    48    40   ar
    47    38    33   ar
    48    10     5   ar
    49    48    43   ar
    50    17    12    1
    51    23    18   ar
    52     3     4    1
    53    42    49    1
    54    31    32    1
@<TRIPOS>MOLECULE
*****
 49 54 0 0 0
SMALL
GASTEIGER

@<TRIPOS>ATOM
      1 O           8.1110   74.5483   20.8791 O.2     1  UNL1       -0.2701
      2 C           7.8359   74.9468   22.0415 C.2     1  UNL1        0.2483
      3 N           6.5874   74.5742   22.6515 N.am    1  UNL1       -0.2945
      4 H           5.9223   73.9890   22.0961 H       1  UNL1        0.1501
      5 C           8.7955   75.7919   22.7649 C.ar    1  UNL1        0.0808
      6 C           9.8130   75.1853   23.5112 C.ar    1  UNL1        0.0080
      7 C          10.5087   75.9191   24.4731 C.ar    1  UNL1        0.0148
      8 C          10.1919   77.2683   24.7080 C.ar    1  UNL1        0.0502
      9 C           9.2372   77.8955   23.8853 C.ar    1  UNL1        0.0443
     10 C           8.5427   77.1618   22.9199 C.ar    1  UNL1        0.1457
     11 F           7.5453   77.7597   22.2197 F       1  UNL1       -0.2040
     12 N          10.7175   77.9357   25.8754 N.pl3   1  UNL1       -0.3040
     13 C          10.9956   77.1323   27.0814 C.3     1  UNL1        0.1123
     14 C          10.6031   77.8937   28.3540 C.3     1  UNL1        0.1136
     15 N           9.4401   78.7459   28.0724 N.pl3   1  UNL1       -0.2897
     16 C           9.5556   79.7715   27.0240 C.3     1  UNL1        0.1136
     17 C          10.6574   79.3986   26.0178 C.3     1  UNL1        0.1123
     18 C           8.1513   78.4760   28.6518 C.ar    1  UNL1        0.1318
     19 C           7.9842   78.4067   30.0431 C.ar    1  UNL1        0.0343
     20 C           6.7311   78.0949   30.5707 C.ar    1  UNL1        0.0083
     21 C           5.6502   77.8332   29.7167 C.ar    1  UNL1        0.0906
     22 C           5.8560   77.9292   28.3311 C.ar    1  UNL1        0.1041
     23 N           7.0878   78.2280   27.8393 N.ar    1  UNL1       -0.2292
     24 C           4.2822   77.5393   30.2768 C.3     1  UNL1        0.4200
     25 F           4.3552   76.5635   31.2558 F       1  UNL1       -0.1658
     26 F           3.4318   77.0915   29.2809 F       1  UNL1       -0.1658
     27 F           3.7598   78.6934   30.8297 F       1  UNL1       -0.1658
     28 C           6.1335   75.1504   23.9245 C.3     1  UNL1        0.1535
     29 C           4.8373   75.8893   23.7217 C.2     1  UNL1        0.2443
     30 O           4.0445   76.0341   24.6920 O.2     1  UNL1       -0.2730
     31 N           4.5131   76.4234   22.4278 N.am    1  UNL1       -0.2825
     32 H           5.0694   76.1015   21.6037 H       1  UNL1        0.1549
     33 C           3.3817   77.2699   22.1809 C.ar    1  UNL1        0.0535
     34 C           2.1236   76.7317   21.8695 C.ar    1  UNL1        0.0353
     35 C           1.0423   77.5910   21.6588 C.ar    1  UNL1        0.1002
     36 N           1.2085   78.9359   21.7657 N.ar    1  UNL1       -0.2422
     37 C           2.4127   79.4817   22.0814 C.ar    1  UNL1        0.1002
     38 C           3.5178   78.6577   22.3048 C.ar    1  UNL1        0.0353
     39 C           5.9899   74.0632   25.0011 C.3     1  UNL1        0.0569
     40 C           6.6072   74.5106   26.2985 C.ar    1  UNL1       -0.0017
     41 C           7.8877   75.0295   26.4673 C.ar    1  UNL1        0.0681
     42 N           8.1706   75.1727   27.7821 N.ar    1  UNL1       -0.3523
     43 C           7.0873   74.7331   28.4458 C.ar    1  UNL1        0.0563
     44 C           6.9276   74.6313   29.8273 C.ar    1  UNL1        0.0170
     45 C           5.7283   74.0786   30.3122 C.ar    1  UNL1        0.0015
     46 C           4.7268   73.6448   29.4160 C.ar    1  UNL1        0.0001
     47 C           4.9142   73.7618   28.0269 C.ar    1  UNL1        0.0012
     48 C           6.1130   74.3164   27.5755 C.ar    1  UNL1        0.0131
     49 H           9.0657   75.5178   28.1944 H       1  UNL1        0.1660
@<TRIPOS>BOND
     1     1     2    2
     2     2     3   am
     3     3    28    1
     4    28    39    1
     5    39    40    1
     6    40    41   ar
     7    41    42   ar
     8    42    43   ar
     9    43    44   ar
    10    44    45   ar
    11    45    46   ar
    12    46    47   ar
    13    47    48   ar
    14    28    29    1
    15    29    30    2
    16    29    31   am
    17    31    33    1
    18    33    34   ar
    19    34    35   ar
    20    35    36   ar
    21    36    37   ar
    22    37    38   ar
    23     2     5    1
    24     5     6   ar
    25     6     7   ar
    26     7     8   ar
    27     8    12    1
    28    12    13    1
    29    13    14    1
    30    14    15    1
    31    15    18    1
    32    18    19   ar
    33    19    20   ar
    34    20    21   ar
    35    21    24    1
    36    24    25    1
    37    24    26    1
    38    24    27    1
    39    21    22   ar
    40    22    23   ar
    41    15    16    1
    42    16    17    1
    43     8     9   ar
    44     9    10   ar
    45    10    11    1
    46    48    40   ar
    47    38    33   ar
    48    10     5   ar
    49    48    43   ar
    50    17    12    1
    51    23    18   ar
    52     3     4    1
    53    42    49    1
    54    31    32    1
@<TRIPOS>MOLECULE
*****
 49 54 0 0 0
SMALL
GASTEIGER

@<TRIPOS>ATOM
      1 O          12.5040   77.8691   24.9274 O.2     1  UNL1       -0.2701
      2 C          11.3528   77.3936   24.7426 C.2     1  UNL1        0.2483
      3 N          10.9419   77.0008   23.4210 N.am    1  UNL1       -0.2945
      4 H          11.6147   77.1415   22.6331 H       1  UNL1        0.1501
      5 C          10.4375   77.2452   25.8822 C.ar    1  UNL1        0.0808
      6 C          10.3748   76.0178   26.5527 C.ar    1  UNL1        0.0080
      7 C           9.2945   75.7306   27.3883 C.ar    1  UNL1        0.0148
      8 C           8.2574   76.6637   27.5597 C.ar    1  UNL1        0.0502
      9 C           8.3784   77.9319   26.9609 C.ar    1  UNL1        0.0443
     10 C           9.4616   78.2210   26.1267 C.ar    1  UNL1        0.1457
     11 F           9.4964   79.4075   25.4682 F       1  UNL1       -0.2040
     12 N           7.0267   76.2593   28.1972 N.pl3   1  UNL1       -0.3040
     13 C           6.3856   75.0042   27.7600 C.3     1  UNL1        0.1123
     14 C           4.8594   75.1522   27.7117 C.3     1  UNL1        0.1136
     15 N           4.5155   76.5313   27.3403 N.pl3   1  UNL1       -0.2897
     16 C           4.9871   77.6302   28.1971 C.3     1  UNL1        0.1136
     17 C           6.2287   77.2013   28.9970 C.3     1  UNL1        0.1123
     18 C           3.9054   76.8400   26.0745 C.ar    1  UNL1        0.1318
     19 C           4.5437   76.5194   24.8669 C.ar    1  UNL1        0.0343
     20 C           3.9472   76.8765   23.6575 C.ar    1  UNL1        0.0083
     21 C           2.7277   77.5685   23.6486 C.ar    1  UNL1        0.0906
     22 C           2.1142   77.8555   24.8785 C.ar    1  UNL1        0.1041
     23 N           2.7175   77.5037   26.0450 N.ar    1  UNL1       -0.2292
     24 C           2.0531   77.9195   22.3474 C.3     1  UNL1        0.4200
     25 F           2.4467   79.1749   21.9169 F       1  UNL1       -0.1658
     26 F           0.6770   77.9237   22.4955 F       1  UNL1       -0.1658
     27 F           2.4000   76.9858   21.3891 F       1  UNL1       -0.1658
     28 C           9.5595   76.6100   23.1131 C.3     1  UNL1        0.1535
     29 C           9.0810   77.3367   21.8842 C.2     1  UNL1        0.2443
     30 O           9.8562   77.4702   20.8981 O.2     1  UNL1       -0.2730
     31 N           7.7480   77.8715   21.8429 N.am    1  UNL1       -0.2825
     32 H           7.2137   77.9439   22.7381 H       1  UNL1        0.1549
     33 C           7.1579   78.4380   20.6646 C.ar    1  UNL1        0.0535
     34 C           7.8982   79.2626   19.8036 C.ar    1  UNL1        0.0353
     35 C           7.2918   79.7755   18.6542 C.ar    1  UNL1        0.1002
     36 N           5.9986   79.4678   18.3697 N.ar    1  UNL1       -0.2422
     37 C           5.2646   78.6589   19.1788 C.ar    1  UNL1        0.1002
     38 C           5.8346   78.1214   20.3348 C.ar    1  UNL1        0.0353
     39 C           9.4435   75.0876   22.9378 C.3     1  UNL1        0.0569
     40 C           8.0160   74.6384   23.0957 C.ar    1  UNL1       -0.0017
     41 C           7.4278   74.1529   24.2602 C.ar    1  UNL1        0.0681
     42 N           6.1825   73.6914   24.0041 N.ar    1  UNL1       -0.3523
     43 C           5.9850   73.8651   22.6857 C.ar    1  UNL1        0.0563
     44 C           4.8670   73.4876   21.9428 C.ar    1  UNL1        0.0170
     45 C           4.8958   73.7058   20.5534 C.ar    1  UNL1        0.0015
     46 C           6.0284   74.2896   19.9443 C.ar    1  UNL1        0.0001
     47 C           7.1414   74.6628   20.7190 C.ar    1  UNL1        0.0012
     48 C           7.0829   74.4363   22.0952 C.ar    1  UNL1        0.0131
     49 H           5.5262   73.2530   24.6877 H       1  UNL1        0.1660
@<TRIPOS>BOND
     1     1     2    2
     2     2     3   am
     3     3    28    1
     4    28    39    1
     5    39    40    1
     6    40    41   ar
     7    41    42   ar
     8    42    43   ar
     9    43    44   ar
    10    44    45   ar
    11    45    46   ar
    12    46    47   ar
    13    47    48   ar
    14    28    29    1
    15    29    30    2
    16    29    31   am
    17    31    33    1
    18    33    34   ar
    19    34    35   ar
    20    35    36   ar
    21    36    37   ar
    22    37    38   ar
    23     2     5    1
    24     5     6   ar
    25     6     7   ar
    26     7     8   ar
    27     8    12    1
    28    12    13    1
    29    13    14    1
    30    14    15    1
    31    15    18    1
    32    18    19   ar
    33    19    20   ar
    34    20    21   ar
    35    21    24    1
    36    24    25    1
    37    24    26    1
    38    24    27    1
    39    21    22   ar
    40    22    23   ar
    41    15    16    1
    42    16    17    1
    43     8     9   ar
    44     9    10   ar
    45    10    11    1
    46    48    40   ar
    47    38    33   ar
    48    10     5   ar
    49    48    43   ar
    50    17    12    1
    51    23    18   ar
    52     3     4    1
    53    42    49    1
    54    31    32    1
@<TRIPOS>MOLECULE
*****
 49 54 0 0 0
SMALL
GASTEIGER

@<TRIPOS>ATOM
      1 O          10.6434   74.4741   21.7184 O.2     1  UNL1       -0.2701
      2 C           9.6310   75.1479   22.0447 C.2     1  UNL1        0.2483
      3 N           9.2706   76.3157   21.2859 N.am    1  UNL1       -0.2945
      4 H           9.8809   76.5894   20.4822 H       1  UNL1        0.1501
      5 C           8.8258   74.7336   23.2017 C.ar    1  UNL1        0.0808
      6 C           7.5885   74.1148   22.9867 C.ar    1  UNL1        0.0080
      7 C           6.6581   74.0303   24.0234 C.ar    1  UNL1        0.0148
      8 C           6.9485   74.5701   25.2883 C.ar    1  UNL1        0.0502
      9 C           8.2311   75.1007   25.5227 C.ar    1  UNL1        0.0443
     10 C           9.1642   75.1825   24.4857 C.ar    1  UNL1        0.1457
     11 F          10.3508   75.8039   24.7056 F       1  UNL1       -0.2040
     12 N           5.8938   74.7227   26.2624 N.pl3   1  UNL1       -0.3040
     13 C           5.0476   75.9300   26.2019 C.3     1  UNL1        0.1123
     14 C           4.7278   76.4504   27.6092 C.3     1  UNL1        0.1136
     15 N           5.8626   76.1739   28.5002 N.pl3   1  UNL1       -0.2897
     16 C           6.2874   74.7780   28.6876 C.3     1  UNL1        0.1136
     17 C           5.8574   73.9136   27.4904 C.3     1  UNL1        0.1123
     18 C           6.6781   77.2334   29.0313 C.ar    1  UNL1        0.1318
     19 C           6.9111   78.4049   28.2951 C.ar    1  UNL1        0.0343
     20 C           7.7463   79.3918   28.8189 C.ar    1  UNL1        0.0083
     21 C           8.3646   79.2064   30.0637 C.ar    1  UNL1        0.0906
     22 C           8.0919   78.0271   30.7752 C.ar    1  UNL1        0.1041
     23 N           7.2799   77.0760   30.2420 N.ar    1  UNL1       -0.2292
     24 C           9.2329   80.2852   30.6584 C.3     1  UNL1        0.4200
     25 F           9.7585   79.8749   31.8715 F       1  UNL1       -0.1658
     26 F           8.5007   81.4402   30.8717 F       1  UNL1       -0.1658
     27 F          10.2709   80.5640   29.7893 F       1  UNL1       -0.1658
     28 C           8.2133   77.2384   21.7209 C.3     1  UNL1        0.1535
     29 C           8.8234   78.4412   22.3905 C.2     1  UNL1        0.2443
     30 O           8.6513   79.5865   21.8908 O.2     1  UNL1       -0.2730
     31 N           9.5953   78.2767   23.5912 N.am    1  UNL1       -0.2825
     32 H           9.9062   77.3142   23.8542 H       1  UNL1        0.1549
     33 C          10.0798   79.3739   24.3781 C.ar    1  UNL1        0.0535
     34 C          10.7958   80.4295   23.7930 C.ar    1  UNL1        0.0353
     35 C          11.2300   81.4904   24.5917 C.ar    1  UNL1        0.1002
     36 N          10.9504   81.5021   25.9220 N.ar    1  UNL1       -0.2422
     37 C          10.2453   80.4998   26.5102 C.ar    1  UNL1        0.1002
     38 C           9.7886   79.4235   25.7466 C.ar    1  UNL1        0.0353
     39 C           7.3236   77.6534   20.5385 C.3     1  UNL1        0.0569
     40 C           5.9146   77.1612   20.7308 C.ar    1  UNL1       -0.0017
     41 C           4.8610   77.8749   21.2947 C.ar    1  UNL1        0.0681
     42 N           3.7829   77.0752   21.4602 N.ar    1  UNL1       -0.3523
     43 C           4.1511   75.8588   21.0219 C.ar    1  UNL1        0.0563
     44 C           3.3932   74.6885   21.0442 C.ar    1  UNL1        0.0170
     45 C           4.0005   73.5025   20.5931 C.ar    1  UNL1        0.0015
     46 C           5.3364   73.5122   20.1352 C.ar    1  UNL1        0.0001
     47 C           6.0765   74.7081   20.1218 C.ar    1  UNL1        0.0012
     48 C           5.4467   75.8694   20.5729 C.ar    1  UNL1        0.0131
     49 H           2.8654   77.3429   21.8806 H       1  UNL1        0.1660
@<TRIPOS>BOND
     1     1     2    2
     2     2     3   am
     3     3    28    1
     4    28    39    1
     5    39    40    1
     6    40    41   ar
     7    41    42   ar
     8    42    43   ar
     9    43    44   ar
    10    44    45   ar
    11    45    46   ar
    12    46    47   ar
    13    47    48   ar
    14    28    29    1
    15    29    30    2
    16    29    31   am
    17    31    33    1
    18    33    34   ar
    19    34    35   ar
    20    35    36   ar
    21    36    37   ar
    22    37    38   ar
    23     2     5    1
    24     5     6   ar
    25     6     7   ar
    26     7     8   ar
    27     8    12    1
    28    12    13    1
    29    13    14    1
    30    14    15    1
    31    15    18    1
    32    18    19   ar
    33    19    20   ar
    34    20    21   ar
    35    21    24    1
    36    24    25    1
    37    24    26    1
    38    24    27    1
    39    21    22   ar
    40    22    23   ar
    41    15    16    1
    42    16    17    1
    43     8     9   ar
    44     9    10   ar
    45    10    11    1
    46    48    40   ar
    47    38    33   ar
    48    10     5   ar
    49    48    43   ar
    50    17    12    1
    51    23    18   ar
    52     3     4    1
    53    42    49    1
    54    31    32    1
@<TRIPOS>MOLECULE
*****
 49 54 0 0 0
SMALL
GASTEIGER

@<TRIPOS>ATOM
      1 O           8.5303   77.6408   21.1598 O.2     1  UNL1       -0.2701
      2 C           8.3339   76.8627   22.1303 C.2     1  UNL1        0.2483
      3 N           7.2111   75.9635   22.1138 N.am    1  UNL1       -0.2945
      4 H           6.5663   75.9946   21.2913 H       1  UNL1        0.1501
      5 C           9.2561   76.8822   23.2739 C.ar    1  UNL1        0.0808
      6 C           9.8832   75.6934   23.6660 C.ar    1  UNL1        0.0080
      7 C          10.4719   75.5953   24.9275 C.ar    1  UNL1        0.0148
      8 C          10.4355   76.6820   25.8182 C.ar    1  UNL1        0.0502
      9 C           9.8912   77.9034   25.3783 C.ar    1  UNL1        0.0443
     10 C           9.3045   78.0030   24.1140 C.ar    1  UNL1        0.1457
     11 F           8.6828   79.1559   23.7577 F       1  UNL1       -0.2040
     12 N          10.7977   76.4875   27.2023 N.pl3   1  UNL1       -0.3040
     13 C          11.0438   75.1134   27.6802 C.3     1  UNL1        0.1123
     14 C          10.4775   74.9106   29.0915 C.3     1  UNL1        0.1136
     15 N           9.2706   75.7321   29.2546 N.pl3   1  UNL1       -0.2897
     16 C           9.3818   77.1891   29.0844 C.3     1  UNL1        0.1136
     17 C          10.5942   77.5429   28.2066 C.3     1  UNL1        0.1123
     18 C           7.9668   75.1375   29.3814 C.ar    1  UNL1        0.1318
     19 C           7.5222   74.1684   28.4694 C.ar    1  UNL1        0.0343
     20 C           6.2340   73.6476   28.5924 C.ar    1  UNL1        0.0083
     21 C           5.3819   74.1033   29.6085 C.ar    1  UNL1        0.0906
     22 C           5.8715   75.0619   30.5101 C.ar    1  UNL1        0.1041
     23 N           7.1282   75.5603   30.3667 N.ar    1  UNL1       -0.2292
     24 C           4.0046   73.5151   29.7774 C.3     1  UNL1        0.4200
     25 F           3.1000   74.4922   30.1559 F       1  UNL1       -0.1658
     26 F           4.0095   72.5292   30.7488 F       1  UNL1       -0.1658
     27 F           3.5956   72.9634   28.5779 F       1  UNL1       -0.1658
     28 C           6.8287   75.1646   23.2860 C.3     1  UNL1        0.1535
     29 C           6.1169   76.0321   24.2900 C.2     1  UNL1        0.2443
     30 O           5.0710   76.6493   23.9492 O.2     1  UNL1       -0.2730
     31 N           6.6323   76.1506   25.6260 N.am    1  UNL1       -0.2825
     32 H           7.6044   75.8167   25.8151 H       1  UNL1        0.1549
     33 C           5.9394   76.8252   26.6855 C.ar    1  UNL1        0.0535
     34 C           4.6181   76.4914   27.0200 C.ar    1  UNL1        0.0353
     35 C           3.9875   77.1573   28.0740 C.ar    1  UNL1        0.1002
     36 N           4.6547   78.1125   28.7743 N.ar    1  UNL1       -0.2422
     37 C           5.9400   78.4434   28.4806 C.ar    1  UNL1        0.1002
     38 C           6.6082   77.7981   27.4379 C.ar    1  UNL1        0.0353
     39 C           5.9608   73.9646   22.8754 C.3     1  UNL1        0.0569
     40 C           5.6154   74.0303   21.4122 C.ar    1  UNL1       -0.0017
     41 C           6.4404   73.6641   20.3525 C.ar    1  UNL1        0.0681
     42 N           5.8739   74.0047   19.1725 N.ar    1  UNL1       -0.3523
     43 C           4.7067   74.5979   19.4775 C.ar    1  UNL1        0.0563
     44 C           3.7941   75.1704   18.5922 C.ar    1  UNL1        0.0170
     45 C           2.6592   75.8012   19.1334 C.ar    1  UNL1        0.0015
     46 C           2.4638   75.8456   20.5314 C.ar    1  UNL1        0.0001
     47 C           3.4001   75.2576   21.4008 C.ar    1  UNL1        0.0012
     48 C           4.5149   74.6367   20.8348 C.ar    1  UNL1        0.0131
     49 H           6.2824   73.8686   18.2213 H       1  UNL1        0.1660
@<TRIPOS>BOND
     1     1     2    2
     2     2     3   am
     3     3    28    1
     4    28    39    1
     5    39    40    1
     6    40    41   ar
     7    41    42   ar
     8    42    43   ar
     9    43    44   ar
    10    44    45   ar
    11    45    46   ar
    12    46    47   ar
    13    47    48   ar
    14    28    29    1
    15    29    30    2
    16    29    31   am
    17    31    33    1
    18    33    34   ar
    19    34    35   ar
    20    35    36   ar
    21    36    37   ar
    22    37    38   ar
    23     2     5    1
    24     5     6   ar
    25     6     7   ar
    26     7     8   ar
    27     8    12    1
    28    12    13    1
    29    13    14    1
    30    14    15    1
    31    15    18    1
    32    18    19   ar
    33    19    20   ar
    34    20    21   ar
    35    21    24    1
    36    24    25    1
    37    24    26    1
    38    24    27    1
    39    21    22   ar
    40    22    23   ar
    41    15    16    1
    42    16    17    1
    43     8     9   ar
    44     9    10   ar
    45    10    11    1
    46    48    40   ar
    47    38    33   ar
    48    10     5   ar
    49    48    43   ar
    50    17    12    1
    51    23    18   ar
    52     3     4    1
    53    42    49    1
    54    31    32    1
@<TRIPOS>MOLECULE
*****
 49 54 0 0 0
SMALL
GASTEIGER

@<TRIPOS>ATOM
      1 O           7.1708   74.0808   20.2634 O.2     1  UNL1       -0.2701
      2 C           7.2341   74.6900   21.3637 C.2     1  UNL1        0.2483
      3 N           6.2997   74.3777   22.4120 N.am    1  UNL1       -0.2945
      4 H           5.5684   73.6550   22.2218 H       1  UNL1        0.1501
      5 C           8.2644   75.7177   21.5658 C.ar    1  UNL1        0.0808
      6 C           9.5448   75.3295   21.9781 C.ar    1  UNL1        0.0080
      7 C          10.4250   76.2725   22.5107 C.ar    1  UNL1        0.0148
      8 C          10.0348   77.6161   22.6457 C.ar    1  UNL1        0.0502
      9 C           8.7842   78.0151   22.1375 C.ar    1  UNL1        0.0443
     10 C           7.9039   77.0716   21.6012 C.ar    1  UNL1        0.1457
     11 F           6.6590   77.4611   21.2254 F       1  UNL1       -0.2040
     12 N          10.8352   78.5193   23.4384 N.pl3   1  UNL1       -0.3040
     13 C          11.7193   77.9528   24.4752 C.3     1  UNL1        0.1123
     14 C          11.7186   78.8251   25.7372 C.3     1  UNL1        0.1136
     15 N          10.3955   79.4418   25.9022 N.pl3   1  UNL1       -0.2897
     16 C           9.8831   80.3078   24.8291 C.3     1  UNL1        0.1136
     17 C          10.5486   79.9613   23.4865 C.3     1  UNL1        0.1123
     18 C           9.5207   79.0691   26.9818 C.ar    1  UNL1        0.1318
     19 C           8.1572   78.8267   26.7568 C.ar    1  UNL1        0.0343
     20 C           7.3271   78.5149   27.8336 C.ar    1  UNL1        0.0083
     21 C           7.8473   78.4631   29.1347 C.ar    1  UNL1        0.0906
     22 C           9.2202   78.6960   29.3143 C.ar    1  UNL1        0.1041
     23 N          10.0088   79.0049   28.2507 N.ar    1  UNL1       -0.2292
     24 C           6.9685   78.0835   30.2989 C.3     1  UNL1        0.4200
     25 F           5.6325   78.1470   29.9425 F       1  UNL1       -0.1658
     26 F           7.1737   78.9403   31.3663 F       1  UNL1       -0.1658
     27 F           7.2685   76.7931   30.6930 F       1  UNL1       -0.1658
     28 C           6.2087   75.1728   23.6441 C.3     1  UNL1        0.1535
     29 C           4.8757   75.8701   23.7092 C.2     1  UNL1        0.2443
     30 O           4.3312   76.0698   24.8294 O.2     1  UNL1       -0.2730
     31 N           4.2347   76.3026   22.4981 N.am    1  UNL1       -0.2825
     32 H           4.5906   75.9324   21.5879 H       1  UNL1        0.1549
     33 C           3.0473   77.1071   22.4739 C.ar    1  UNL1        0.0535
     34 C           2.8977   78.2105   23.3281 C.ar    1  UNL1        0.0353
     35 C           1.7348   78.9816   23.2563 C.ar    1  UNL1        0.1002
     36 N           0.7632   78.6693   22.3582 N.ar    1  UNL1       -0.2422
     37 C           0.8905   77.6154   21.5092 C.ar    1  UNL1        0.1002
     38 C           2.0394   76.8223   21.5450 C.ar    1  UNL1        0.0353
     39 C           6.4366   74.2946   24.8845 C.3     1  UNL1        0.0569
     40 C           7.5368   74.8572   25.7432 C.ar    1  UNL1       -0.0017
     41 C           8.6822   75.5087   25.2947 C.ar    1  UNL1        0.0681
     42 N           9.5304   75.7362   26.3233 N.ar    1  UNL1       -0.3523
     43 C           8.9393   75.2193   27.4145 C.ar    1  UNL1        0.0563
     44 C           9.4574   75.1618   28.7078 C.ar    1  UNL1        0.0170
     45 C           8.6930   74.5131   29.6946 C.ar    1  UNL1        0.0015
     46 C           7.4423   73.9428   29.3708 C.ar    1  UNL1        0.0001
     47 C           6.9433   74.0179   28.0579 C.ar    1  UNL1        0.0012
     48 C           7.7228   74.6698   27.1008 C.ar    1  UNL1        0.0131
     49 H          10.4708   76.1868   26.2693 H       1  UNL1        0.1660
@<TRIPOS>BOND
     1     1     2    2
     2     2     3   am
     3     3    28    1
     4    28    39    1
     5    39    40    1
     6    40    41   ar
     7    41    42   ar
     8    42    43   ar
     9    43    44   ar
    10    44    45   ar
    11    45    46   ar
    12    46    47   ar
    13    47    48   ar
    14    28    29    1
    15    29    30    2
    16    29    31   am
    17    31    33    1
    18    33    34   ar
    19    34    35   ar
    20    35    36   ar
    21    36    37   ar
    22    37    38   ar
    23     2     5    1
    24     5     6   ar
    25     6     7   ar
    26     7     8   ar
    27     8    12    1
    28    12    13    1
    29    13    14    1
    30    14    15    1
    31    15    18    1
    32    18    19   ar
    33    19    20   ar
    34    20    21   ar
    35    21    24    1
    36    24    25    1
    37    24    26    1
    38    24    27    1
    39    21    22   ar
    40    22    23   ar
    41    15    16    1
    42    16    17    1
    43     8     9   ar
    44     9    10   ar
    45    10    11    1
    46    48    40   ar
    47    38    33   ar
    48    10     5   ar
    49    48    43   ar
    50    17    12    1
    51    23    18   ar
    52     3     4    1
    53    42    49    1
    54    31    32    1
@<TRIPOS>MOLECULE
*****
 49 54 0 0 0
SMALL
GASTEIGER

@<TRIPOS>ATOM
      1 O          10.7390   72.0266   21.7944 O.2     1  UNL1       -0.2701
      2 C           9.9446   72.9072   22.2175 C.2     1  UNL1        0.2483
      3 N           8.5296   72.7600   22.0040 N.am    1  UNL1       -0.2945
      4 H           8.1949   71.9212   21.4770 H       1  UNL1        0.1501
      5 C          10.4729   74.0806   22.9265 C.ar    1  UNL1        0.0808
      6 C          10.4682   74.0922   24.3265 C.ar    1  UNL1        0.0080
      7 C          10.6253   75.2945   25.0175 C.ar    1  UNL1        0.0148
      8 C          10.7819   76.5038   24.3184 C.ar    1  UNL1        0.0502
      9 C          10.8849   76.4691   22.9149 C.ar    1  UNL1        0.0443
     10 C          10.7309   75.2650   22.2229 C.ar    1  UNL1        0.1457
     11 F          10.7172   75.2744   20.8655 F       1  UNL1       -0.2040
     12 N          10.6696   77.7592   25.0227 N.pl3   1  UNL1       -0.3040
     13 C          11.3828   77.9143   26.3050 C.3     1  UNL1        0.1123
     14 C          10.5342   78.6945   27.3173 C.3     1  UNL1        0.1136
     15 N           9.1131   78.3978   27.0924 N.pl3   1  UNL1       -0.2897
     16 C           8.5293   78.7024   25.7769 C.3     1  UNL1        0.1136
     17 C           9.6198   78.7354   24.6928 C.3     1  UNL1        0.1123
     18 C           8.3403   77.6488   28.0472 C.ar    1  UNL1        0.1318
     19 C           7.1729   78.1843   28.6119 C.ar    1  UNL1        0.0343
     20 C           6.4740   77.4512   29.5711 C.ar    1  UNL1        0.0083
     21 C           6.9451   76.1964   29.9828 C.ar    1  UNL1        0.0906
     22 C           8.1080   75.6898   29.3808 C.ar    1  UNL1        0.1041
     23 N           8.7766   76.4250   28.4529 N.ar    1  UNL1       -0.2292
     24 C           6.1735   75.3772   30.9853 C.3     1  UNL1        0.4200
     25 F           4.9448   75.0043   30.4682 F       1  UNL1       -0.1658
     26 F           5.9545   76.1017   32.1440 F       1  UNL1       -0.1658
     27 F           6.8954   74.2399   31.2949 F       1  UNL1       -0.1658
     28 C           7.5738   73.8322   22.3130 C.3     1  UNL1        0.1535
     29 C           6.8595   74.2619   21.0591 C.2     1  UNL1        0.2443
     30 O           7.0448   73.6237   19.9870 O.2     1  UNL1       -0.2730
     31 N           5.9737   75.3928   21.0921 N.am    1  UNL1       -0.2825
     32 H           6.0105   76.0288   21.9206 H       1  UNL1        0.1549
     33 C           5.1372   75.7763   19.9918 C.ar    1  UNL1        0.0535
     34 C           4.1302   74.9251   19.5113 C.ar    1  UNL1        0.0353
     35 C           3.3223   75.3467   18.4523 C.ar    1  UNL1        0.1002
     36 N           3.5058   76.5758   17.9013 N.ar    1  UNL1       -0.2422
     37 C           4.4635   77.4252   18.3584 C.ar    1  UNL1        0.1002
     38 C           5.2889   77.0445   19.4185 C.ar    1  UNL1        0.0353
     39 C           6.5770   73.3868   23.3946 C.3     1  UNL1        0.0569
     40 C           6.4445   74.4366   24.4646 C.ar    1  UNL1       -0.0017
     41 C           7.1561   74.4911   25.6596 C.ar    1  UNL1        0.0681
     42 N           6.6710   75.4717   26.4548 N.ar    1  UNL1       -0.3523
     43 C           5.6486   76.0260   25.7804 C.ar    1  UNL1        0.0563
     44 C           4.7999   77.0416   26.2192 C.ar    1  UNL1        0.0170
     45 C           3.7454   77.4297   25.3728 C.ar    1  UNL1        0.0015
     46 C           3.5644   76.8011   24.1212 C.ar    1  UNL1        0.0001
     47 C           4.4375   75.7807   23.7033 C.ar    1  UNL1        0.0012
     48 C           5.4759   75.4188   24.5631 C.ar    1  UNL1        0.0131
     49 H           7.0010   75.7184   27.4142 H       1  UNL1        0.1660
@<TRIPOS>BOND
     1     1     2    2
     2     2     3   am
     3     3    28    1
     4    28    39    1
     5    39    40    1
     6    40    41   ar
     7    41    42   ar
     8    42    43   ar
     9    43    44   ar
    10    44    45   ar
    11    45    46   ar
    12    46    47   ar
    13    47    48   ar
    14    28    29    1
    15    29    30    2
    16    29    31   am
    17    31    33    1
    18    33    34   ar
    19    34    35   ar
    20    35    36   ar
    21    36    37   ar
    22    37    38   ar
    23     2     5    1
    24     5     6   ar
    25     6     7   ar
    26     7     8   ar
    27     8    12    1
    28    12    13    1
    29    13    14    1
    30    14    15    1
    31    15    18    1
    32    18    19   ar
    33    19    20   ar
    34    20    21   ar
    35    21    24    1
    36    24    25    1
    37    24    26    1
    38    24    27    1
    39    21    22   ar
    40    22    23   ar
    41    15    16    1
    42    16    17    1
    43     8     9   ar
    44     9    10   ar
    45    10    11    1
    46    48    40   ar
    47    38    33   ar
    48    10     5   ar
    49    48    43   ar
    50    17    12    1
    51    23    18   ar
    52     3     4    1
    53    42    49    1
    54    31    32    1
@<TRIPOS>MOLECULE
*****
 49 54 0 0 0
SMALL
GASTEIGER

@<TRIPOS>ATOM
      1 O           5.5730   75.1599   30.1266 O.2     1  UNL1       -0.2701
      2 C           6.1585   75.7875   29.2052 C.2     1  UNL1        0.2483
      3 N           7.3166   76.5868   29.5043 N.am    1  UNL1       -0.2945
      4 H           7.6346   76.6417   30.4988 H       1  UNL1        0.1501
      5 C           5.6504   75.6976   27.8296 C.ar    1  UNL1        0.0808
      6 C           6.1525   74.7051   26.9794 C.ar    1  UNL1        0.0080
      7 C           5.9656   74.8043   25.5999 C.ar    1  UNL1        0.0148
      8 C           5.2803   75.9013   25.0500 C.ar    1  UNL1        0.0502
      9 C           4.6939   76.8412   25.9184 C.ar    1  UNL1        0.0443
     10 C           4.8781   76.7404   27.3000 C.ar    1  UNL1        0.1457
     11 F           4.4025   77.7220   28.1081 F       1  UNL1       -0.2040
     12 N           5.3282   76.1365   23.6262 N.pl3   1  UNL1       -0.3040
     13 C           5.0322   75.0136   22.7159 C.3     1  UNL1        0.1123
     14 C           5.9608   75.0340   21.4948 C.3     1  UNL1        0.1136
     15 N           7.2707   75.5703   21.8882 N.pl3   1  UNL1       -0.2897
     16 C           7.3360   76.9280   22.4509 C.3     1  UNL1        0.1136
     17 C           5.9836   77.3277   23.0647 C.3     1  UNL1        0.1123
     18 C           8.4456   74.7406   21.9178 C.ar    1  UNL1        0.1318
     19 C           8.3620   73.3805   22.2518 C.ar    1  UNL1        0.0343
     20 C           9.5268   72.6158   22.3187 C.ar    1  UNL1        0.0083
     21 C          10.7747   73.2062   22.0732 C.ar    1  UNL1        0.0906
     22 C          10.8127   74.5663   21.7262 C.ar    1  UNL1        0.1041
     23 N           9.6652   75.2935   21.6738 N.ar    1  UNL1       -0.2292
     24 C          12.0344   72.3793   22.0991 C.3     1  UNL1        0.4200
     25 F          13.1508   73.1935   22.1814 F       1  UNL1       -0.1658
     26 F          12.1402   71.6132   20.9513 F       1  UNL1       -0.1658
     27 F          12.0059   71.5418   23.1984 F       1  UNL1       -0.1658
     28 C           7.9317   77.4788   28.5119 C.3     1  UNL1        0.1535
     29 C           8.0455   78.8716   29.0726 C.2     1  UNL1        0.2443
     30 O           7.0938   79.6848   28.9182 O.2     1  UNL1       -0.2730
     31 N           9.2342   79.2638   29.7781 N.am    1  UNL1       -0.2825
     32 H          10.0821   78.6581   29.6983 H       1  UNL1        0.1549
     33 C           9.3663   80.5100   30.4760 C.ar    1  UNL1        0.0535
     34 C          10.0492   81.5953   29.9058 C.ar    1  UNL1        0.0353
     35 C          10.1351   82.7990   30.6099 C.ar    1  UNL1        0.1002
     36 N           9.5520   82.9179   31.8321 N.ar    1  UNL1       -0.2422
     37 C           8.8716   81.8870   32.3996 C.ar    1  UNL1        0.1002
     38 C           8.7579   80.6686   31.7269 C.ar    1  UNL1        0.0353
     39 C           9.3028   76.9458   28.0672 C.3     1  UNL1        0.0569
     40 C           9.4776   77.0944   26.5800 C.ar    1  UNL1       -0.0017
     41 C           9.5659   76.0605   25.6522 C.ar    1  UNL1        0.0681
     42 N           9.8821   76.5469   24.4305 N.ar    1  UNL1       -0.3523
     43 C          10.0112   77.8766   24.5814 C.ar    1  UNL1        0.0563
     44 C          10.3865   78.8038   23.6099 C.ar    1  UNL1        0.0170
     45 C          10.5248   80.1478   24.0015 C.ar    1  UNL1        0.0015
     46 C          10.2878   80.5309   25.3399 C.ar    1  UNL1        0.0001
     47 C           9.9081   79.5743   26.2985 C.ar    1  UNL1        0.0012
     48 C           9.7764   78.2491   25.8800 C.ar    1  UNL1        0.0131
     49 H          10.0336   75.9937   23.5580 H       1  UNL1        0.1660
@<TRIPOS>BOND
     1     1     2    2
     2     2     3   am
     3     3    28    1
     4    28    39    1
     5    39    40    1
     6    40    41   ar
     7    41    42   ar
     8    42    43   ar
     9    43    44   ar
    10    44    45   ar
    11    45    46   ar
    12    46    47   ar
    13    47    48   ar
    14    28    29    1
    15    29    30    2
    16    29    31   am
    17    31    33    1
    18    33    34   ar
    19    34    35   ar
    20    35    36   ar
    21    36    37   ar
    22    37    38   ar
    23     2     5    1
    24     5     6   ar
    25     6     7   ar
    26     7     8   ar
    27     8    12    1
    28    12    13    1
    29    13    14    1
    30    14    15    1
    31    15    18    1
    32    18    19   ar
    33    19    20   ar
    34    20    21   ar
    35    21    24    1
    36    24    25    1
    37    24    26    1
    38    24    27    1
    39    21    22   ar
    40    22    23   ar
    41    15    16    1
    42    16    17    1
    43     8     9   ar
    44     9    10   ar
    45    10    11    1
    46    48    40   ar
    47    38    33   ar
    48    10     5   ar
    49    48    43   ar
    50    17    12    1
    51    23    18   ar
    52     3     4    1
    53    42    49    1
    54    31    32    1
