@<TRIPOS>MOLECULE
*****
 24 26 0 0 0
SMALL
GASTEIGER

@<TRIPOS>ATOM
      1 O         -19.9837  -12.9687  -11.1226 O.2     1  UNL1       -0.2681
      2 C         -20.2707  -11.7541  -11.3024 C.2     1  UNL1        0.2700
      3 N         -21.0210  -11.3471  -12.4588 N.am    1  UNL1       -0.2645
      4 H         -20.9685  -10.3460  -12.7534 H       1  UNL1        0.1566
      5 C         -21.7334  -12.2497  -13.3192 C.ar    1  UNL1        0.1344
      6 C         -21.0596  -13.1247  -14.1896 C.ar    1  UNL1        0.0345
      7 C         -21.7913  -14.0053  -14.9889 C.ar    1  UNL1        0.0044
      8 C         -23.1883  -14.0230  -14.9088 C.ar    1  UNL1        0.0178
      9 C         -23.9536  -14.8964  -15.6961 C.ar    1  UNL1        0.0015
     10 C         -25.3481  -14.8951  -15.5856 C.ar    1  UNL1        0.0001
     11 C         -25.9826  -14.0266  -14.6913 C.ar    1  UNL1        0.0015
     12 C         -25.2266  -13.1536  -13.9024 C.ar    1  UNL1        0.0191
     13 C         -23.8309  -13.1465  -14.0073 C.ar    1  UNL1        0.0827
     14 N         -23.0921  -12.2986  -13.2427 N.ar    1  UNL1       -0.2305
     15 C         -19.7932  -10.7498  -10.3389 C.ar    1  UNL1        0.1558
     16 C         -20.5090   -9.6564   -9.8832 C.ar    1  UNL1        0.0505
     17 C         -19.6394   -9.0281   -9.0147 C.ar    1  UNL1        0.1511
     18 N         -18.4849   -9.7180   -8.9707 N.ar    1  UNL1       -0.2696
     19 N         -18.5690  -10.7663   -9.7735 N.ar    1  UNL1       -0.1678
     20 H         -17.6413   -9.4835   -8.4018 H       1  UNL1        0.1892
     21 C         -19.9057   -7.8027   -8.2504 C.2     1  UNL1        0.3554
     22 O         -21.0771   -7.3443   -8.1756 O.2     1  UNL1       -0.2434
     23 O         -18.8623   -7.1451   -7.6067 O.3     1  UNL1       -0.4761
     24 H         -19.0302   -6.2990   -7.0756 H       1  UNL1        0.2955
@<TRIPOS>BOND
     1     1     2    2
     2     2     3   am
     3     3     5    1
     4     5     6   ar
     5     6     7   ar
     6     7     8   ar
     7     8     9   ar
     8     9    10   ar
     9    10    11   ar
    10    11    12   ar
    11    12    13   ar
    12    13    14   ar
    13     2    15    1
    14    15    16   ar
    15    16    17   ar
    16    17    21    1
    17    21    22    2
    18    21    23    1
    19    17    18   ar
    20    18    19   ar
    21    14     5   ar
    22    19    15   ar
    23    13     8   ar
    24     3     4    1
    25    23    24    1
    26    18    20    1
@<TRIPOS>MOLECULE
*****
 24 26 0 0 0
SMALL
GASTEIGER

@<TRIPOS>ATOM
      1 O         -20.4467  -12.5953  -11.3050 O.2     1  UNL1       -0.2681
      2 C         -20.8167  -11.3908  -11.2567 C.2     1  UNL1        0.2700
      3 N         -21.8709  -10.9185  -12.1118 N.am    1  UNL1       -0.2645
      4 H         -21.9384   -9.8911  -12.2899 H       1  UNL1        0.1566
      5 C         -22.7591  -11.7737  -12.8483 C.ar    1  UNL1        0.1344
      6 C         -24.1551  -11.6208  -12.7794 C.ar    1  UNL1        0.0345
      7 C         -24.9810  -12.4567  -13.5337 C.ar    1  UNL1        0.0044
      8 C         -24.4155  -13.4306  -14.3645 C.ar    1  UNL1        0.0178
      9 C         -25.2160  -14.2853  -15.1371 C.ar    1  UNL1        0.0015
     10 C         -24.6189  -15.2426  -15.9640 C.ar    1  UNL1        0.0001
     11 C         -23.2255  -15.3498  -16.0246 C.ar    1  UNL1        0.0015
     12 C         -22.4206  -14.5008  -15.2581 C.ar    1  UNL1        0.0191
     13 C         -23.0092  -13.5411  -14.4265 C.ar    1  UNL1        0.0827
     14 N         -22.2302  -12.7142  -13.6789 N.ar    1  UNL1       -0.2305
     15 C         -20.1295  -10.4612  -10.3465 C.ar    1  UNL1        0.1558
     16 C         -20.6935   -9.3523   -9.7400 C.ar    1  UNL1        0.0505
     17 C         -19.6588   -8.8150   -9.0011 C.ar    1  UNL1        0.1511
     18 N         -18.5575   -9.5695   -9.1709 N.ar    1  UNL1       -0.2696
     19 N         -18.8342  -10.5725   -9.9882 N.ar    1  UNL1       -0.1678
     20 H         -17.6208   -9.4094   -8.7381 H       1  UNL1        0.1892
     21 C         -19.7224   -7.6141   -8.1583 C.2     1  UNL1        0.3554
     22 O         -20.7804   -6.9317   -8.1060 O.2     1  UNL1       -0.2434
     23 O         -18.6117   -7.2277   -7.4149 O.3     1  UNL1       -0.4761
     24 H         -18.6402   -6.4019   -6.8288 H       1  UNL1        0.2955
@<TRIPOS>BOND
     1     1     2    2
     2     2     3   am
     3     3     5    1
     4     5     6   ar
     5     6     7   ar
     6     7     8   ar
     7     8     9   ar
     8     9    10   ar
     9    10    11   ar
    10    11    12   ar
    11    12    13   ar
    12    13    14   ar
    13     2    15    1
    14    15    16   ar
    15    16    17   ar
    16    17    21    1
    17    21    22    2
    18    21    23    1
    19    17    18   ar
    20    18    19   ar
    21    14     5   ar
    22    19    15   ar
    23    13     8   ar
    24     3     4    1
    25    23    24    1
    26    18    20    1
@<TRIPOS>MOLECULE
*****
 24 26 0 0 0
SMALL
GASTEIGER

@<TRIPOS>ATOM
      1 O         -28.2740   -7.5549  -14.1856 O.2     1  UNL1       -0.2681
      2 C         -27.4007   -7.0114  -13.4565 C.2     1  UNL1        0.2700
      3 N         -26.7056   -5.8366  -13.9062 N.am    1  UNL1       -0.2645
      4 H         -25.7927   -5.6009  -13.4558 H       1  UNL1        0.1566
      5 C         -27.1127   -5.0354  -15.0265 C.ar    1  UNL1        0.1344
      6 C         -26.2330   -4.7469  -16.0848 C.ar    1  UNL1        0.0345
      7 C         -26.6790   -3.9869  -17.1679 C.ar    1  UNL1        0.0044
      8 C         -28.0012   -3.5298  -17.2018 C.ar    1  UNL1        0.0178
      9 C         -28.4823   -2.7658  -18.2757 C.ar    1  UNL1        0.0015
     10 C         -29.8121   -2.3317  -18.2828 C.ar    1  UNL1        0.0001
     11 C         -30.6650   -2.6581  -17.2232 C.ar    1  UNL1        0.0015
     12 C         -30.1931   -3.4201  -16.1495 C.ar    1  UNL1        0.0191
     13 C         -28.8636   -3.8574  -16.1327 C.ar    1  UNL1        0.0827
     14 N         -28.4006   -4.5978  -15.0902 N.ar    1  UNL1       -0.2305
     15 C         -27.0678   -7.6162  -12.1571 C.ar    1  UNL1        0.1558
     16 C         -25.8018   -7.9753  -11.7286 C.ar    1  UNL1        0.0505
     17 C         -26.0124   -8.4955  -10.4675 C.ar    1  UNL1        0.1511
     18 N         -27.3265   -8.4418  -10.1822 N.ar    1  UNL1       -0.2696
     19 N         -27.9762   -7.9091  -11.2043 N.ar    1  UNL1       -0.1678
     20 H         -27.7855   -8.7636   -9.3014 H       1  UNL1        0.1892
     21 C         -24.9861   -9.0294   -9.5630 C.2     1  UNL1        0.3554
     22 O         -23.7648   -8.9101   -9.8492 O.2     1  UNL1       -0.2434
     23 O         -25.3623   -9.6690   -8.3861 O.3     1  UNL1       -0.4761
     24 H         -24.6661  -10.0423   -7.7520 H       1  UNL1        0.2955
@<TRIPOS>BOND
     1     1     2    2
     2     2     3   am
     3     3     5    1
     4     5     6   ar
     5     6     7   ar
     6     7     8   ar
     7     8     9   ar
     8     9    10   ar
     9    10    11   ar
    10    11    12   ar
    11    12    13   ar
    12    13    14   ar
    13     2    15    1
    14    15    16   ar
    15    16    17   ar
    16    17    21    1
    17    21    22    2
    18    21    23    1
    19    17    18   ar
    20    18    19   ar
    21    14     5   ar
    22    19    15   ar
    23    13     8   ar
    24     3     4    1
    25    23    24    1
    26    18    20    1
@<TRIPOS>MOLECULE
*****
 24 26 0 0 0
SMALL
GASTEIGER

@<TRIPOS>ATOM
      1 O         -19.0444    3.2247  -13.2940 O.2     1  UNL1       -0.2681
      2 C         -19.2069    2.3231  -12.4276 C.2     1  UNL1        0.2700
      3 N         -18.2076    1.3078  -12.2375 N.am    1  UNL1       -0.2645
      4 H         -18.4917    0.4176  -11.7700 H       1  UNL1        0.1566
      5 C         -16.8740    1.3768  -12.7662 C.ar    1  UNL1        0.1344
      6 C         -15.8064    1.8899  -12.0086 C.ar    1  UNL1        0.0345
      7 C         -14.5203    1.9128  -12.5519 C.ar    1  UNL1        0.0044
      8 C         -14.2983    1.4121  -13.8397 C.ar    1  UNL1        0.0178
      9 C         -13.0186    1.4182  -14.4147 C.ar    1  UNL1        0.0015
     10 C         -12.8290    0.9021  -15.7010 C.ar    1  UNL1        0.0001
     11 C         -13.9112    0.3781  -16.4158 C.ar    1  UNL1        0.0015
     12 C         -15.1898    0.3676  -15.8491 C.ar    1  UNL1        0.0191
     13 C         -15.3895    0.8835  -14.5634 C.ar    1  UNL1        0.0827
     14 N         -16.6313    0.8760  -14.0090 N.ar    1  UNL1       -0.2305
     15 C         -20.4502    2.2943  -11.6412 C.ar    1  UNL1        0.1558
     16 C         -21.7220    2.0727  -12.1401 C.ar    1  UNL1        0.0505
     17 C         -22.5341    2.1487  -11.0265 C.ar    1  UNL1        0.1511
     18 N         -21.7755    2.4010   -9.9440 N.ar    1  UNL1       -0.2696
     19 N         -20.5069    2.4918  -10.3084 N.ar    1  UNL1       -0.1678
     20 H         -22.1110    2.5125   -8.9615 H       1  UNL1        0.1892
     21 C         -23.9933    1.9857  -10.9999 C.2     1  UNL1        0.3554
     22 O         -24.7029    2.4775  -11.9177 O.2     1  UNL1       -0.2434
     23 O         -24.5951    1.2861   -9.9587 O.3     1  UNL1       -0.4761
     24 H         -25.6003    1.1651   -9.9266 H       1  UNL1        0.2955
@<TRIPOS>BOND
     1     1     2    2
     2     2     3   am
     3     3     5    1
     4     5     6   ar
     5     6     7   ar
     6     7     8   ar
     7     8     9   ar
     8     9    10   ar
     9    10    11   ar
    10    11    12   ar
    11    12    13   ar
    12    13    14   ar
    13     2    15    1
    14    15    16   ar
    15    16    17   ar
    16    17    21    1
    17    21    22    2
    18    21    23    1
    19    17    18   ar
    20    18    19   ar
    21    14     5   ar
    22    19    15   ar
    23    13     8   ar
    24     3     4    1
    25    23    24    1
    26    18    20    1
@<TRIPOS>MOLECULE
*****
 24 26 0 0 0
SMALL
GASTEIGER

@<TRIPOS>ATOM
      1 O         -18.8778    0.1364  -12.2968 O.2     1  UNL1       -0.2681
      2 C         -18.3641    1.2867  -12.3497 C.2     1  UNL1        0.2700
      3 N         -19.1799    2.4569  -12.1742 N.am    1  UNL1       -0.2645
      4 H         -18.8181    3.3687  -12.5339 H       1  UNL1        0.1566
      5 C         -20.5199    2.4383  -11.6577 C.ar    1  UNL1        0.1344
      6 C         -20.7767    2.3591  -10.2775 C.ar    1  UNL1        0.0345
      7 C         -22.0948    2.3717   -9.8169 C.ar    1  UNL1        0.0044
      8 C         -23.1511    2.4782  -10.7286 C.ar    1  UNL1        0.0178
      9 C         -24.4868    2.4959  -10.2997 C.ar    1  UNL1        0.0015
     10 C         -25.5192    2.6121  -11.2364 C.ar    1  UNL1        0.0001
     11 C         -25.2244    2.7126  -12.6002 C.ar    1  UNL1        0.0015
     12 C         -23.8953    2.6966  -13.0356 C.ar    1  UNL1        0.0191
     13 C         -22.8558    2.5788  -12.1058 C.ar    1  UNL1        0.0827
     14 N         -21.5622    2.5620  -12.5251 N.ar    1  UNL1       -0.2305
     15 C         -16.9272    1.4224  -12.6360 C.ar    1  UNL1        0.1558
     16 C         -16.3121    1.1605  -13.8478 C.ar    1  UNL1        0.0505
     17 C         -14.9791    1.4279  -13.6089 C.ar    1  UNL1        0.1511
     18 N         -14.8306    1.8216  -12.3306 N.ar    1  UNL1       -0.2696
     19 N         -16.0101    1.8205  -11.7310 N.ar    1  UNL1       -0.1678
     20 H         -13.9369    2.0899  -11.8621 H       1  UNL1        0.1892
     21 C         -13.8801    1.3091  -14.5756 C.2     1  UNL1        0.3554
     22 O         -13.2196    2.3278  -14.9129 O.2     1  UNL1       -0.2434
     23 O         -13.5663    0.0683  -15.1212 O.3     1  UNL1       -0.4761
     24 H         -12.8110   -0.0297  -15.7891 H       1  UNL1        0.2955
@<TRIPOS>BOND
     1     1     2    2
     2     2     3   am
     3     3     5    1
     4     5     6   ar
     5     6     7   ar
     6     7     8   ar
     7     8     9   ar
     8     9    10   ar
     9    10    11   ar
    10    11    12   ar
    11    12    13   ar
    12    13    14   ar
    13     2    15    1
    14    15    16   ar
    15    16    17   ar
    16    17    21    1
    17    21    22    2
    18    21    23    1
    19    17    18   ar
    20    18    19   ar
    21    14     5   ar
    22    19    15   ar
    23    13     8   ar
    24     3     4    1
    25    23    24    1
    26    18    20    1
@<TRIPOS>MOLECULE
*****
 24 26 0 0 0
SMALL
GASTEIGER

@<TRIPOS>ATOM
      1 O         -21.0228  -11.1646  -10.5373 O.2     1  UNL1       -0.2681
      2 C         -21.5298  -10.0989  -10.9812 C.2     1  UNL1        0.2700
      3 N         -22.0985  -10.0579  -12.3005 N.am    1  UNL1       -0.2645
      4 H         -22.2109   -9.1264  -12.7603 H       1  UNL1        0.1566
      5 C         -22.4006  -11.2208  -13.0873 C.ar    1  UNL1        0.1344
      6 C         -21.3853  -12.0094  -13.6569 C.ar    1  UNL1        0.0345
      7 C         -21.7232  -13.1476  -14.3918 C.ar    1  UNL1        0.0044
      8 C         -23.0674  -13.5054  -14.5447 C.ar    1  UNL1        0.0178
      9 C         -23.4414  -14.6436  -15.2748 C.ar    1  UNL1        0.0015
     10 C         -24.7937  -14.9782  -15.4014 C.ar    1  UNL1        0.0001
     11 C         -25.7751  -14.1826  -14.8008 C.ar    1  UNL1        0.0015
     12 C         -25.4102  -13.0469  -14.0706 C.ar    1  UNL1        0.0191
     13 C         -24.0597  -12.7031  -13.9400 C.ar    1  UNL1        0.0827
     14 N         -23.7007  -11.5992  -13.2315 N.ar    1  UNL1       -0.2305
     15 C         -21.4954   -8.8839  -10.1520 C.ar    1  UNL1        0.1558
     16 C         -21.5680   -7.5818  -10.6154 C.ar    1  UNL1        0.0505
     17 C         -21.4895   -6.8160   -9.4696 C.ar    1  UNL1        0.1511
     18 N         -21.3768   -7.6288   -8.4030 N.ar    1  UNL1       -0.2696
     19 N         -21.3787   -8.8882   -8.8085 N.ar    1  UNL1       -0.1678
     20 H         -21.2980   -7.3365   -7.4037 H       1  UNL1        0.1892
     21 C         -21.5204   -5.3496   -9.3983 C.2     1  UNL1        0.3554
     22 O         -21.9608   -4.7742   -8.3674 O.2     1  UNL1       -0.2434
     23 O         -21.0624   -4.5923  -10.4718 O.3     1  UNL1       -0.4761
     24 H         -21.0772   -3.5800  -10.4375 H       1  UNL1        0.2955
@<TRIPOS>BOND
     1     1     2    2
     2     2     3   am
     3     3     5    1
     4     5     6   ar
     5     6     7   ar
     6     7     8   ar
     7     8     9   ar
     8     9    10   ar
     9    10    11   ar
    10    11    12   ar
    11    12    13   ar
    12    13    14   ar
    13     2    15    1
    14    15    16   ar
    15    16    17   ar
    16    17    21    1
    17    21    22    2
    18    21    23    1
    19    17    18   ar
    20    18    19   ar
    21    14     5   ar
    22    19    15   ar
    23    13     8   ar
    24     3     4    1
    25    23    24    1
    26    18    20    1
@<TRIPOS>MOLECULE
*****
 24 26 0 0 0
SMALL
GASTEIGER

@<TRIPOS>ATOM
      1 O         -22.4549   -8.2470  -14.2560 O.2     1  UNL1       -0.2681
      2 C         -22.7158   -8.3613  -13.0277 C.2     1  UNL1        0.2700
      3 N         -23.0909   -9.6355  -12.4789 N.am    1  UNL1       -0.2645
      4 H         -23.6028   -9.6487  -11.5681 H       1  UNL1        0.1566
      5 C         -22.9295  -10.8889  -13.1612 C.ar    1  UNL1        0.1344
      6 C         -21.6639  -11.4770  -13.3329 C.ar    1  UNL1        0.0345
      7 C         -21.5558  -12.7105  -13.9783 C.ar    1  UNL1        0.0044
      8 C         -22.7069  -13.3610  -14.4367 C.ar    1  UNL1        0.0178
      9 C         -22.6341  -14.6020  -15.0873 C.ar    1  UNL1        0.0015
     10 C         -23.8046  -15.2298  -15.5257 C.ar    1  UNL1        0.0001
     11 C         -25.0486  -14.6253  -15.3162 C.ar    1  UNL1        0.0015
     12 C         -25.1296  -13.3888  -14.6677 C.ar    1  UNL1        0.0191
     13 C         -23.9635  -12.7522  -14.2271 C.ar    1  UNL1        0.0827
     14 N         -24.0378  -11.5494  -13.5968 N.ar    1  UNL1       -0.2305
     15 C         -22.6748   -7.1681  -12.1677 C.ar    1  UNL1        0.1558
     16 C         -21.7398   -6.9100  -11.1805 C.ar    1  UNL1        0.0505
     17 C         -22.1287   -5.6902  -10.6646 C.ar    1  UNL1        0.1511
     18 N         -23.2276   -5.2663  -11.3156 N.ar    1  UNL1       -0.2696
     19 N         -23.5673   -6.1591  -12.2310 N.ar    1  UNL1       -0.1678
     20 H         -23.7486   -4.3779  -11.1438 H       1  UNL1        0.1892
     21 C         -21.4685   -4.9529   -9.5797 C.2     1  UNL1        0.3554
     22 O         -20.3739   -4.3644   -9.7878 O.2     1  UNL1       -0.2434
     23 O         -22.0524   -4.9034   -8.3179 O.3     1  UNL1       -0.4761
     24 H         -21.6092   -4.3988   -7.5596 H       1  UNL1        0.2955
@<TRIPOS>BOND
     1     1     2    2
     2     2     3   am
     3     3     5    1
     4     5     6   ar
     5     6     7   ar
     6     7     8   ar
     7     8     9   ar
     8     9    10   ar
     9    10    11   ar
    10    11    12   ar
    11    12    13   ar
    12    13    14   ar
    13     2    15    1
    14    15    16   ar
    15    16    17   ar
    16    17    21    1
    17    21    22    2
    18    21    23    1
    19    17    18   ar
    20    18    19   ar
    21    14     5   ar
    22    19    15   ar
    23    13     8   ar
    24     3     4    1
    25    23    24    1
    26    18    20    1
@<TRIPOS>MOLECULE
*****
 24 26 0 0 0
SMALL
GASTEIGER

@<TRIPOS>ATOM
      1 O         -20.8368    2.9441  -13.2882 O.2     1  UNL1       -0.2681
      2 C         -21.0676    2.2517  -12.2600 C.2     1  UNL1        0.2700
      3 N         -20.0178    1.4830  -11.6495 N.am    1  UNL1       -0.2645
      4 H         -20.2868    0.6902  -11.0243 H       1  UNL1        0.1566
      5 C         -18.6215    1.6438  -11.9445 C.ar    1  UNL1        0.1344
      6 C         -17.8077    2.5189  -11.2035 C.ar    1  UNL1        0.0345
      7 C         -16.4487    2.6238  -11.5067 C.ar    1  UNL1        0.0044
      8 C         -15.9016    1.8478  -12.5347 C.ar    1  UNL1        0.0178
      9 C         -14.5400    1.9272  -12.8639 C.ar    1  UNL1        0.0015
     10 C         -14.0229    1.1312  -13.8913 C.ar    1  UNL1        0.0001
     11 C         -14.8586    0.2545  -14.5912 C.ar    1  UNL1        0.0015
     12 C         -16.2167    0.1689  -14.2684 C.ar    1  UNL1        0.0191
     13 C         -16.7435    0.9628  -13.2431 C.ar    1  UNL1        0.0827
     14 N         -18.0638    0.8832  -12.9266 N.ar    1  UNL1       -0.2305
     15 C         -22.4334    2.2033  -11.7148 C.ar    1  UNL1        0.1558
     16 C         -23.5984    2.4538  -12.4187 C.ar    1  UNL1        0.0505
     17 C         -24.5964    2.2898  -11.4793 C.ar    1  UNL1        0.1511
     18 N         -24.0407    1.9638  -10.2979 N.ar    1  UNL1       -0.2696
     19 N         -22.7255    1.9096  -10.4314 N.ar    1  UNL1       -0.1678
     20 H         -24.5455    1.7787   -9.4028 H       1  UNL1        0.1892
     21 C         -26.0393    2.4420  -11.7060 C.2     1  UNL1        0.3554
     22 O         -26.7890    2.8392  -10.7743 O.2     1  UNL1       -0.2434
     23 O         -26.5814    2.1468  -12.9529 O.3     1  UNL1       -0.4761
     24 H         -27.5747    2.2469  -13.1246 H       1  UNL1        0.2955
@<TRIPOS>BOND
     1     1     2    2
     2     2     3   am
     3     3     5    1
     4     5     6   ar
     5     6     7   ar
     6     7     8   ar
     7     8     9   ar
     8     9    10   ar
     9    10    11   ar
    10    11    12   ar
    11    12    13   ar
    12    13    14   ar
    13     2    15    1
    14    15    16   ar
    15    16    17   ar
    16    17    21    1
    17    21    22    2
    18    21    23    1
    19    17    18   ar
    20    18    19   ar
    21    14     5   ar
    22    19    15   ar
    23    13     8   ar
    24     3     4    1
    25    23    24    1
    26    18    20    1
@<TRIPOS>MOLECULE
*****
 24 26 0 0 0
SMALL
GASTEIGER

@<TRIPOS>ATOM
      1 O         -14.7969    1.4507  -17.8544 O.2     1  UNL1       -0.2681
      2 C         -14.5888    0.2176  -17.6927 C.2     1  UNL1        0.2700
      3 N         -14.4347   -0.3274  -16.3718 N.am    1  UNL1       -0.2645
      4 H         -13.9548   -1.2502  -16.2720 H       1  UNL1        0.1566
      5 C         -14.7754    0.3711  -15.1641 C.ar    1  UNL1        0.1344
      6 C         -13.8778    1.2622  -14.5498 C.ar    1  UNL1        0.0345
      7 C         -14.2606    1.9414  -13.3914 C.ar    1  UNL1        0.0044
      8 C         -15.5388    1.7436  -12.8572 C.ar    1  UNL1        0.0178
      9 C         -15.9562    2.4114  -11.6961 C.ar    1  UNL1        0.0015
     10 C         -17.2438    2.1979  -11.1929 C.ar    1  UNL1        0.0001
     11 C         -18.1180    1.3215  -11.8445 C.ar    1  UNL1        0.0015
     12 C         -17.7096    0.6527  -13.0029 C.ar    1  UNL1        0.0191
     13 C         -16.4225    0.8587  -13.5129 C.ar    1  UNL1        0.0827
     14 N         -16.0212    0.2097  -14.6386 N.ar    1  UNL1       -0.2305
     15 C         -14.4619   -0.6531  -18.8720 C.ar    1  UNL1        0.1558
     16 C         -14.7022   -0.2838  -20.1841 C.ar    1  UNL1        0.0505
     17 C         -14.4547   -1.4351  -20.9043 C.ar    1  UNL1        0.1511
     18 N         -14.0926   -2.4159  -20.0571 N.ar    1  UNL1       -0.2696
     19 N         -14.0949   -1.9497  -18.8189 N.ar    1  UNL1       -0.1678
     20 H         -13.8448   -3.3978  -20.3116 H       1  UNL1        0.1892
     21 C         -14.5628   -1.5916  -22.3604 C.2     1  UNL1        0.3554
     22 O         -13.7419   -2.3175  -22.9827 O.2     1  UNL1       -0.2434
     23 O         -15.5742   -0.9368  -23.0561 O.3     1  UNL1       -0.4761
     24 H         -15.6618   -1.0351  -24.0605 H       1  UNL1        0.2955
@<TRIPOS>BOND
     1     1     2    2
     2     2     3   am
     3     3     5    1
     4     5     6   ar
     5     6     7   ar
     6     7     8   ar
     7     8     9   ar
     8     9    10   ar
     9    10    11   ar
    10    11    12   ar
    11    12    13   ar
    12    13    14   ar
    13     2    15    1
    14    15    16   ar
    15    16    17   ar
    16    17    21    1
    17    21    22    2
    18    21    23    1
    19    17    18   ar
    20    18    19   ar
    21    14     5   ar
    22    19    15   ar
    23    13     8   ar
    24     3     4    1
    25    23    24    1
    26    18    20    1
