@<TRIPOS>MOLECULE
*****
 39 41 0 0 0
SMALL
GASTEIGER

@<TRIPOS>ATOM
      1 C          45.1535   12.5378  -24.2400 C.3     1  UNL1        0.2320
      2 C          45.7330   13.5205  -25.2230 C.ar    1  UNL1        0.0209
      3 C          45.8893   13.1781  -26.5751 C.ar    1  UNL1       -0.0007
      4 C          46.4063   14.1082  -27.4807 C.ar    1  UNL1       -0.0005
      5 C          46.7670   15.3861  -27.0466 C.ar    1  UNL1       -0.0029
      6 C          46.6392   15.7357  -25.6930 C.ar    1  UNL1       -0.0063
      7 C          46.1127   14.8000  -24.7874 C.ar    1  UNL1       -0.0036
      8 C          47.0063   17.1220  -25.2277 C.3     1  UNL1        0.0996
      9 N          48.4514   17.4007  -25.4139 N.3     1  UNL1       -0.2579
     10 C          49.2496   16.9842  -24.2336 C.3     1  UNL1        0.1001
     11 C          49.7806   15.5954  -24.4340 C.ar    1  UNL1        0.0009
     12 C          49.7908   14.6303  -23.4142 C.ar    1  UNL1        0.0046
     13 C          50.3275   13.4134  -23.8068 C.ar    1  UNL1        0.0352
     14 S          50.7771   13.5427  -25.4189 S.2     1  UNL1       -0.0862
     15 C          50.2998   15.1375  -25.6399 C.ar    1  UNL1        0.0325
     16 C          48.6676   18.8261  -25.7673 C.3     1  UNL1        0.1772
     17 C          49.2048   18.9363  -27.1945 C.3     1  UNL1        0.4121
     18 F          50.5829   18.8201  -27.1790 F       1  UNL1       -0.1685
     19 F          48.6775   17.9219  -27.9734 F       1  UNL1       -0.1685
     20 F          48.8662   20.1565  -27.7496 F       1  UNL1       -0.1685
     21 O          46.1271   11.5560  -23.8845 O.3     1  UNL1       -0.4707
     22 C          48.6533   11.8556  -20.5057 C.ar    1  UNL1       -0.0113
     23 C          47.8311   12.9224  -20.9209 C.ar    1  UNL1       -0.0004
     24 C          46.9829   12.7916  -22.0166 C.ar    1  UNL1        0.0366
     25 C          46.9485   11.6069  -22.7474 C.ar    1  UNL1        0.1388
     26 C          47.7310   10.5178  -22.3285 C.ar    1  UNL1        0.0348
     27 C          48.5673   10.6128  -21.1952 C.ar    1  UNL1        0.0069
     28 C          49.4033    9.4204  -20.7672 C.3     1  UNL1        0.1634
     29 O          49.1837    9.0750  -19.4260 O.3     1  UNL1       -0.3772
     30 H          49.7484    8.2783  -19.2492 H       1  UNL1        0.2109
     31 C          49.6295   12.0915  -19.3557 C.3     1  UNL1        0.0971
     32 C          52.7185   14.5571  -20.5856 C.3     1  UNL1        0.0900
     33 C          51.6230   13.6830  -20.1687 C.1     1  UNL1       -0.0897
     34 C          50.7227   12.9642  -19.8138 C.1     1  UNL1       -0.0870
     35 C          48.9387   12.7051  -18.1239 C.3     1  UNL1        0.1267
     36 C          48.9669   11.7619  -16.9566 C.2     1  UNL1        0.3152
     37 O          49.6858   10.7291  -17.0001 O.2     1  UNL1       -0.2502
     38 O          48.2342   12.0381  -15.8061 O.3     1  UNL1       -0.4801
     39 H          47.6645   12.8728  -15.7365 H       1  UNL1        0.2951
@<TRIPOS>BOND
     1    32    33    1
     2    33    34    3
     3    34    31    1
     4    31    35    1
     5    35    36    1
     6    36    37    2
     7    36    38    1
     8    31    22    1
     9    22    23   ar
    10    23    24   ar
    11    24    25   ar
    12    25    21    1
    13    21     1    1
    14     1     2    1
    15     2     3   ar
    16     3     4   ar
    17     4     5   ar
    18     5     6   ar
    19     6     8    1
    20     8     9    1
    21     9    10    1
    22    10    11    1
    23    11    12   ar
    24    12    13   ar
    25    13    14   ar
    26    14    15   ar
    27     9    16    1
    28    16    17    1
    29    17    18    1
    30    17    19    1
    31    17    20    1
    32     6     7   ar
    33    25    26   ar
    34    26    27   ar
    35    27    28    1
    36    28    29    1
    37    27    22   ar
    38     7     2   ar
    39    15    11   ar
    40    38    39    1
    41    29    30    1
@<TRIPOS>MOLECULE
*****
 39 41 0 0 0
SMALL
GASTEIGER

@<TRIPOS>ATOM
      1 C          45.0588   12.5794  -24.8889 C.3     1  UNL1        0.2320
      2 C          45.5515   13.6090  -25.8712 C.ar    1  UNL1        0.0209
      3 C          45.7127   13.2892  -27.2282 C.ar    1  UNL1       -0.0007
      4 C          46.1479   14.2613  -28.1327 C.ar    1  UNL1       -0.0005
      5 C          46.4215   15.5586  -27.6925 C.ar    1  UNL1       -0.0029
      6 C          46.2882   15.8876  -26.3343 C.ar    1  UNL1       -0.0063
      7 C          45.8439   14.9092  -25.4297 C.ar    1  UNL1       -0.0036
      8 C          46.5607   17.2933  -25.8621 C.3     1  UNL1        0.0996
      9 N          47.9505   17.4481  -25.3669 N.3     1  UNL1       -0.2579
     10 C          48.0408   17.2305  -23.9012 C.3     1  UNL1        0.1001
     11 C          48.9269   16.0559  -23.6078 C.ar    1  UNL1        0.0009
     12 C          49.9624   15.6511  -24.4654 C.ar    1  UNL1        0.0046
     13 C          50.6583   14.5413  -24.0105 C.ar    1  UNL1        0.0352
     14 S          49.9882   14.0768  -22.5432 S.2     1  UNL1       -0.0862
     15 C          48.8106   15.2716  -22.4656 C.ar    1  UNL1        0.0325
     16 C          48.5087   18.7606  -25.7783 C.3     1  UNL1        0.1772
     17 C          49.6810   18.5536  -26.7379 C.3     1  UNL1        0.4121
     18 F          49.6510   19.5273  -27.7197 F       1  UNL1       -0.1685
     19 F          50.8753   18.6498  -26.0464 F       1  UNL1       -0.1685
     20 F          49.6045   17.3110  -27.3394 F       1  UNL1       -0.1685
     21 O          46.0573   12.3129  -23.9038 O.3     1  UNL1       -0.4707
     22 C          49.8978   10.8231  -24.8625 C.ar    1  UNL1       -0.0113
     23 C          49.2397   11.7696  -25.6734 C.ar    1  UNL1       -0.0004
     24 C          47.9898   12.2712  -25.3223 C.ar    1  UNL1        0.0366
     25 C          47.3464   11.8256  -24.1708 C.ar    1  UNL1        0.1388
     26 C          48.0005   10.9115  -23.3279 C.ar    1  UNL1        0.0348
     27 C          49.2865   10.4207  -23.6411 C.ar    1  UNL1        0.0069
     28 C          49.9681    9.4320  -22.7129 C.3     1  UNL1        0.1634
     29 O          50.3880   10.0326  -21.5174 O.3     1  UNL1       -0.3772
     30 H          50.7938    9.3096  -20.9719 H       1  UNL1        0.2109
     31 C          51.2231   10.2415  -25.3488 C.3     1  UNL1        0.0971
     32 C          50.6231    8.4080  -29.0110 C.3     1  UNL1        0.0900
     33 C          50.8478    9.0665  -27.7249 C.1     1  UNL1       -0.0897
     34 C          51.0248    9.6026  -26.6598 C.1     1  UNL1       -0.0870
     35 C          52.3283   11.3100  -25.4387 C.3     1  UNL1        0.1267
     36 C          53.2162   11.2792  -24.2289 C.2     1  UNL1        0.3152
     37 O          53.3101   12.2959  -23.4920 O.2     1  UNL1       -0.2502
     38 O          53.9094   10.1212  -23.8894 O.3     1  UNL1       -0.4801
     39 H          53.8349    9.2828  -24.4529 H       1  UNL1        0.2951
@<TRIPOS>BOND
     1    32    33    1
     2    33    34    3
     3    34    31    1
     4    31    35    1
     5    35    36    1
     6    36    37    2
     7    36    38    1
     8    31    22    1
     9    22    23   ar
    10    23    24   ar
    11    24    25   ar
    12    25    21    1
    13    21     1    1
    14     1     2    1
    15     2     3   ar
    16     3     4   ar
    17     4     5   ar
    18     5     6   ar
    19     6     8    1
    20     8     9    1
    21     9    10    1
    22    10    11    1
    23    11    12   ar
    24    12    13   ar
    25    13    14   ar
    26    14    15   ar
    27     9    16    1
    28    16    17    1
    29    17    18    1
    30    17    19    1
    31    17    20    1
    32     6     7   ar
    33    25    26   ar
    34    26    27   ar
    35    27    28    1
    36    28    29    1
    37    27    22   ar
    38     7     2   ar
    39    15    11   ar
    40    38    39    1
    41    29    30    1
@<TRIPOS>MOLECULE
*****
 39 41 0 0 0
SMALL
GASTEIGER

@<TRIPOS>ATOM
      1 C          47.2171   17.5240  -25.1647 C.3     1  UNL1        0.2320
      2 C          48.4388   16.8380  -24.6130 C.ar    1  UNL1        0.0209
      3 C          49.6712   16.9177  -25.2799 C.ar    1  UNL1       -0.0007
      4 C          50.8020   16.2960  -24.7440 C.ar    1  UNL1       -0.0005
      5 C          50.7139   15.5947  -23.5391 C.ar    1  UNL1       -0.0029
      6 C          49.4832   15.4857  -22.8725 C.ar    1  UNL1       -0.0063
      7 C          48.3505   16.1178  -23.4112 C.ar    1  UNL1       -0.0036
      8 C          49.3918   14.7489  -21.5602 C.3     1  UNL1        0.0996
      9 N          50.3295   13.6006  -21.5070 N.3     1  UNL1       -0.2579
     10 C          49.6695   12.3312  -21.9027 C.3     1  UNL1        0.1001
     11 C          49.8477   12.0937  -23.3733 C.ar    1  UNL1        0.0009
     12 C          48.7973   12.2174  -24.2967 C.ar    1  UNL1        0.0046
     13 C          49.1735   11.9512  -25.6046 C.ar    1  UNL1        0.0352
     14 S          50.8088   11.5727  -25.6052 S.2     1  UNL1       -0.0862
     15 C          51.0609   11.7400  -23.9533 C.ar    1  UNL1        0.0325
     16 C          50.9710   13.5111  -20.1714 C.3     1  UNL1        0.1772
     17 C          52.4645   13.8179  -20.2859 C.3     1  UNL1        0.4121
     18 F          53.1874   12.8491  -19.6139 F       1  UNL1       -0.1685
     19 F          52.8423   13.8176  -21.6167 F       1  UNL1       -0.1685
     20 F          52.7519   15.0524  -19.7336 F       1  UNL1       -0.1685
     21 O          46.1370   16.5980  -25.2841 O.3     1  UNL1       -0.4707
     22 C          46.1771   13.0984  -27.6589 C.ar    1  UNL1       -0.0113
     23 C          46.6515   14.3346  -28.1418 C.ar    1  UNL1       -0.0004
     24 C          46.6594   15.4669  -27.3326 C.ar    1  UNL1        0.0366
     25 C          46.1701   15.4095  -26.0303 C.ar    1  UNL1        0.1388
     26 C          45.7281   14.1791  -25.5157 C.ar    1  UNL1        0.0348
     27 C          45.7500   13.0080  -26.3036 C.ar    1  UNL1        0.0069
     28 C          45.2641   11.6931  -25.7217 C.3     1  UNL1        0.1634
     29 O          43.9132   11.7470  -25.3493 O.3     1  UNL1       -0.3772
     30 H          43.6838   10.8437  -25.0082 H       1  UNL1        0.2109
     31 C          46.1067   11.9167  -28.6232 C.3     1  UNL1        0.0971
     32 C          45.7295   13.2879  -32.5105 C.3     1  UNL1        0.0900
     33 C          45.8489   12.8145  -31.1322 C.1     1  UNL1       -0.0897
     34 C          45.9561   12.4170  -29.9992 C.1     1  UNL1       -0.0870
     35 C          47.3454   11.0078  -28.5195 C.3     1  UNL1        0.1267
     36 C          47.2664    9.8656  -29.4901 C.2     1  UNL1        0.3152
     37 O          48.2878    9.1674  -29.7238 O.2     1  UNL1       -0.2502
     38 O          46.0614    9.5440  -30.1075 O.3     1  UNL1       -0.4801
     39 H          45.2197   10.0760  -29.9210 H       1  UNL1        0.2951
@<TRIPOS>BOND
     1    32    33    1
     2    33    34    3
     3    34    31    1
     4    31    35    1
     5    35    36    1
     6    36    37    2
     7    36    38    1
     8    31    22    1
     9    22    23   ar
    10    23    24   ar
    11    24    25   ar
    12    25    21    1
    13    21     1    1
    14     1     2    1
    15     2     3   ar
    16     3     4   ar
    17     4     5   ar
    18     5     6   ar
    19     6     8    1
    20     8     9    1
    21     9    10    1
    22    10    11    1
    23    11    12   ar
    24    12    13   ar
    25    13    14   ar
    26    14    15   ar
    27     9    16    1
    28    16    17    1
    29    17    18    1
    30    17    19    1
    31    17    20    1
    32     6     7   ar
    33    25    26   ar
    34    26    27   ar
    35    27    28    1
    36    28    29    1
    37    27    22   ar
    38     7     2   ar
    39    15    11   ar
    40    38    39    1
    41    29    30    1
@<TRIPOS>MOLECULE
*****
 39 41 0 0 0
SMALL
GASTEIGER

@<TRIPOS>ATOM
      1 C          48.0901   17.0020  -23.5164 C.3     1  UNL1        0.2320
      2 C          47.9618   16.7537  -24.9962 C.ar    1  UNL1        0.0209
      3 C          48.4009   17.7085  -25.9264 C.ar    1  UNL1       -0.0007
      4 C          48.2975   17.4545  -27.2966 C.ar    1  UNL1       -0.0005
      5 C          47.7601   16.2470  -27.7489 C.ar    1  UNL1       -0.0029
      6 C          47.2944   15.2921  -26.8312 C.ar    1  UNL1       -0.0063
      7 C          47.4066   15.5486  -25.4549 C.ar    1  UNL1       -0.0036
      8 C          46.7358   13.9790  -27.3178 C.3     1  UNL1        0.0996
      9 N          46.8652   12.9126  -26.2947 N.3     1  UNL1       -0.2579
     10 C          47.9904   11.9926  -26.5969 C.3     1  UNL1        0.1001
     11 C          49.0424   12.0974  -25.5324 C.ar    1  UNL1        0.0009
     12 C          49.1002   11.2275  -24.4316 C.ar    1  UNL1        0.0046
     13 C          50.1472   11.4989  -23.5639 C.ar    1  UNL1        0.0352
     14 S          50.9978   12.8109  -24.1744 S.2     1  UNL1       -0.0862
     15 C          50.0532   13.0522  -25.5419 C.ar    1  UNL1        0.0325
     16 C          45.5780   12.1934  -26.1238 C.3     1  UNL1        0.1772
     17 C          44.9277   12.5912  -24.7984 C.3     1  UNL1        0.4121
     18 F          43.5928   12.2295  -24.8126 F       1  UNL1       -0.1685
     19 F          45.5581   11.9405  -23.7530 F       1  UNL1       -0.1685
     20 F          45.0177   13.9569  -24.6023 F       1  UNL1       -0.1685
     21 O          49.1044   16.1672  -22.9573 O.3     1  UNL1       -0.4707
     22 C          48.2461   12.6913  -20.7058 C.ar    1  UNL1       -0.0113
     23 C          47.4311   13.1074  -21.7777 C.ar    1  UNL1       -0.0004
     24 C          47.7498   14.2365  -22.5265 C.ar    1  UNL1        0.0366
     25 C          48.8714   14.9998  -22.2134 C.ar    1  UNL1        0.1388
     26 C          49.7188   14.5820  -21.1736 C.ar    1  UNL1        0.0348
     27 C          49.4393   13.4167  -20.4275 C.ar    1  UNL1        0.0069
     28 C          50.3717   12.9908  -19.3081 C.3     1  UNL1        0.1634
     29 O          51.4866   12.2883  -19.7874 O.3     1  UNL1       -0.3772
     30 H          52.0434   12.0775  -18.9934 H       1  UNL1        0.2109
     31 C          47.7934   11.5004  -19.8644 C.3     1  UNL1        0.0971
     32 C          43.8132   12.0243  -18.8560 C.3     1  UNL1        0.0900
     33 C          45.2164   11.8211  -19.2133 C.1     1  UNL1       -0.0897
     34 C          46.3750   11.6652  -19.5073 C.1     1  UNL1       -0.0870
     35 C          48.0072   10.1603  -20.5921 C.3     1  UNL1        0.1267
     36 C          49.3309    9.5502  -20.2335 C.2     1  UNL1        0.3152
     37 O          50.0426    9.0221  -21.1279 O.2     1  UNL1       -0.2502
     38 O          49.8000    9.5971  -18.9242 O.3     1  UNL1       -0.4801
     39 H          49.2572   10.0349  -18.1894 H       1  UNL1        0.2951
@<TRIPOS>BOND
     1    32    33    1
     2    33    34    3
     3    34    31    1
     4    31    35    1
     5    35    36    1
     6    36    37    2
     7    36    38    1
     8    31    22    1
     9    22    23   ar
    10    23    24   ar
    11    24    25   ar
    12    25    21    1
    13    21     1    1
    14     1     2    1
    15     2     3   ar
    16     3     4   ar
    17     4     5   ar
    18     5     6   ar
    19     6     8    1
    20     8     9    1
    21     9    10    1
    22    10    11    1
    23    11    12   ar
    24    12    13   ar
    25    13    14   ar
    26    14    15   ar
    27     9    16    1
    28    16    17    1
    29    17    18    1
    30    17    19    1
    31    17    20    1
    32     6     7   ar
    33    25    26   ar
    34    26    27   ar
    35    27    28    1
    36    28    29    1
    37    27    22   ar
    38     7     2   ar
    39    15    11   ar
    40    38    39    1
    41    29    30    1
@<TRIPOS>MOLECULE
*****
 39 41 0 0 0
SMALL
GASTEIGER

@<TRIPOS>ATOM
      1 C          46.7650   17.3390  -24.2929 C.3     1  UNL1        0.2320
      2 C          48.2273   17.1024  -24.5640 C.ar    1  UNL1        0.0209
      3 C          48.9322   17.9146  -25.4658 C.ar    1  UNL1       -0.0007
      4 C          50.2944   17.6986  -25.6897 C.ar    1  UNL1       -0.0005
      5 C          50.9640   16.6753  -25.0144 C.ar    1  UNL1       -0.0029
      6 C          50.2676   15.8392  -24.1275 C.ar    1  UNL1       -0.0063
      7 C          48.8999   16.0642  -23.9002 C.ar    1  UNL1       -0.0036
      8 C          50.9942   14.7495  -23.3806 C.3     1  UNL1        0.0996
      9 N          50.2216   13.4832  -23.3650 N.3     1  UNL1       -0.2579
     10 C          50.1369   12.9060  -22.0000 C.3     1  UNL1        0.1001
     11 C          48.7816   12.3018  -21.7787 C.ar    1  UNL1        0.0009
     12 C          47.5896   12.9630  -22.1156 C.ar    1  UNL1        0.0046
     13 C          46.4478   12.2314  -21.8258 C.ar    1  UNL1        0.0352
     14 S          46.9273   10.7662  -21.1619 S.2     1  UNL1       -0.0862
     15 C          48.5830   11.0389  -21.2319 C.ar    1  UNL1        0.0325
     16 C          50.7745   12.5215  -24.3514 C.3     1  UNL1        0.1772
     17 C          49.7060   12.1557  -25.3821 C.3     1  UNL1        0.4121
     18 F          48.7310   11.3808  -24.7807 F       1  UNL1       -0.1685
     19 F          49.1213   13.3065  -25.8796 F       1  UNL1       -0.1685
     20 F          50.2618   11.4415  -26.4274 F       1  UNL1       -0.1685
     21 O          45.9806   16.9558  -25.4225 O.3     1  UNL1       -0.4707
     22 C          46.1957   13.3174  -27.5682 C.ar    1  UNL1       -0.0113
     23 C          46.5917   14.5447  -28.1368 C.ar    1  UNL1       -0.0004
     24 C          46.5434   15.7258  -27.4021 C.ar    1  UNL1        0.0366
     25 C          46.0738   15.7251  -26.0913 C.ar    1  UNL1        0.1388
     26 C          45.7102   14.5075  -25.4920 C.ar    1  UNL1        0.0348
     27 C          45.7908   13.2909  -26.2034 C.ar    1  UNL1        0.0069
     28 C          45.3890   11.9909  -25.5309 C.3     1  UNL1        0.1634
     29 O          43.9971   11.8593  -25.4240 O.3     1  UNL1       -0.3772
     30 H          43.8340   10.9770  -24.9998 H       1  UNL1        0.2109
     31 C          46.1827   12.0735  -28.4535 C.3     1  UNL1        0.0971
     32 C          45.6411   13.1418  -32.4157 C.3     1  UNL1        0.0900
     33 C          45.8296   12.7819  -31.0110 C.1     1  UNL1       -0.0897
     34 C          45.9867   12.4740  -29.8562 C.1     1  UNL1       -0.0870
     35 C          47.4734   11.2458  -28.3113 C.3     1  UNL1        0.1267
     36 C          47.3492    9.9191  -29.0022 C.2     1  UNL1        0.3152
     37 O          46.2944    9.6318  -29.6268 O.2     1  UNL1       -0.2502
     38 O          48.4072    9.0150  -28.9930 O.3     1  UNL1       -0.4801
     39 H          49.2748    9.2298  -28.5163 H       1  UNL1        0.2951
@<TRIPOS>BOND
     1    32    33    1
     2    33    34    3
     3    34    31    1
     4    31    35    1
     5    35    36    1
     6    36    37    2
     7    36    38    1
     8    31    22    1
     9    22    23   ar
    10    23    24   ar
    11    24    25   ar
    12    25    21    1
    13    21     1    1
    14     1     2    1
    15     2     3   ar
    16     3     4   ar
    17     4     5   ar
    18     5     6   ar
    19     6     8    1
    20     8     9    1
    21     9    10    1
    22    10    11    1
    23    11    12   ar
    24    12    13   ar
    25    13    14   ar
    26    14    15   ar
    27     9    16    1
    28    16    17    1
    29    17    18    1
    30    17    19    1
    31    17    20    1
    32     6     7   ar
    33    25    26   ar
    34    26    27   ar
    35    27    28    1
    36    28    29    1
    37    27    22   ar
    38     7     2   ar
    39    15    11   ar
    40    38    39    1
    41    29    30    1
@<TRIPOS>MOLECULE
*****
 39 41 0 0 0
SMALL
GASTEIGER

@<TRIPOS>ATOM
      1 C          51.0034   15.7342  -23.5802 C.3     1  UNL1        0.2320
      2 C          50.6350   16.6210  -24.7401 C.ar    1  UNL1        0.0209
      3 C          51.5419   17.5705  -25.2359 C.ar    1  UNL1       -0.0007
      4 C          51.1955   18.3703  -26.3280 C.ar    1  UNL1       -0.0005
      5 C          49.9459   18.2270  -26.9358 C.ar    1  UNL1       -0.0029
      6 C          49.0188   17.2986  -26.4365 C.ar    1  UNL1       -0.0063
      7 C          49.3737   16.4919  -25.3428 C.ar    1  UNL1       -0.0036
      8 C          47.6788   17.1267  -27.1060 C.3     1  UNL1        0.0996
      9 N          46.6401   16.6706  -26.1501 N.3     1  UNL1       -0.2579
     10 C          45.6133   15.8279  -26.8128 C.3     1  UNL1        0.1001
     11 C          45.6773   14.4254  -26.2839 C.ar    1  UNL1        0.0009
     12 C          45.1148   14.0499  -25.0533 C.ar    1  UNL1        0.0046
     13 C          45.2884   12.7080  -24.7499 C.ar    1  UNL1        0.0352
     14 S          46.1310   11.9967  -26.0154 S.2     1  UNL1       -0.0862
     15 C          46.2873   13.3754  -26.9614 C.ar    1  UNL1        0.0325
     16 C          46.0454   17.8266  -25.4337 C.3     1  UNL1        0.1772
     17 C          46.4330   17.7824  -23.9553 C.3     1  UNL1        0.4121
     18 F          47.5114   18.6201  -23.7358 F       1  UNL1       -0.1685
     19 F          45.3696   18.2069  -23.1790 F       1  UNL1       -0.1685
     20 F          46.7825   16.4979  -23.5816 F       1  UNL1       -0.1685
     21 O          49.9595   15.7287  -22.6062 O.3     1  UNL1       -0.4707
     22 C          48.5675   12.3954  -20.4062 C.ar    1  UNL1       -0.0113
     23 C          47.9979   12.7665  -21.6408 C.ar    1  UNL1       -0.0004
     24 C          48.4926   13.8477  -22.3643 C.ar    1  UNL1        0.0366
     25 C          49.5485   14.6075  -21.8681 C.ar    1  UNL1        0.1388
     26 C          50.1564   14.2324  -20.6583 C.ar    1  UNL1        0.0348
     27 C          49.6996   13.1143  -19.9276 C.ar    1  UNL1        0.0069
     28 C          50.3742   12.7339  -18.6223 C.3     1  UNL1        0.1634
     29 O          51.3484   11.7412  -18.8005 O.3     1  UNL1       -0.3772
     30 H          51.7466   11.5802  -17.9058 H       1  UNL1        0.2109
     31 C          47.9212   11.2599  -19.6163 C.3     1  UNL1        0.0971
     32 C          43.9263   12.1623  -19.0160 C.3     1  UNL1        0.0900
     33 C          45.3386   11.8371  -19.2108 C.1     1  UNL1       -0.0897
     34 C          46.5021   11.5730  -19.3826 C.1     1  UNL1       -0.0870
     35 C          48.0564    9.9035  -20.3327 C.3     1  UNL1        0.1267
     36 C          49.4558    9.3704  -20.2314 C.2     1  UNL1        0.3152
     37 O          50.0682    9.0104  -21.2710 O.2     1  UNL1       -0.2502
     38 O          50.1010    9.3063  -19.0000 O.3     1  UNL1       -0.4801
     39 H          49.6391    9.6095  -18.1510 H       1  UNL1        0.2951
@<TRIPOS>BOND
     1    32    33    1
     2    33    34    3
     3    34    31    1
     4    31    35    1
     5    35    36    1
     6    36    37    2
     7    36    38    1
     8    31    22    1
     9    22    23   ar
    10    23    24   ar
    11    24    25   ar
    12    25    21    1
    13    21     1    1
    14     1     2    1
    15     2     3   ar
    16     3     4   ar
    17     4     5   ar
    18     5     6   ar
    19     6     8    1
    20     8     9    1
    21     9    10    1
    22    10    11    1
    23    11    12   ar
    24    12    13   ar
    25    13    14   ar
    26    14    15   ar
    27     9    16    1
    28    16    17    1
    29    17    18    1
    30    17    19    1
    31    17    20    1
    32     6     7   ar
    33    25    26   ar
    34    26    27   ar
    35    27    28    1
    36    28    29    1
    37    27    22   ar
    38     7     2   ar
    39    15    11   ar
    40    38    39    1
    41    29    30    1
@<TRIPOS>MOLECULE
*****
 39 41 0 0 0
SMALL
GASTEIGER

@<TRIPOS>ATOM
      1 C          50.1358   10.6043  -24.8919 C.3     1  UNL1        0.2320
      2 C          50.0629   12.0921  -25.1132 C.ar    1  UNL1        0.0209
      3 C          51.1382   12.9244  -24.7657 C.ar    1  UNL1       -0.0007
      4 C          51.0660   14.3003  -24.9986 C.ar    1  UNL1       -0.0005
      5 C          49.9247   14.8553  -25.5826 C.ar    1  UNL1       -0.0029
      6 C          48.8314   14.0393  -25.9136 C.ar    1  UNL1       -0.0063
      7 C          48.9109   12.6559  -25.6840 C.ar    1  UNL1       -0.0036
      8 C          47.6086   14.6338  -26.5653 C.3     1  UNL1        0.0996
      9 N          46.4890   13.6624  -26.6243 N.3     1  UNL1       -0.2579
     10 C          45.7934   13.7021  -27.9352 C.3     1  UNL1        0.1001
     11 C          46.1682   12.5025  -28.7544 C.ar    1  UNL1        0.0009
     12 C          46.1445   12.5025  -30.1584 C.ar    1  UNL1        0.0046
     13 C          46.5231   11.2924  -30.7201 C.ar    1  UNL1        0.0352
     14 S          46.8924   10.2352  -29.4697 S.2     1  UNL1       -0.0862
     15 C          46.5779   11.2931  -28.2040 C.ar    1  UNL1        0.0325
     16 C          45.5592   13.8667  -25.4853 C.3     1  UNL1        0.1772
     17 C          45.3628   12.5534  -24.7274 C.3     1  UNL1        0.4121
     18 F          46.1851   11.5815  -25.2677 F       1  UNL1       -0.1685
     19 F          45.6898   12.7280  -23.3946 F       1  UNL1       -0.1685
     20 F          44.0501   12.1291  -24.8201 F       1  UNL1       -0.1685
     21 O          49.0135   10.1583  -24.1305 O.3     1  UNL1       -0.4707
     22 C          47.6893   11.6620  -20.4058 C.ar    1  UNL1       -0.0113
     23 C          47.4009   10.3481  -20.8263 C.ar    1  UNL1       -0.0004
     24 C          47.8740    9.8625  -22.0419 C.ar    1  UNL1        0.0366
     25 C          48.6231   10.6777  -22.8862 C.ar    1  UNL1        0.1388
     26 C          48.9549   11.9779  -22.4700 C.ar    1  UNL1        0.0348
     27 C          48.5222   12.4781  -21.2228 C.ar    1  UNL1        0.0069
     28 C          48.8940   13.8877  -20.8004 C.3     1  UNL1        0.1634
     29 O          50.0343   13.9116  -19.9847 O.3     1  UNL1       -0.3772
     30 H          50.2113   14.8673  -19.7839 H       1  UNL1        0.2109
     31 C          47.0640   12.1664  -19.1074 C.3     1  UNL1        0.0971
     32 C          42.9377   11.9146  -19.3156 C.3     1  UNL1        0.0900
     33 C          44.3963   12.0016  -19.2603 C.1     1  UNL1       -0.0897
     34 C          45.5981   12.0748  -19.2030 C.1     1  UNL1       -0.0870
     35 C          47.5674   11.3864  -17.8788 C.3     1  UNL1        0.1267
     36 C          48.9872   11.7451  -17.5493 C.2     1  UNL1        0.3152
     37 O          49.3519   12.9501  -17.5686 O.2     1  UNL1       -0.2502
     38 O          49.8989   10.7597  -17.1829 O.3     1  UNL1       -0.4801
     39 H          49.6263    9.7851  -17.1385 H       1  UNL1        0.2951
@<TRIPOS>BOND
     1    32    33    1
     2    33    34    3
     3    34    31    1
     4    31    35    1
     5    35    36    1
     6    36    37    2
     7    36    38    1
     8    31    22    1
     9    22    23   ar
    10    23    24   ar
    11    24    25   ar
    12    25    21    1
    13    21     1    1
    14     1     2    1
    15     2     3   ar
    16     3     4   ar
    17     4     5   ar
    18     5     6   ar
    19     6     8    1
    20     8     9    1
    21     9    10    1
    22    10    11    1
    23    11    12   ar
    24    12    13   ar
    25    13    14   ar
    26    14    15   ar
    27     9    16    1
    28    16    17    1
    29    17    18    1
    30    17    19    1
    31    17    20    1
    32     6     7   ar
    33    25    26   ar
    34    26    27   ar
    35    27    28    1
    36    28    29    1
    37    27    22   ar
    38     7     2   ar
    39    15    11   ar
    40    38    39    1
    41    29    30    1
@<TRIPOS>MOLECULE
*****
 39 41 0 0 0
SMALL
GASTEIGER

@<TRIPOS>ATOM
      1 C          46.1289   12.0731  -26.7516 C.3     1  UNL1        0.2320
      2 C          46.3340   13.5517  -26.9505 C.ar    1  UNL1        0.0209
      3 C          45.9178   14.1829  -28.1329 C.ar    1  UNL1       -0.0007
      4 C          46.0930   15.5598  -28.2940 C.ar    1  UNL1       -0.0005
      5 C          46.6797   16.3172  -27.2774 C.ar    1  UNL1       -0.0029
      6 C          47.1231   15.6967  -26.0988 C.ar    1  UNL1       -0.0063
      7 C          46.9388   14.3135  -25.9383 C.ar    1  UNL1       -0.0036
      8 C          47.7352   16.5167  -24.9915 C.3     1  UNL1        0.0996
      9 N          49.2136   16.5720  -25.1001 N.3     1  UNL1       -0.2579
     10 C          49.8761   15.9745  -23.9135 C.3     1  UNL1        0.1001
     11 C          50.4289   14.6229  -24.2575 C.ar    1  UNL1        0.0009
     12 C          50.6623   14.2102  -25.5791 C.ar    1  UNL1        0.0046
     13 C          51.1720   12.9244  -25.6776 C.ar    1  UNL1        0.0352
     14 S          51.3369   12.3133  -24.1229 S.2     1  UNL1       -0.0862
     15 C          50.7657   13.6655  -23.3070 C.ar    1  UNL1        0.0325
     16 C          49.6670   17.9613  -25.3600 C.3     1  UNL1        0.1772
     17 C          50.6089   17.9883  -26.5641 C.3     1  UNL1        0.4121
     18 F          50.2661   19.0398  -27.3946 F       1  UNL1       -0.1685
     19 F          51.9128   18.1615  -26.1354 F       1  UNL1       -0.1685
     20 F          50.5199   16.8081  -27.2787 F       1  UNL1       -0.1685
     21 O          46.1102   11.3991  -28.0100 O.3     1  UNL1       -0.4707
     22 C          49.0808    8.8020  -29.5327 C.ar    1  UNL1       -0.0113
     23 C          47.9183    9.1180  -30.2642 C.ar    1  UNL1       -0.0004
     24 C          46.9686   10.0007  -29.7581 C.ar    1  UNL1        0.0366
     25 C          47.1336   10.5721  -28.4992 C.ar    1  UNL1        0.1388
     26 C          48.3030   10.3012  -27.7692 C.ar    1  UNL1        0.0348
     27 C          49.3002    9.4425  -28.2801 C.ar    1  UNL1        0.0069
     28 C          50.5524    9.1663  -27.4681 C.3     1  UNL1        0.1634
     29 O          51.5418   10.1381  -27.6754 O.3     1  UNL1       -0.3772
     30 H          52.3026    9.8882  -27.0892 H       1  UNL1        0.2109
     31 C          50.0379    7.7562  -30.0997 C.3     1  UNL1        0.0971
     32 C          48.1361    5.7475  -33.1789 C.3     1  UNL1        0.0900
     33 C          48.8239    6.4555  -32.1001 C.1     1  UNL1       -0.0897
     34 C          49.3807    7.0403  -31.2051 C.1     1  UNL1       -0.0870
     35 C          51.3610    8.3799  -30.5811 C.3     1  UNL1        0.1267
     36 C          52.4055    7.3281  -30.8172 C.2     1  UNL1        0.3152
     37 O          52.4824    6.7588  -31.9376 O.2     1  UNL1       -0.2502
     38 O          53.3192    7.0020  -29.8194 O.3     1  UNL1       -0.4801
     39 H          53.2931    7.4600  -28.9162 H       1  UNL1        0.2951
@<TRIPOS>BOND
     1    32    33    1
     2    33    34    3
     3    34    31    1
     4    31    35    1
     5    35    36    1
     6    36    37    2
     7    36    38    1
     8    31    22    1
     9    22    23   ar
    10    23    24   ar
    11    24    25   ar
    12    25    21    1
    13    21     1    1
    14     1     2    1
    15     2     3   ar
    16     3     4   ar
    17     4     5   ar
    18     5     6   ar
    19     6     8    1
    20     8     9    1
    21     9    10    1
    22    10    11    1
    23    11    12   ar
    24    12    13   ar
    25    13    14   ar
    26    14    15   ar
    27     9    16    1
    28    16    17    1
    29    17    18    1
    30    17    19    1
    31    17    20    1
    32     6     7   ar
    33    25    26   ar
    34    26    27   ar
    35    27    28    1
    36    28    29    1
    37    27    22   ar
    38     7     2   ar
    39    15    11   ar
    40    38    39    1
    41    29    30    1
@<TRIPOS>MOLECULE
*****
 39 41 0 0 0
SMALL
GASTEIGER

@<TRIPOS>ATOM
      1 C          51.8667   11.6273  -24.3480 C.3     1  UNL1        0.2320
      2 C          51.0018   10.5863  -23.6877 C.ar    1  UNL1        0.0209
      3 C          51.0172    9.2538  -24.1282 C.ar    1  UNL1       -0.0007
      4 C          50.2273    8.2935  -23.4907 C.ar    1  UNL1       -0.0005
      5 C          49.4204    8.6529  -22.4086 C.ar    1  UNL1       -0.0029
      6 C          49.3757    9.9863  -21.9716 C.ar    1  UNL1       -0.0063
      7 C          50.1765   10.9470  -22.6109 C.ar    1  UNL1       -0.0036
      8 C          48.5231   10.3709  -20.7891 C.3     1  UNL1        0.0996
      9 N          48.1430   11.8043  -20.8274 N.3     1  UNL1       -0.2579
     10 C          48.4789   12.4977  -19.5585 C.3     1  UNL1        0.1001
     11 C          49.9204   12.9135  -19.5640 C.ar    1  UNL1        0.0009
     12 C          50.8786   12.3480  -18.7075 C.ar    1  UNL1        0.0046
     13 C          52.1504   12.8759  -18.8714 C.ar    1  UNL1        0.0352
     14 S          52.0769   14.0342  -20.0840 S.2     1  UNL1       -0.0862
     15 C          50.4376   13.8830  -20.4160 C.ar    1  UNL1        0.0325
     16 C          46.7121   11.9560  -21.1920 C.3     1  UNL1        0.1772
     17 C          46.5866   12.3809  -22.6554 C.3     1  UNL1        0.4121
     18 F          46.9836   11.3391  -23.4739 F       1  UNL1       -0.1685
     19 F          45.2707   12.6989  -22.9399 F       1  UNL1       -0.1685
     20 F          47.3845   13.4801  -22.9136 F       1  UNL1       -0.1685
     21 O          51.3152   12.0062  -25.6092 O.3     1  UNL1       -0.4707
     22 C          47.9044   14.4748  -26.0098 C.ar    1  UNL1       -0.0113
     23 C          49.1860   15.0058  -25.7609 C.ar    1  UNL1       -0.0004
     24 C          50.3006   14.1778  -25.6649 C.ar    1  UNL1        0.0366
     25 C          50.1688   12.7970  -25.7853 C.ar    1  UNL1        0.1388
     26 C          48.9071   12.2492  -26.0718 C.ar    1  UNL1        0.0348
     27 C          47.7694   13.0724  -26.2157 C.ar    1  UNL1        0.0069
     28 C          46.4184   12.4525  -26.5229 C.3     1  UNL1        0.1634
     29 O          46.1223   12.4829  -27.8932 O.3     1  UNL1       -0.3772
     30 H          45.2416   12.0373  -27.9962 H       1  UNL1        0.2109
     31 C          46.7087   15.4243  -26.0108 C.3     1  UNL1        0.0971
     32 C          46.8315   17.8006  -22.6238 C.3     1  UNL1        0.0900
     33 C          46.7797   16.9480  -23.8106 C.1     1  UNL1       -0.0897
     34 C          46.7422   16.2537  -24.7953 C.1     1  UNL1       -0.0870
     35 C          46.6775   16.3179  -27.2645 C.3     1  UNL1        0.1267
     36 C          45.5782   15.9066  -28.2000 C.2     1  UNL1        0.3152
     37 O          44.4666   16.4968  -28.1620 O.2     1  UNL1       -0.2502
     38 O          45.7880   14.9019  -29.1399 O.3     1  UNL1       -0.4801
     39 H          46.6795   14.4256  -29.2063 H       1  UNL1        0.2951
@<TRIPOS>BOND
     1    32    33    1
     2    33    34    3
     3    34    31    1
     4    31    35    1
     5    35    36    1
     6    36    37    2
     7    36    38    1
     8    31    22    1
     9    22    23   ar
    10    23    24   ar
    11    24    25   ar
    12    25    21    1
    13    21     1    1
    14     1     2    1
    15     2     3   ar
    16     3     4   ar
    17     4     5   ar
    18     5     6   ar
    19     6     8    1
    20     8     9    1
    21     9    10    1
    22    10    11    1
    23    11    12   ar
    24    12    13   ar
    25    13    14   ar
    26    14    15   ar
    27     9    16    1
    28    16    17    1
    29    17    18    1
    30    17    19    1
    31    17    20    1
    32     6     7   ar
    33    25    26   ar
    34    26    27   ar
    35    27    28    1
    36    28    29    1
    37    27    22   ar
    38     7     2   ar
    39    15    11   ar
    40    38    39    1
    41    29    30    1
