@<TRIPOS>MOLECULE
*****
 77 79 0 0 0
SMALL
GASTEIGER

@<TRIPOS>ATOM
      1 C         -30.1357   47.1002   -8.9472 C.ar    1  UNL1        0.1694
      2 C         -29.4532   46.7981   -7.7440 C.ar    1  UNL1        0.1811
      3 C         -28.3088   47.5260   -7.4057 C.ar    1  UNL1        0.1358
      4 C         -27.7803   48.4773   -8.2660 C.ar    1  UNL1        0.2879
      5 O         -26.6781   49.1037   -7.8895 O.3     1  UNL1       -0.5464
      6 C         -26.0193   49.9627   -8.6520 C.ar    1  UNL1        0.2866
      7 C         -24.8558   50.5669   -8.1434 C.ar    1  UNL1        0.0996
      8 C         -24.4195   50.2764   -6.7270 C.3     1  UNL1        0.0431
      9 C         -24.1138   51.4427   -8.9587 C.ar    1  UNL1        0.1425
     10 C         -24.5232   51.6984  -10.2787 C.ar    1  UNL1        0.0501
     11 C         -25.6596   51.0517  -10.8056 C.ar    1  UNL1        0.1441
     12 O         -25.9124   51.2077  -12.1736 O.3     1  UNL1       -0.5053
     13 C         -26.4656   50.2311   -9.9644 C.ar    1  UNL1        0.1597
     14 C         -27.7061   49.6669  -10.3619 C.2     1  UNL1        0.2146
     15 O         -28.1984   49.9834  -11.4728 O.2     1  UNL1       -0.2859
     16 C         -28.3935   48.7614   -9.5039 C.ar    1  UNL1        0.1263
     17 C         -29.6392   48.1158   -9.8136 C.ar    1  UNL1        0.0304
     18 H         -26.3824   50.5189  -12.7438 H       1  UNL1        0.2922
     19 H         -26.3434   48.9292   -7.0318 H       1  UNL1        0.5634
     20 C         -31.4765   45.0250   -9.5419 C.3     1  UNL1        0.2526
     21 O         -31.3117   46.4237   -9.3361 O.3     1  UNL1       -0.4687
     22 O         -22.9076   51.9889   -8.5058 O.3     1  UNL1       -0.4659
     23 C         -21.7655   51.2047   -8.1759 C.3     1  UNL1        0.2893
     24 C         -20.6701   52.0915   -7.6640 C.2     1  UNL1        0.2673
     25 O         -20.8724   52.7873   -6.6324 O.2     1  UNL1       -0.2711
     26 N         -19.3783   52.0913   -8.2945 N.am    1  UNL1       -0.2953
     27 H         -19.2943   51.6749   -9.2482 H       1  UNL1        0.1499
     28 C         -18.1957   52.7162   -7.6882 C.3     1  UNL1        0.1485
     29 C         -16.9272   52.0368   -8.1432 C.2     1  UNL1        0.2372
     30 N         -15.9567   51.6139   -7.1858 N.am    1  UNL1       -0.3275
     31 O         -16.6959   51.8805   -9.3729 O.2     1  UNL1       -0.2736
     32 H         -15.0716   51.1575   -7.4994 H       1  UNL1        0.1450
     33 H         -16.1160   51.7615   -6.1645 H       1  UNL1        0.1450
     34 C         -18.1553   54.2312   -7.9912 C.3     1  UNL1        0.0325
     35 C         -19.2270   55.0402   -7.2338 C.3     1  UNL1        0.0450
     36 C         -19.2017   56.5168   -7.6404 C.3     1  UNL1        0.1740
     37 N         -18.7731   57.3564   -6.5206 N.pl3   1  UNL1       -0.2625
     38 H         -18.3437   56.9157   -5.6752 H       1  UNL1        0.2587
     39 C         -18.8976   58.7845   -6.5504 C.cat   1  UNL1        0.3769
     40 N         -18.9659   59.4581   -5.4452 N.pl3   1  UNL1       -0.1298
     41 N         -18.9532   59.4632   -7.8072 N.pl3   1  UNL1       -0.2892
     42 H         -19.0596   60.4983   -5.4409 H       1  UNL1        0.3062
     43 H         -18.8723   58.9276   -8.6991 H       1  UNL1        0.2546
     44 H         -19.0681   60.5001   -7.8535 H       1  UNL1        0.2546
     45 C         -23.6570   52.5613  -11.1715 C.3     1  UNL1        0.0578
     46 C         -22.3286   51.8926  -11.4284 C.2     1  UNL1       -0.0297
     47 C         -21.1474   52.5396  -11.3483 C.2     1  UNL1       -0.0475
     48 C         -21.0717   54.0049  -10.9911 C.3     1  UNL1        0.0260
     49 C         -19.8817   51.7694  -11.6217 C.3     1  UNL1        0.0260
     50 O         -29.9276   45.7775   -6.9020 O.3     1  UNL1       -0.4623
     51 C         -30.7135   45.9600   -5.7235 C.3     1  UNL1        0.2895
     52 C         -29.8477   45.9276   -4.4980 C.2     1  UNL1        0.2673
     53 O         -29.6008   44.8203   -3.9478 O.2     1  UNL1       -0.2711
     54 N         -29.3391   47.1476   -3.9373 N.am    1  UNL1       -0.2953
     55 H         -29.4727   48.0313   -4.4795 H       1  UNL1        0.1499
     56 C         -28.5325   47.1798   -2.7099 C.3     1  UNL1        0.1485
     57 C         -29.3630   47.6080   -1.5241 C.2     1  UNL1        0.2372
     58 N         -30.7642   47.3353   -1.4977 N.am    1  UNL1       -0.3275
     59 O         -28.8243   48.1696   -0.5321 O.2     1  UNL1       -0.2736
     60 H         -31.2268   46.8398   -2.2920 H       1  UNL1        0.1450
     61 H         -31.3398   47.6148   -0.6727 H       1  UNL1        0.1450
     62 C         -27.2900   48.0762   -2.8862 C.3     1  UNL1        0.0325
     63 C         -27.0898   48.5780   -4.3286 C.3     1  UNL1        0.0450
     64 C         -27.2475   50.1013   -4.4378 C.3     1  UNL1        0.1740
     65 N         -27.8513   50.4965   -5.7115 N.pl3   1  UNL1       -0.2625
     66 H         -27.9475   49.7892   -6.4752 H       1  UNL1        0.2587
     67 C         -28.3282   51.8305   -5.9603 C.cat   1  UNL1        0.3769
     68 N         -27.5689   52.6821   -6.5729 N.pl3   1  UNL1       -0.1298
     69 N         -29.6407   52.2354   -5.5581 N.pl3   1  UNL1       -0.2892
     70 H         -26.6064   52.4327   -6.8928 H       1  UNL1        0.3062
     71 H         -30.2972   51.5829   -5.0788 H       1  UNL1        0.2546
     72 H         -29.9738   53.2048   -5.7576 H       1  UNL1        0.2546
     73 C         -30.4777   48.4869  -11.0364 C.3     1  UNL1        0.0552
     74 C         -30.4018   47.4434  -12.1308 C.2     1  UNL1       -0.0298
     75 C         -30.4093   47.7054  -13.4570 C.2     1  UNL1       -0.0475
     76 C         -30.3563   46.5440  -14.4164 C.3     1  UNL1        0.0260
     77 C         -30.4856   49.1106  -14.0010 C.3     1  UNL1        0.0260
@<TRIPOS>BOND
     1    20    21    1
     2    21     1    1
     3     1     2   ar
     4     2    50    1
     5    50    51    1
     6    51    52    1
     7    52    53    2
     8    52    54   am
     9    54    56    1
    10    56    62    1
    11    62    63    1
    12    63    64    1
    13    64    65    1
    14    65    67    1
    15    67    68    2
    16    67    69    1
    17    56    57    1
    18    57    58   am
    19    57    59    2
    20     2     3   ar
    21     3     4   ar
    22     4     5    1
    23     5     6    1
    24     6     7   ar
    25     7     8    1
    26     7     9   ar
    27     9    22    1
    28    22    23    1
    29    23    24    1
    30    24    25    2
    31    24    26   am
    32    26    28    1
    33    28    34    1
    34    34    35    1
    35    35    36    1
    36    36    37    1
    37    37    39    1
    38    39    40    2
    39    39    41    1
    40    28    29    1
    41    29    30   am
    42    29    31    2
    43     9    10   ar
    44    10    45    1
    45    45    46    1
    46    46    47    2
    47    47    48    1
    48    47    49    1
    49    10    11   ar
    50    11    12    1
    51    11    13   ar
    52    13    14    1
    53    14    15    2
    54    14    16    1
    55    16    17   ar
    56    17    73    1
    57    73    74    1
    58    74    75    2
    59    75    76    1
    60    75    77    1
    61    17     1   ar
    62    16     4   ar
    63    13     6   ar
    64    54    55    1
    65    65    66    1
    66    68    70    1
    67    69    71    1
    68    69    72    1
    69    58    60    1
    70    58    61    1
    71    26    27    1
    72    37    38    1
    73    40    42    1
    74    41    43    1
    75    41    44    1
    76    30    32    1
    77    30    33    1
    78    12    18    1
    79     5    19    1
@<TRIPOS>MOLECULE
*****
 77 79 0 0 0
SMALL
GASTEIGER

@<TRIPOS>ATOM
      1 C         -30.2609   47.1855   -9.0499 C.ar    1  UNL1        0.1694
      2 C         -29.6148   46.8722   -7.8296 C.ar    1  UNL1        0.1811
      3 C         -28.4718   47.5860   -7.4582 C.ar    1  UNL1        0.1358
      4 C         -27.9091   48.5334   -8.3009 C.ar    1  UNL1        0.2879
      5 O         -26.8105   49.1460   -7.8927 O.3     1  UNL1       -0.5464
      6 C         -26.1214   49.9993   -8.6345 C.ar    1  UNL1        0.2866
      7 C         -24.9653   50.5887   -8.0928 C.ar    1  UNL1        0.0996
      8 C         -24.5709   50.2894   -6.6658 C.3     1  UNL1        0.0431
      9 C         -24.1913   51.4581   -8.8850 C.ar    1  UNL1        0.1425
     10 C         -24.5618   51.7220  -10.2148 C.ar    1  UNL1        0.0501
     11 C         -25.6908   51.0900  -10.7743 C.ar    1  UNL1        0.1441
     12 O         -25.9045   51.2525  -12.1481 O.3     1  UNL1       -0.5053
     13 C         -26.5288   50.2764   -9.9578 C.ar    1  UNL1        0.1597
     14 C         -27.7644   49.7278  -10.3905 C.2     1  UNL1        0.2146
     15 O         -28.2226   50.0529  -11.5134 O.2     1  UNL1       -0.2859
     16 C         -28.4852   48.8280   -9.5541 C.ar    1  UNL1        0.1263
     17 C         -29.7293   48.1976   -9.8995 C.ar    1  UNL1        0.0304
     18 H         -26.3667   50.5708  -12.7330 H       1  UNL1        0.2922
     19 H         -26.5012   48.9654   -7.0269 H       1  UNL1        0.5634
     20 C         -31.5444   45.1952   -9.9715 C.3     1  UNL1        0.2526
     21 O         -31.4335   46.5237   -9.4726 O.3     1  UNL1       -0.4687
     22 O         -22.9918   51.9890   -8.3978 O.3     1  UNL1       -0.4659
     23 C         -21.7986   51.2259   -8.2490 C.3     1  UNL1        0.2893
     24 C         -20.6995   52.0982   -7.7203 C.2     1  UNL1        0.2673
     25 O         -20.8927   52.7614   -6.6658 O.2     1  UNL1       -0.2711
     26 N         -19.4137   52.1196   -8.3628 N.am    1  UNL1       -0.2953
     27 H         -19.3384   51.7330   -9.3298 H       1  UNL1        0.1499
     28 C         -18.2262   52.7273   -7.7488 C.3     1  UNL1        0.1485
     29 C         -16.9738   51.9714   -8.1204 C.2     1  UNL1        0.2372
     30 N         -16.9321   51.1970   -9.3186 N.am    1  UNL1       -0.3275
     31 O         -15.9738   51.9821   -7.3525 O.2     1  UNL1       -0.2736
     32 H         -16.0721   50.6611   -9.5698 H       1  UNL1        0.1450
     33 H         -17.7604   51.1511   -9.9527 H       1  UNL1        0.1450
     34 C         -18.1095   54.2201   -8.1315 C.3     1  UNL1        0.0325
     35 C         -19.1834   55.1105   -7.4752 C.3     1  UNL1        0.0450
     36 C         -18.5697   56.3881   -6.8944 C.3     1  UNL1        0.1740
     37 N         -19.2491   57.5746   -7.4172 N.pl3   1  UNL1       -0.2625
     38 H         -19.8692   57.4915   -8.2550 H       1  UNL1        0.2587
     39 C         -19.1150   58.8613   -6.7989 C.cat   1  UNL1        0.3769
     40 N         -19.8871   59.1969   -5.8135 N.pl3   1  UNL1       -0.1298
     41 N         -18.1284   59.7771   -7.2795 N.pl3   1  UNL1       -0.2892
     42 H         -19.8108   60.1291   -5.3488 H       1  UNL1        0.3062
     43 H         -17.4871   59.5014   -8.0553 H       1  UNL1        0.2546
     44 H         -18.0287   60.7286   -6.8607 H       1  UNL1        0.2546
     45 C         -23.6617   52.5773  -11.0812 C.3     1  UNL1        0.0578
     46 C         -22.3632   51.8623  -11.3648 C.2     1  UNL1       -0.0297
     47 C         -21.1658   52.4837  -11.3830 C.2     1  UNL1       -0.0475
     48 C         -21.0400   53.9649  -11.1176 C.3     1  UNL1        0.0260
     49 C         -19.9329   51.6680  -11.6739 C.3     1  UNL1        0.0260
     50 O         -30.1236   45.8550   -7.0038 O.3     1  UNL1       -0.4623
     51 C         -30.7669   46.0418   -5.7425 C.3     1  UNL1        0.2895
     52 C         -29.7595   46.0565   -4.6300 C.2     1  UNL1        0.2673
     53 O         -29.1503   44.9922   -4.3371 O.2     1  UNL1       -0.2711
     54 N         -29.5216   47.2597   -3.8835 N.am    1  UNL1       -0.2953
     55 H         -29.9619   48.1446   -4.2236 H       1  UNL1        0.1499
     56 C         -28.5876   47.3179   -2.7510 C.3     1  UNL1        0.1485
     57 C         -29.3174   47.5877   -1.4572 C.2     1  UNL1        0.2372
     58 N         -30.1082   48.7679   -1.3159 N.am    1  UNL1       -0.3275
     59 O         -29.2707   46.7582   -0.5088 O.2     1  UNL1       -0.2736
     60 H         -30.1908   49.4523   -2.1002 H       1  UNL1        0.1450
     61 H         -30.6279   48.9508   -0.4291 H       1  UNL1        0.1450
     62 C         -27.4752   48.3560   -3.0025 C.3     1  UNL1        0.0325
     63 C         -26.0540   47.7653   -2.9435 C.3     1  UNL1        0.0450
     64 C         -25.8615   46.6205   -3.9483 C.3     1  UNL1        0.1740
     65 N         -25.2382   45.4501   -3.3279 N.pl3   1  UNL1       -0.2625
     66 H         -24.2504   45.2069   -3.5685 H       1  UNL1        0.2587
     67 C         -25.9318   44.6122   -2.3869 C.cat   1  UNL1        0.3769
     68 N         -27.0886   44.1183   -2.6950 N.pl3   1  UNL1       -0.1298
     69 N         -25.3592   44.2955   -1.1141 N.pl3   1  UNL1       -0.2892
     70 H         -27.5449   44.3138   -3.6140 H       1  UNL1        0.3062
     71 H         -24.4233   44.6524   -0.8254 H       1  UNL1        0.2546
     72 H         -25.8727   43.6760   -0.4484 H       1  UNL1        0.2546
     73 C         -30.5300   48.5817  -11.1434 C.3     1  UNL1        0.0552
     74 C         -30.3317   47.6073  -12.2852 C.2     1  UNL1       -0.0298
     75 C         -30.4661   47.9078  -13.5963 C.2     1  UNL1       -0.0475
     76 C         -30.2609   46.8088  -14.6073 C.3     1  UNL1        0.0260
     77 C         -30.8285   49.2926  -14.0732 C.3     1  UNL1        0.0260
@<TRIPOS>BOND
     1    20    21    1
     2    21     1    1
     3     1     2   ar
     4     2    50    1
     5    50    51    1
     6    51    52    1
     7    52    53    2
     8    52    54   am
     9    54    56    1
    10    56    62    1
    11    62    63    1
    12    63    64    1
    13    64    65    1
    14    65    67    1
    15    67    68    2
    16    67    69    1
    17    56    57    1
    18    57    58   am
    19    57    59    2
    20     2     3   ar
    21     3     4   ar
    22     4     5    1
    23     5     6    1
    24     6     7   ar
    25     7     8    1
    26     7     9   ar
    27     9    22    1
    28    22    23    1
    29    23    24    1
    30    24    25    2
    31    24    26   am
    32    26    28    1
    33    28    34    1
    34    34    35    1
    35    35    36    1
    36    36    37    1
    37    37    39    1
    38    39    40    2
    39    39    41    1
    40    28    29    1
    41    29    30   am
    42    29    31    2
    43     9    10   ar
    44    10    45    1
    45    45    46    1
    46    46    47    2
    47    47    48    1
    48    47    49    1
    49    10    11   ar
    50    11    12    1
    51    11    13   ar
    52    13    14    1
    53    14    15    2
    54    14    16    1
    55    16    17   ar
    56    17    73    1
    57    73    74    1
    58    74    75    2
    59    75    76    1
    60    75    77    1
    61    17     1   ar
    62    16     4   ar
    63    13     6   ar
    64    54    55    1
    65    65    66    1
    66    68    70    1
    67    69    71    1
    68    69    72    1
    69    58    60    1
    70    58    61    1
    71    26    27    1
    72    37    38    1
    73    40    42    1
    74    41    43    1
    75    41    44    1
    76    30    32    1
    77    30    33    1
    78    12    18    1
    79     5    19    1
@<TRIPOS>MOLECULE
*****
 77 79 0 0 0
SMALL
GASTEIGER

@<TRIPOS>ATOM
      1 C         -30.0576   47.1603   -8.8553 C.ar    1  UNL1        0.1694
      2 C         -29.4552   46.9755   -7.5873 C.ar    1  UNL1        0.1811
      3 C         -28.3389   47.7428   -7.2423 C.ar    1  UNL1        0.1358
      4 C         -27.7585   48.6176   -8.1490 C.ar    1  UNL1        0.2879
      5 O         -26.6864   49.2868   -7.7595 O.3     1  UNL1       -0.5464
      6 C         -25.9821   50.0799   -8.5521 C.ar    1  UNL1        0.2866
      7 C         -24.8575   50.7396   -8.0254 C.ar    1  UNL1        0.0996
      8 C         -24.5149   50.5832   -6.5627 C.3     1  UNL1        0.0431
      9 C         -24.0667   51.5455   -8.8665 C.ar    1  UNL1        0.1425
     10 C         -24.3887   51.6764  -10.2283 C.ar    1  UNL1        0.0501
     11 C         -25.4849   50.9730  -10.7676 C.ar    1  UNL1        0.1441
     12 O         -25.6470   51.0017  -12.1578 O.3     1  UNL1       -0.5053
     13 C         -26.3415   50.2237   -9.9101 C.ar    1  UNL1        0.1597
     14 C         -27.5504   49.6131  -10.3352 C.2     1  UNL1        0.2146
     15 O         -27.9692   49.8226  -11.5002 O.2     1  UNL1       -0.2859
     16 C         -28.2894   48.7821   -9.4452 C.ar    1  UNL1        0.1263
     17 C         -29.5090   48.0983   -9.7761 C.ar    1  UNL1        0.0304
     18 H         -26.0751   50.2593  -12.6926 H       1  UNL1        0.2922
     19 H         -26.4086   49.1943   -6.8694 H       1  UNL1        0.5634
     20 C         -31.3156   45.0333   -9.4479 C.3     1  UNL1        0.2526
     21 O         -31.2023   46.4393   -9.2574 O.3     1  UNL1       -0.4687
     22 O         -22.8957   52.1429   -8.3869 O.3     1  UNL1       -0.4659
     23 C         -21.6511   51.4585   -8.2827 C.3     1  UNL1        0.2893
     24 C         -20.5275   52.4503   -8.2357 C.2     1  UNL1        0.2673
     25 O         -19.3454   52.0356   -8.0948 O.2     1  UNL1       -0.2711
     26 N         -20.7844   53.8517   -8.4267 N.am    1  UNL1       -0.2953
     27 H         -21.7682   54.1900   -8.3375 H       1  UNL1        0.1499
     28 C         -19.7175   54.8320   -8.6656 C.3     1  UNL1        0.1485
     29 C         -20.2585   56.0748   -9.3294 C.2     1  UNL1        0.2372
     30 N         -21.6662   56.2482   -9.4888 N.am    1  UNL1       -0.3275
     31 O         -19.4695   56.9448   -9.7882 O.2     1  UNL1       -0.2736
     32 H         -22.0419   57.1000   -9.9613 H       1  UNL1        0.1450
     33 H         -22.3349   55.5249   -9.1425 H       1  UNL1        0.1450
     34 C         -18.9816   55.1784   -7.3514 C.3     1  UNL1        0.0325
     35 C         -19.3623   56.5574   -6.7766 C.3     1  UNL1        0.0450
     36 C         -18.1176   57.3819   -6.4347 C.3     1  UNL1        0.1740
     37 N         -18.4832   58.7584   -6.0966 N.pl3   1  UNL1       -0.2625
     38 H         -18.5177   59.0557   -5.0947 H       1  UNL1        0.2587
     39 C         -18.7750   59.7364   -7.1037 C.cat   1  UNL1        0.3769
     40 N         -18.7896   60.9976   -6.8056 N.pl3   1  UNL1       -0.1298
     41 N         -19.0572   59.3130   -8.4395 N.pl3   1  UNL1       -0.2892
     42 H         -19.0021   61.7286   -7.5206 H       1  UNL1        0.3062
     43 H         -19.0209   58.3007   -8.6900 H       1  UNL1        0.2546
     44 H         -19.2961   60.0056   -9.1837 H       1  UNL1        0.2546
     45 C         -23.4688   52.4637  -11.1372 C.3     1  UNL1        0.0578
     46 C         -22.1261   51.7839  -11.2506 C.2     1  UNL1       -0.0297
     47 C         -21.0146   52.4110  -11.6882 C.2     1  UNL1       -0.0475
     48 C         -21.0380   53.8624  -12.1041 C.3     1  UNL1        0.0260
     49 C         -19.7258   51.6335  -11.7564 C.3     1  UNL1        0.0260
     50 O         -29.9801   46.0306   -6.6888 O.3     1  UNL1       -0.4623
     51 C         -30.9805   46.2788   -5.7003 C.3     1  UNL1        0.2895
     52 C         -30.5899   45.6697   -4.3854 C.2     1  UNL1        0.2673
     53 O         -31.3848   44.8741   -3.8151 O.2     1  UNL1       -0.2711
     54 N         -29.3425   46.0195   -3.7665 N.am    1  UNL1       -0.2953
     55 H         -28.6644   46.5938   -4.3169 H       1  UNL1        0.1499
     56 C         -28.9338   45.4960   -2.4561 C.3     1  UNL1        0.1485
     57 C         -29.2467   46.4804   -1.3551 C.2     1  UNL1        0.2372
     58 N         -29.6058   47.8238   -1.6790 N.am    1  UNL1       -0.3275
     59 O         -29.2355   46.1181   -0.1476 O.2     1  UNL1       -0.2736
     60 H         -29.6563   48.1379   -2.6736 H       1  UNL1        0.1450
     61 H         -29.8390   48.5039   -0.9220 H       1  UNL1        0.1450
     62 C         -27.4431   45.1005   -2.4574 C.3     1  UNL1        0.0325
     63 C         -26.7006   45.4939   -3.7482 C.3     1  UNL1        0.0450
     64 C         -25.4459   46.3309   -3.4611 C.3     1  UNL1        0.1740
     65 N         -25.6471   47.2459   -2.3362 N.pl3   1  UNL1       -0.2625
     66 H         -25.4815   46.9053   -1.3618 H       1  UNL1        0.2587
     67 C         -26.0634   48.6110   -2.5146 C.cat   1  UNL1        0.3769
     68 N         -25.5610   49.5406   -1.7659 N.pl3   1  UNL1       -0.1298
     69 N         -27.0153   48.9700   -3.5212 N.pl3   1  UNL1       -0.2892
     70 H         -24.8578   49.3306   -1.0228 H       1  UNL1        0.3062
     71 H         -27.4353   48.2627   -4.1615 H       1  UNL1        0.2546
     72 H         -27.2969   49.9682   -3.6435 H       1  UNL1        0.2546
     73 C         -30.2660   48.3484  -11.0800 C.3     1  UNL1        0.0552
     74 C         -30.0947   47.2213  -12.0762 C.2     1  UNL1       -0.0298
     75 C         -30.4112   47.2886  -13.3888 C.2     1  UNL1       -0.0475
     76 C         -30.2043   46.0611  -14.2389 C.3     1  UNL1        0.0260
     77 C         -30.9759   48.5376  -14.0191 C.3     1  UNL1        0.0260
@<TRIPOS>BOND
     1    20    21    1
     2    21     1    1
     3     1     2   ar
     4     2    50    1
     5    50    51    1
     6    51    52    1
     7    52    53    2
     8    52    54   am
     9    54    56    1
    10    56    62    1
    11    62    63    1
    12    63    64    1
    13    64    65    1
    14    65    67    1
    15    67    68    2
    16    67    69    1
    17    56    57    1
    18    57    58   am
    19    57    59    2
    20     2     3   ar
    21     3     4   ar
    22     4     5    1
    23     5     6    1
    24     6     7   ar
    25     7     8    1
    26     7     9   ar
    27     9    22    1
    28    22    23    1
    29    23    24    1
    30    24    25    2
    31    24    26   am
    32    26    28    1
    33    28    34    1
    34    34    35    1
    35    35    36    1
    36    36    37    1
    37    37    39    1
    38    39    40    2
    39    39    41    1
    40    28    29    1
    41    29    30   am
    42    29    31    2
    43     9    10   ar
    44    10    45    1
    45    45    46    1
    46    46    47    2
    47    47    48    1
    48    47    49    1
    49    10    11   ar
    50    11    12    1
    51    11    13   ar
    52    13    14    1
    53    14    15    2
    54    14    16    1
    55    16    17   ar
    56    17    73    1
    57    73    74    1
    58    74    75    2
    59    75    76    1
    60    75    77    1
    61    17     1   ar
    62    16     4   ar
    63    13     6   ar
    64    54    55    1
    65    65    66    1
    66    68    70    1
    67    69    71    1
    68    69    72    1
    69    58    60    1
    70    58    61    1
    71    26    27    1
    72    37    38    1
    73    40    42    1
    74    41    43    1
    75    41    44    1
    76    30    32    1
    77    30    33    1
    78    12    18    1
    79     5    19    1
@<TRIPOS>MOLECULE
*****
 77 79 0 0 0
SMALL
GASTEIGER

@<TRIPOS>ATOM
      1 C         -30.2783   47.2191   -9.0261 C.ar    1  UNL1        0.1694
      2 C         -29.6209   46.9182   -7.8086 C.ar    1  UNL1        0.1811
      3 C         -28.4742   47.6353   -7.4553 C.ar    1  UNL1        0.1358
      4 C         -27.9192   48.5737   -8.3130 C.ar    1  UNL1        0.2879
      5 O         -26.8166   49.1900   -7.9215 O.3     1  UNL1       -0.5464
      6 C         -26.1341   50.0353   -8.6784 C.ar    1  UNL1        0.2866
      7 C         -24.9728   50.6298   -8.1536 C.ar    1  UNL1        0.0996
      8 C         -24.5653   50.3451   -6.7274 C.3     1  UNL1        0.0431
      9 C         -24.2060   51.4906   -8.9620 C.ar    1  UNL1        0.1425
     10 C         -24.5887   51.7409  -10.2910 C.ar    1  UNL1        0.0501
     11 C         -25.7232   51.1036  -10.8333 C.ar    1  UNL1        0.1441
     12 O         -25.9497   51.2519  -12.2067 O.3     1  UNL1       -0.5053
     13 C         -26.5538   50.2989  -10.0007 C.ar    1  UNL1        0.1597
     14 C         -27.7935   49.7463  -10.4161 C.2     1  UNL1        0.2146
     15 O         -28.2621   50.0600  -11.5380 O.2     1  UNL1       -0.2859
     16 C         -28.5068   48.8555   -9.5638 C.ar    1  UNL1        0.1263
     17 C         -29.7543   48.2221   -9.8910 C.ar    1  UNL1        0.0304
     18 H         -26.4175   50.5644  -12.7801 H       1  UNL1        0.2922
     19 H         -26.4993   49.0182   -7.0567 H       1  UNL1        0.5634
     20 C         -31.5767   45.2077   -9.8784 C.3     1  UNL1        0.2526
     21 O         -31.4550   46.5535   -9.4310 O.3     1  UNL1       -0.4687
     22 O         -23.0018   52.0260   -8.4916 O.3     1  UNL1       -0.4659
     23 C         -21.8745   51.2312   -8.1371 C.3     1  UNL1        0.2893
     24 C         -20.7587   52.1135   -7.6632 C.2     1  UNL1        0.2673
     25 O         -20.9269   52.8194   -6.6323 O.2     1  UNL1       -0.2711
     26 N         -19.4848   52.0981   -8.3291 N.am    1  UNL1       -0.2953
     27 H         -19.4305   51.6731   -9.2813 H       1  UNL1        0.1499
     28 C         -18.2812   52.7187   -7.7611 C.3     1  UNL1        0.1485
     29 C         -17.0341   51.9913   -8.2010 C.2     1  UNL1        0.2372
     30 N         -17.1045   51.0035   -9.2289 N.am    1  UNL1       -0.3275
     31 O         -15.9320   52.2183   -7.6320 O.2     1  UNL1       -0.2736
     32 H         -16.2458   50.4883   -9.5240 H       1  UNL1        0.1450
     33 H         -18.0134   50.7796   -9.6916 H       1  UNL1        0.1450
     34 C         -18.2086   54.2187   -8.1262 C.3     1  UNL1        0.0325
     35 C         -19.1192   55.1093   -7.2576 C.3     1  UNL1        0.0450
     36 C         -19.5981   56.3407   -8.0325 C.3     1  UNL1        0.1740
     37 N         -19.8997   57.4441   -7.1192 N.pl3   1  UNL1       -0.2625
     38 H         -20.7617   57.4087   -6.5282 H       1  UNL1        0.2587
     39 C         -19.0314   58.5769   -6.9830 C.cat   1  UNL1        0.3769
     40 N         -18.8987   59.4201   -7.9583 N.pl3   1  UNL1       -0.1298
     41 N         -18.3056   58.7690   -5.7666 N.pl3   1  UNL1       -0.2892
     42 H         -18.2704   60.2510   -7.8843 H       1  UNL1        0.3062
     43 H         -18.4293   58.1073   -4.9693 H       1  UNL1        0.2546
     44 H         -17.6491   59.5732   -5.6537 H       1  UNL1        0.2546
     45 C         -23.6966   52.5867  -11.1745 C.3     1  UNL1        0.0578
     46 C         -22.3727   51.8995  -11.4044 C.2     1  UNL1       -0.0297
     47 C         -21.1871   52.5411  -11.3487 C.2     1  UNL1       -0.0475
     48 C         -21.1016   54.0186  -11.0488 C.3     1  UNL1        0.0260
     49 C         -19.9266   51.7523  -11.5912 C.3     1  UNL1        0.0260
     50 O         -30.1224   45.9098   -6.9677 O.3     1  UNL1       -0.4623
     51 C         -31.2002   46.0494   -6.0411 C.3     1  UNL1        0.2895
     52 C         -30.7401   46.7436   -4.7925 C.2     1  UNL1        0.2673
     53 O         -31.3224   47.8000   -4.4254 O.2     1  UNL1       -0.2711
     54 N         -29.6251   46.2312   -4.0472 N.am    1  UNL1       -0.2953
     55 H         -29.2389   45.2985   -4.3186 H       1  UNL1        0.1499
     56 C         -29.0986   46.8991   -2.8493 C.3     1  UNL1        0.1485
     57 C         -27.6659   47.3301   -3.0519 C.2     1  UNL1        0.2372
     58 N         -26.6709   46.9763   -2.0911 N.am    1  UNL1       -0.3275
     59 O         -27.3271   47.9667   -4.0861 O.2     1  UNL1       -0.2736
     60 H         -26.9208   46.4190   -1.2441 H       1  UNL1        0.1450
     61 H         -25.6759   47.2579   -2.2350 H       1  UNL1        0.1450
     62 C         -29.2513   46.0038   -1.6029 C.3     1  UNL1        0.0325
     63 C         -30.6231   46.1317   -0.9145 C.3     1  UNL1        0.0450
     64 C         -30.4958   46.2462    0.6112 C.3     1  UNL1        0.1740
     65 N         -31.0246   47.5178    1.1080 N.pl3   1  UNL1       -0.2625
     66 H         -31.9950   47.5538    1.4951 H       1  UNL1        0.2587
     67 C         -30.2570   48.7340    1.0909 C.cat   1  UNL1        0.3769
     68 N         -28.9648   48.6809    1.1588 N.pl3   1  UNL1       -0.1298
     69 N         -30.8939   50.0110    0.9821 N.pl3   1  UNL1       -0.2892
     70 H         -28.4530   47.7735    1.2318 H       1  UNL1        0.3062
     71 H         -31.9291   50.1070    0.9060 H       1  UNL1        0.2546
     72 H         -30.3192   50.8826    0.9597 H       1  UNL1        0.2546
     73 C         -30.5664   48.5936  -11.1313 C.3     1  UNL1        0.0552
     74 C         -30.4073   47.5882  -12.2521 C.2     1  UNL1       -0.0298
     75 C         -30.4340   47.8831  -13.5711 C.2     1  UNL1       -0.0475
     76 C         -30.2886   46.7547  -14.5600 C.3     1  UNL1        0.0260
     77 C         -30.6202   49.2915  -14.0789 C.3     1  UNL1        0.0260
@<TRIPOS>BOND
     1    20    21    1
     2    21     1    1
     3     1     2   ar
     4     2    50    1
     5    50    51    1
     6    51    52    1
     7    52    53    2
     8    52    54   am
     9    54    56    1
    10    56    62    1
    11    62    63    1
    12    63    64    1
    13    64    65    1
    14    65    67    1
    15    67    68    2
    16    67    69    1
    17    56    57    1
    18    57    58   am
    19    57    59    2
    20     2     3   ar
    21     3     4   ar
    22     4     5    1
    23     5     6    1
    24     6     7   ar
    25     7     8    1
    26     7     9   ar
    27     9    22    1
    28    22    23    1
    29    23    24    1
    30    24    25    2
    31    24    26   am
    32    26    28    1
    33    28    34    1
    34    34    35    1
    35    35    36    1
    36    36    37    1
    37    37    39    1
    38    39    40    2
    39    39    41    1
    40    28    29    1
    41    29    30   am
    42    29    31    2
    43     9    10   ar
    44    10    45    1
    45    45    46    1
    46    46    47    2
    47    47    48    1
    48    47    49    1
    49    10    11   ar
    50    11    12    1
    51    11    13   ar
    52    13    14    1
    53    14    15    2
    54    14    16    1
    55    16    17   ar
    56    17    73    1
    57    73    74    1
    58    74    75    2
    59    75    76    1
    60    75    77    1
    61    17     1   ar
    62    16     4   ar
    63    13     6   ar
    64    54    55    1
    65    65    66    1
    66    68    70    1
    67    69    71    1
    68    69    72    1
    69    58    60    1
    70    58    61    1
    71    26    27    1
    72    37    38    1
    73    40    42    1
    74    41    43    1
    75    41    44    1
    76    30    32    1
    77    30    33    1
    78    12    18    1
    79     5    19    1
@<TRIPOS>MOLECULE
*****
 77 79 0 0 0
SMALL
GASTEIGER

@<TRIPOS>ATOM
      1 C         -29.2784   47.1759   -9.0754 C.ar    1  UNL1        0.1694
      2 C         -29.6040   47.8134  -10.2970 C.ar    1  UNL1        0.1811
      3 C         -28.6972   48.7157  -10.8603 C.ar    1  UNL1        0.1358
      4 C         -27.5260   49.0639  -10.2035 C.ar    1  UNL1        0.2879
      5 O         -26.7324   49.9472  -10.7858 O.3     1  UNL1       -0.5464
      6 C         -25.6356   50.4359  -10.2277 C.ar    1  UNL1        0.2866
      7 C         -24.8703   51.3733  -10.9439 C.ar    1  UNL1        0.0996
      8 C         -25.2748   51.7530  -12.3487 C.3     1  UNL1        0.0431
      9 C         -23.7300   51.9427  -10.3457 C.ar    1  UNL1        0.1425
     10 C         -23.3680   51.5898   -9.0343 C.ar    1  UNL1        0.0501
     11 C         -24.1650   50.6904   -8.2974 C.ar    1  UNL1        0.1441
     12 O         -23.8555   50.5170   -6.9432 O.3     1  UNL1       -0.5053
     13 C         -25.2711   50.0437   -8.9211 C.ar    1  UNL1        0.1597
     14 C         -26.0331   49.0133   -8.3107 C.2     1  UNL1        0.2146
     15 O         -25.6650   48.5489   -7.2037 O.2     1  UNL1       -0.2859
     16 C         -27.1963   48.5005   -8.9532 C.ar    1  UNL1        0.1263
     17 C         -28.0518   47.4780   -8.4175 C.ar    1  UNL1        0.0304
     18 H         -24.5338   50.2755   -6.2346 H       1  UNL1        0.2922
     19 H         -26.9598   50.2449  -11.6446 H       1  UNL1        0.5634
     20 C         -31.3653   46.4908   -7.7973 C.3     1  UNL1        0.2526
     21 O         -30.1350   46.2345   -8.4656 O.3     1  UNL1       -0.4687
     22 O         -23.0018   52.9398  -11.0043 O.3     1  UNL1       -0.4659
     23 C         -21.7834   52.6930  -11.6990 C.3     1  UNL1        0.2893
     24 C         -20.7039   53.5868  -11.1659 C.2     1  UNL1        0.2673
     25 O         -19.5358   53.4858  -11.6294 O.2     1  UNL1       -0.2711
     26 N         -21.0112   54.6003  -10.1939 N.am    1  UNL1       -0.2953
     27 H         -21.9187   54.5344   -9.6818 H       1  UNL1        0.1499
     28 C         -20.0748   55.6746   -9.8398 C.3     1  UNL1        0.1485
     29 C         -20.7866   57.0001   -9.7204 C.2     1  UNL1        0.2372
     30 N         -20.0478   58.2196   -9.7848 N.am    1  UNL1       -0.3275
     31 O         -22.0305   57.0373   -9.5170 O.2     1  UNL1       -0.2736
     32 H         -20.5361   59.1372   -9.6871 H       1  UNL1        0.1450
     33 H         -19.0128   58.2091   -9.9225 H       1  UNL1        0.1450
     34 C         -19.3101   55.3346   -8.5404 C.3     1  UNL1        0.0325
     35 C         -19.5531   56.3432   -7.4001 C.3     1  UNL1        0.0450
     36 C         -18.2399   56.7450   -6.7218 C.3     1  UNL1        0.1740
     37 N         -18.4150   57.9659   -5.9334 N.pl3   1  UNL1       -0.2625
     38 H         -17.9939   58.0328   -4.9787 H       1  UNL1        0.2587
     39 C         -19.1309   59.1007   -6.4388 C.cat   1  UNL1        0.3769
     40 N         -18.8467   59.5862   -7.6064 N.pl3   1  UNL1       -0.1298
     41 N         -20.1571   59.7001   -5.6446 N.pl3   1  UNL1       -0.2892
     42 H         -19.3519   60.4136   -7.9950 H       1  UNL1        0.3062
     43 H         -20.4072   59.2968   -4.7152 H       1  UNL1        0.2546
     44 H         -20.6751   60.5419   -5.9817 H       1  UNL1        0.2546
     45 C         -22.1994   52.2885   -8.3723 C.3     1  UNL1        0.0578
     46 C         -20.8940   51.6739   -8.8152 C.2     1  UNL1       -0.0297
     47 C         -19.7357   51.8334   -8.1420 C.2     1  UNL1       -0.0475
     48 C         -19.6638   52.6546   -6.8767 C.3     1  UNL1        0.0260
     49 C         -18.4928   51.1694   -8.6751 C.3     1  UNL1        0.0260
     50 O         -30.8265   47.5358  -10.9327 O.3     1  UNL1       -0.4623
     51 C         -31.1373   46.3553  -11.6740 C.3     1  UNL1        0.2895
     52 C         -30.6047   46.4521  -13.0738 C.2     1  UNL1        0.2673
     53 O         -29.3956   46.1698  -13.2934 O.2     1  UNL1       -0.2711
     54 N         -31.4530   46.8983  -14.1429 N.am    1  UNL1       -0.2953
     55 H         -32.4723   47.0179  -13.9447 H       1  UNL1        0.1499
     56 C         -30.9709   47.0633  -15.5208 C.3     1  UNL1        0.1485
     57 C         -30.6528   45.7281  -16.1495 C.2     1  UNL1        0.2372
     58 N         -29.7501   45.6553  -17.2533 N.am    1  UNL1       -0.3275
     59 O         -31.1448   44.6652  -15.6828 O.2     1  UNL1       -0.2736
     60 H         -29.3026   46.5181  -17.6348 H       1  UNL1        0.1450
     61 H         -29.5143   44.7325  -17.6809 H       1  UNL1        0.1450
     62 C         -29.7614   48.0186  -15.5745 C.3     1  UNL1        0.0325
     63 C         -30.0350   49.3187  -16.3537 C.3     1  UNL1        0.0450
     64 C         -29.3849   49.3067  -17.7445 C.3     1  UNL1        0.1740
     65 N         -28.1703   48.4898  -17.7711 N.pl3   1  UNL1       -0.2625
     66 H         -28.2284   47.4759  -17.5232 H       1  UNL1        0.2587
     67 C         -26.8854   49.0260  -18.1320 C.cat   1  UNL1        0.3769
     68 N         -25.8166   48.3197  -17.9425 N.pl3   1  UNL1       -0.1298
     69 N         -26.7627   50.3263  -18.7169 N.pl3   1  UNL1       -0.2892
     70 H         -25.8544   47.3627  -17.5259 H       1  UNL1        0.3062
     71 H         -27.5933   50.9269  -18.9072 H       1  UNL1        0.2546
     72 H         -25.8224   50.6943  -18.9831 H       1  UNL1        0.2546
     73 C         -27.6925   46.6745   -7.1680 C.3     1  UNL1        0.0552
     74 C         -28.2227   47.3070   -5.8987 C.2     1  UNL1       -0.0298
     75 C         -27.6506   47.1997   -4.6786 C.2     1  UNL1       -0.0475
     76 C         -28.3263   47.8700   -3.5097 C.3     1  UNL1        0.0260
     77 C         -26.3778   46.4226   -4.4503 C.3     1  UNL1        0.0260
@<TRIPOS>BOND
     1    20    21    1
     2    21     1    1
     3     1     2   ar
     4     2    50    1
     5    50    51    1
     6    51    52    1
     7    52    53    2
     8    52    54   am
     9    54    56    1
    10    56    62    1
    11    62    63    1
    12    63    64    1
    13    64    65    1
    14    65    67    1
    15    67    68    2
    16    67    69    1
    17    56    57    1
    18    57    58   am
    19    57    59    2
    20     2     3   ar
    21     3     4   ar
    22     4     5    1
    23     5     6    1
    24     6     7   ar
    25     7     8    1
    26     7     9   ar
    27     9    22    1
    28    22    23    1
    29    23    24    1
    30    24    25    2
    31    24    26   am
    32    26    28    1
    33    28    34    1
    34    34    35    1
    35    35    36    1
    36    36    37    1
    37    37    39    1
    38    39    40    2
    39    39    41    1
    40    28    29    1
    41    29    30   am
    42    29    31    2
    43     9    10   ar
    44    10    45    1
    45    45    46    1
    46    46    47    2
    47    47    48    1
    48    47    49    1
    49    10    11   ar
    50    11    12    1
    51    11    13   ar
    52    13    14    1
    53    14    15    2
    54    14    16    1
    55    16    17   ar
    56    17    73    1
    57    73    74    1
    58    74    75    2
    59    75    76    1
    60    75    77    1
    61    17     1   ar
    62    16     4   ar
    63    13     6   ar
    64    54    55    1
    65    65    66    1
    66    68    70    1
    67    69    71    1
    68    69    72    1
    69    58    60    1
    70    58    61    1
    71    26    27    1
    72    37    38    1
    73    40    42    1
    74    41    43    1
    75    41    44    1
    76    30    32    1
    77    30    33    1
    78    12    18    1
    79     5    19    1
@<TRIPOS>MOLECULE
*****
 77 79 0 0 0
SMALL
GASTEIGER

@<TRIPOS>ATOM
      1 C         -29.0861   46.8960   -8.6206 C.ar    1  UNL1        0.1694
      2 C         -29.5030   47.5065   -9.8282 C.ar    1  UNL1        0.1811
      3 C         -28.6674   48.4415  -10.4457 C.ar    1  UNL1        0.1358
      4 C         -27.4796   48.8466   -9.8547 C.ar    1  UNL1        0.2879
      5 O         -26.7571   49.7574  -10.4851 O.3     1  UNL1       -0.5464
      6 C         -25.6549   50.2987   -9.9897 C.ar    1  UNL1        0.2866
      7 C         -24.9700   51.2610  -10.7527 C.ar    1  UNL1        0.0996
      8 C         -25.4641   51.6087  -12.1370 C.3     1  UNL1        0.0431
      9 C         -23.8257   51.8851  -10.2203 C.ar    1  UNL1        0.1425
     10 C         -23.3802   51.5613   -8.9272 C.ar    1  UNL1        0.0501
     11 C         -24.0972   50.6357   -8.1421 C.ar    1  UNL1        0.1441
     12 O         -23.7096   50.4895   -6.8050 O.3     1  UNL1       -0.5053
     13 C         -25.2053   49.9357   -8.7013 C.ar    1  UNL1        0.1597
     14 C         -25.8884   48.8794   -8.0434 C.2     1  UNL1        0.2146
     15 O         -25.4426   48.4425   -6.9539 O.2     1  UNL1       -0.2859
     16 C         -27.0603   48.3105   -8.6194 C.ar    1  UNL1        0.1263
     17 C         -27.8409   47.2574   -8.0311 C.ar    1  UNL1        0.0304
     18 H         -24.3384   50.2260   -6.0596 H       1  UNL1        0.2922
     19 H         -27.0422   50.0363  -11.3329 H       1  UNL1        0.5634
     20 C         -31.1195   46.1177   -7.3101 C.3     1  UNL1        0.2526
     21 O         -29.8675   45.9246   -7.9591 O.3     1  UNL1       -0.4687
     22 O         -23.1776   52.9061  -10.9243 O.3     1  UNL1       -0.4659
     23 C         -22.0269   52.6922  -11.7357 C.3     1  UNL1        0.2893
     24 C         -20.9520   53.6683  -11.3616 C.2     1  UNL1        0.2673
     25 O         -19.9778   53.8411  -12.1429 O.2     1  UNL1       -0.2711
     26 N         -21.0676   54.4558  -10.1646 N.am    1  UNL1       -0.2953
     27 H         -21.7607   54.1582   -9.4427 H       1  UNL1        0.1499
     28 C         -20.2042   55.6100   -9.8837 C.3     1  UNL1        0.1485
     29 C         -21.0051   56.8878   -9.8247 C.2     1  UNL1        0.2372
     30 N         -20.3438   58.1518   -9.8704 N.am    1  UNL1       -0.3275
     31 O         -22.2580   56.8467   -9.6882 O.2     1  UNL1       -0.2736
     32 H         -20.8947   59.0368   -9.8143 H       1  UNL1        0.1450
     33 H         -19.3044   58.2069   -9.9529 H       1  UNL1        0.1450
     34 C         -19.4021   55.3951   -8.5802 C.3     1  UNL1        0.0325
     35 C         -19.6677   56.4711   -7.5085 C.3     1  UNL1        0.0450
     36 C         -18.3688   56.9116   -6.8267 C.3     1  UNL1        0.1740
     37 N         -18.5755   58.1419   -6.0610 N.pl3   1  UNL1       -0.2625
     38 H         -18.3817   58.1533   -5.0335 H       1  UNL1        0.2587
     39 C         -19.0155   59.3577   -6.6807 C.cat   1  UNL1        0.3769
     40 N         -18.8011   59.5634   -7.9423 N.pl3   1  UNL1       -0.1298
     41 N         -19.6870   60.3473   -5.8978 N.pl3   1  UNL1       -0.2892
     42 H         -19.1093   60.4419   -8.4157 H       1  UNL1        0.3062
     43 H         -19.8850   60.1749   -4.8879 H       1  UNL1        0.2546
     44 H         -19.9948   61.2505   -6.3222 H       1  UNL1        0.2546
     45 C         -22.2100   52.3165   -8.3336 C.3     1  UNL1        0.0578
     46 C         -20.9039   51.7458   -8.8298 C.2     1  UNL1       -0.0297
     47 C         -19.7321   51.9082   -8.1810 C.2     1  UNL1       -0.0475
     48 C         -19.6447   52.6881   -6.8909 C.3     1  UNL1        0.0260
     49 C         -18.4897   51.2897   -8.7675 C.3     1  UNL1        0.0260
     50 O         -30.7440   47.1700  -10.3960 O.3     1  UNL1       -0.4623
     51 C         -30.9911   46.0816  -11.2870 C.3     1  UNL1        0.2895
     52 C         -30.5136   46.4101  -12.6714 C.2     1  UNL1        0.2673
     53 O         -29.2809   46.3458  -12.9288 O.2     1  UNL1       -0.2711
     54 N         -31.4460   46.8299  -13.6793 N.am    1  UNL1       -0.2953
     55 H         -32.4665   46.7664  -13.4622 H       1  UNL1        0.1499
     56 C         -31.0283   47.2151  -15.0341 C.3     1  UNL1        0.1485
     57 C         -30.4144   46.0467  -15.7670 C.2     1  UNL1        0.2372
     58 N         -29.8730   46.2292  -17.0754 N.am    1  UNL1       -0.3275
     59 O         -30.3358   44.9143  -15.2184 O.2     1  UNL1       -0.2736
     60 H         -29.8946   47.1659  -17.5364 H       1  UNL1        0.1450
     61 H         -29.4326   45.4280  -17.5798 H       1  UNL1        0.1450
     62 C         -30.0747   48.4265  -14.9969 C.3     1  UNL1        0.0325
     63 C         -30.7409   49.7223  -14.4974 C.3     1  UNL1        0.0450
     64 C         -30.1666   50.1857  -13.1511 C.3     1  UNL1        0.1740
     65 N         -30.5151   51.5775  -12.8603 N.pl3   1  UNL1       -0.2625
     66 H         -31.3902   51.9824  -13.2640 H       1  UNL1        0.2587
     67 C         -29.6990   52.4217  -12.0296 C.cat   1  UNL1        0.3769
     68 N         -28.7655   51.8987  -11.3002 N.pl3   1  UNL1       -0.1298
     69 N         -29.8858   53.8404  -12.0046 N.pl3   1  UNL1       -0.2892
     70 H         -28.5849   50.8701  -11.2894 H       1  UNL1        0.3062
     71 H         -30.6104   54.3123  -12.5867 H       1  UNL1        0.2546
     72 H         -29.2759   54.4384  -11.4039 H       1  UNL1        0.2546
     73 C         -27.3816   46.4828   -6.7963 C.3     1  UNL1        0.0552
     74 C         -27.8909   47.0910   -5.5067 C.2     1  UNL1       -0.0298
     75 C         -27.2839   46.9842   -4.3035 C.2     1  UNL1       -0.0475
     76 C         -27.9422   47.6281   -3.1101 C.3     1  UNL1        0.0260
     77 C         -25.9890   46.2328   -4.1174 C.3     1  UNL1        0.0260
@<TRIPOS>BOND
     1    20    21    1
     2    21     1    1
     3     1     2   ar
     4     2    50    1
     5    50    51    1
     6    51    52    1
     7    52    53    2
     8    52    54   am
     9    54    56    1
    10    56    62    1
    11    62    63    1
    12    63    64    1
    13    64    65    1
    14    65    67    1
    15    67    68    2
    16    67    69    1
    17    56    57    1
    18    57    58   am
    19    57    59    2
    20     2     3   ar
    21     3     4   ar
    22     4     5    1
    23     5     6    1
    24     6     7   ar
    25     7     8    1
    26     7     9   ar
    27     9    22    1
    28    22    23    1
    29    23    24    1
    30    24    25    2
    31    24    26   am
    32    26    28    1
    33    28    34    1
    34    34    35    1
    35    35    36    1
    36    36    37    1
    37    37    39    1
    38    39    40    2
    39    39    41    1
    40    28    29    1
    41    29    30   am
    42    29    31    2
    43     9    10   ar
    44    10    45    1
    45    45    46    1
    46    46    47    2
    47    47    48    1
    48    47    49    1
    49    10    11   ar
    50    11    12    1
    51    11    13   ar
    52    13    14    1
    53    14    15    2
    54    14    16    1
    55    16    17   ar
    56    17    73    1
    57    73    74    1
    58    74    75    2
    59    75    76    1
    60    75    77    1
    61    17     1   ar
    62    16     4   ar
    63    13     6   ar
    64    54    55    1
    65    65    66    1
    66    68    70    1
    67    69    71    1
    68    69    72    1
    69    58    60    1
    70    58    61    1
    71    26    27    1
    72    37    38    1
    73    40    42    1
    74    41    43    1
    75    41    44    1
    76    30    32    1
    77    30    33    1
    78    12    18    1
    79     5    19    1
@<TRIPOS>MOLECULE
*****
 77 79 0 0 0
SMALL
GASTEIGER

@<TRIPOS>ATOM
      1 C         -24.1447   51.7759  -11.4313 C.ar    1  UNL1        0.1694
      2 C         -25.2205   51.5071  -12.3117 C.ar    1  UNL1        0.1811
      3 C         -26.2855   50.7174  -11.8688 C.ar    1  UNL1        0.1358
      4 C         -26.2677   50.1215  -10.6162 C.ar    1  UNL1        0.2879
      5 O         -27.2981   49.3638  -10.2798 O.3     1  UNL1       -0.5464
      6 C         -27.3655   48.6642   -9.1577 C.ar    1  UNL1        0.2866
      7 C         -28.5137   47.8916   -8.9083 C.ar    1  UNL1        0.0996
      8 C         -29.6649   47.9248   -9.8855 C.3     1  UNL1        0.0431
      9 C         -28.5807   47.1007   -7.7454 C.ar    1  UNL1        0.1425
     10 C         -27.4997   47.0694   -6.8477 C.ar    1  UNL1        0.0501
     11 C         -26.3279   47.8025   -7.1244 C.ar    1  UNL1        0.1441
     12 O         -25.2244   47.5913   -6.2893 O.3     1  UNL1       -0.5053
     13 C         -26.2818   48.6719   -8.2525 C.ar    1  UNL1        0.1597
     14 C         -25.2093   49.5614   -8.5234 C.2     1  UNL1        0.2146
     15 O         -24.2885   49.6905   -7.6795 O.2     1  UNL1       -0.2859
     16 C         -25.1837   50.3113   -9.7342 C.ar    1  UNL1        0.1263
     17 C         -24.1396   51.2199  -10.1200 C.ar    1  UNL1        0.0304
     18 H         -24.2639   47.6897   -6.5858 H       1  UNL1        0.2922
     19 H         -28.0238   49.3195  -10.8709 H       1  UNL1        0.5634
     20 C         -22.9628   54.0058  -11.7292 C.3     1  UNL1        0.2526
     21 O         -23.0516   52.5871  -11.8038 O.3     1  UNL1       -0.4687
     22 O         -29.6747   46.2583   -7.5180 O.3     1  UNL1       -0.4659
     23 C         -30.9402   46.7220   -7.0577 C.3     1  UNL1        0.2893
     24 C         -30.7614   47.9758   -6.2550 C.2     1  UNL1        0.2673
     25 O         -31.1504   49.0749   -6.7345 O.2     1  UNL1       -0.2711
     26 N         -30.2245   47.9175   -4.9228 N.am    1  UNL1       -0.2953
     27 H         -29.7282   47.0474   -4.6281 H       1  UNL1        0.1499
     28 C         -30.2786   49.0516   -3.9916 C.3     1  UNL1        0.1485
     29 C         -31.1271   48.7268   -2.7865 C.2     1  UNL1        0.2372
     30 N         -31.5827   47.3918   -2.5686 N.am    1  UNL1       -0.3275
     31 O         -31.4768   49.6403   -1.9907 O.2     1  UNL1       -0.2736
     32 H         -32.1824   47.1679   -1.7438 H       1  UNL1        0.1450
     33 H         -31.3289   46.6270   -3.2325 H       1  UNL1        0.1450
     34 C         -28.8572   49.4884   -3.5702 C.3     1  UNL1        0.0325
     35 C         -28.0729   50.1991   -4.6911 C.3     1  UNL1        0.0450
     36 C         -28.8971   51.3268   -5.3197 C.3     1  UNL1        0.1740
     37 N         -29.1060   51.0833   -6.7479 N.pl3   1  UNL1       -0.2625
     38 H         -29.8798   50.4529   -7.0598 H       1  UNL1        0.2587
     39 C         -28.2939   51.7065   -7.7518 C.cat   1  UNL1        0.3769
     40 N         -28.6502   51.6688   -8.9974 N.pl3   1  UNL1       -0.1298
     41 N         -27.0831   52.3651   -7.3731 N.pl3   1  UNL1       -0.2892
     42 H         -28.0744   52.1127   -9.7471 H       1  UNL1        0.3062
     43 H         -26.8055   52.4206   -6.3687 H       1  UNL1        0.2546
     44 H         -26.4636   52.8048   -8.0896 H       1  UNL1        0.2546
     45 C         -27.5490   46.1351   -5.6574 C.3     1  UNL1        0.0578
     46 C         -26.5644   46.5711   -4.5998 C.2     1  UNL1       -0.0297
     47 C         -25.9497   45.7103   -3.7623 C.2     1  UNL1       -0.0475
     48 C         -26.2104   44.2243   -3.8252 C.3     1  UNL1        0.0260
     49 C         -24.9808   46.2580   -2.7468 C.3     1  UNL1        0.0260
     50 O         -25.2128   52.0334  -13.6150 O.3     1  UNL1       -0.4623
     51 C         -26.3518   52.1934  -14.4616 C.3     1  UNL1        0.2895
     52 C         -26.3172   51.2047  -15.5902 C.2     1  UNL1        0.2673
     53 O         -25.2501   51.0552  -16.2451 O.2     1  UNL1       -0.2711
     54 N         -27.4969   50.4667  -15.9439 N.am    1  UNL1       -0.2953
     55 H         -28.3276   50.5356  -15.3132 H       1  UNL1        0.1499
     56 C         -27.5351   49.5268  -17.0723 C.3     1  UNL1        0.1485
     57 C         -26.4280   49.8144  -18.0577 C.2     1  UNL1        0.2372
     58 N         -25.2604   48.9929  -18.0799 N.am    1  UNL1       -0.3275
     59 O         -26.5403   50.7508  -18.8943 O.2     1  UNL1       -0.2736
     60 H         -25.1601   48.1896  -17.4204 H       1  UNL1        0.1450
     61 H         -24.4994   49.1777  -18.7704 H       1  UNL1        0.1450
     62 C         -28.9183   49.5349  -17.7542 C.3     1  UNL1        0.0325
     63 C         -29.3958   48.1399  -18.1996 C.3     1  UNL1        0.0450
     64 C         -30.7314   47.7513  -17.5496 C.3     1  UNL1        0.1740
     65 N         -31.0227   46.3260  -17.7137 N.pl3   1  UNL1       -0.2625
     66 H         -31.9529   46.0324  -18.0898 H       1  UNL1        0.2587
     67 C         -30.0724   45.2991  -17.3806 C.cat   1  UNL1        0.3769
     68 N         -30.0260   44.8316  -16.1737 N.pl3   1  UNL1       -0.1298
     69 N         -29.1817   44.7657  -18.3656 N.pl3   1  UNL1       -0.2892
     70 H         -30.6598   45.1826  -15.4214 H       1  UNL1        0.3062
     71 H         -29.1916   45.0944  -19.3548 H       1  UNL1        0.2546
     72 H         -28.5063   44.0122  -18.1077 H       1  UNL1        0.2546
     73 C         -23.0189   51.6386   -9.1689 C.3     1  UNL1        0.0552
     74 C         -21.6580   51.6221   -9.8323 C.2     1  UNL1       -0.0298
     75 C         -20.5258   52.1313   -9.2973 C.2     1  UNL1       -0.0475
     76 C         -19.2560   52.0579  -10.1062 C.3     1  UNL1        0.0260
     77 C         -20.4982   52.7799   -7.9354 C.3     1  UNL1        0.0260
@<TRIPOS>BOND
     1    20    21    1
     2    21     1    1
     3     1     2   ar
     4     2    50    1
     5    50    51    1
     6    51    52    1
     7    52    53    2
     8    52    54   am
     9    54    56    1
    10    56    62    1
    11    62    63    1
    12    63    64    1
    13    64    65    1
    14    65    67    1
    15    67    68    2
    16    67    69    1
    17    56    57    1
    18    57    58   am
    19    57    59    2
    20     2     3   ar
    21     3     4   ar
    22     4     5    1
    23     5     6    1
    24     6     7   ar
    25     7     8    1
    26     7     9   ar
    27     9    22    1
    28    22    23    1
    29    23    24    1
    30    24    25    2
    31    24    26   am
    32    26    28    1
    33    28    34    1
    34    34    35    1
    35    35    36    1
    36    36    37    1
    37    37    39    1
    38    39    40    2
    39    39    41    1
    40    28    29    1
    41    29    30   am
    42    29    31    2
    43     9    10   ar
    44    10    45    1
    45    45    46    1
    46    46    47    2
    47    47    48    1
    48    47    49    1
    49    10    11   ar
    50    11    12    1
    51    11    13   ar
    52    13    14    1
    53    14    15    2
    54    14    16    1
    55    16    17   ar
    56    17    73    1
    57    73    74    1
    58    74    75    2
    59    75    76    1
    60    75    77    1
    61    17     1   ar
    62    16     4   ar
    63    13     6   ar
    64    54    55    1
    65    65    66    1
    66    68    70    1
    67    69    71    1
    68    69    72    1
    69    58    60    1
    70    58    61    1
    71    26    27    1
    72    37    38    1
    73    40    42    1
    74    41    43    1
    75    41    44    1
    76    30    32    1
    77    30    33    1
    78    12    18    1
    79     5    19    1
@<TRIPOS>MOLECULE
*****
 77 79 0 0 0
SMALL
GASTEIGER

@<TRIPOS>ATOM
      1 C         -27.1809   48.7432   -5.0637 C.ar    1  UNL1        0.1694
      2 C         -26.9264   47.3831   -5.3642 C.ar    1  UNL1        0.1811
      3 C         -27.2792   46.8830   -6.6209 C.ar    1  UNL1        0.1358
      4 C         -27.9513   47.6687   -7.5457 C.ar    1  UNL1        0.2879
      5 O         -28.2780   47.1160   -8.7019 O.3     1  UNL1       -0.5464
      6 C         -28.9998   47.7214   -9.6324 C.ar    1  UNL1        0.2866
      7 C         -29.2862   47.0315  -10.8237 C.ar    1  UNL1        0.0996
      8 C         -28.7165   45.6502  -11.0443 C.3     1  UNL1        0.0431
      9 C         -30.0958   47.6396  -11.8021 C.ar    1  UNL1        0.1425
     10 C         -30.6290   48.9214  -11.5825 C.ar    1  UNL1        0.0501
     11 C         -30.3854   49.5909  -10.3661 C.ar    1  UNL1        0.1441
     12 O         -31.0863   50.7803  -10.1346 O.3     1  UNL1       -0.5053
     13 C         -29.4991   49.0226   -9.4058 C.ar    1  UNL1        0.1597
     14 C         -29.0740   49.6906   -8.2277 C.2     1  UNL1        0.2146
     15 O         -29.3929   50.8924   -8.0524 O.2     1  UNL1       -0.2859
     16 C         -28.2816   49.0097   -7.2596 C.ar    1  UNL1        0.1263
     17 C         -27.8170   49.5796   -6.0251 C.ar    1  UNL1        0.0304
     18 H         -31.3406   51.1173   -9.2169 H       1  UNL1        0.2922
     19 H         -27.9811   46.2439   -8.8727 H       1  UNL1        0.5634
     20 C         -25.7730   50.2436   -3.5721 C.3     1  UNL1        0.2526
     21 O         -26.8259   49.3199   -3.8254 O.3     1  UNL1       -0.4687
     22 O         -30.4651   46.9411  -12.9570 O.3     1  UNL1       -0.4659
     23 C         -29.5387   46.5377  -13.9606 C.3     1  UNL1        0.2893
     24 C         -30.1115   46.8076  -15.3198 C.2     1  UNL1        0.2673
     25 O         -30.7695   45.9033  -15.9016 O.2     1  UNL1       -0.2711
     26 N         -29.9797   48.1068  -15.9209 N.am    1  UNL1       -0.2953
     27 H         -29.2717   48.7643  -15.5254 H       1  UNL1        0.1499
     28 C         -30.7415   48.5166  -17.1075 C.3     1  UNL1        0.1485
     29 C         -31.0975   49.9820  -17.0468 C.2     1  UNL1        0.2372
     30 N         -31.2485   50.7341  -18.2505 N.am    1  UNL1       -0.3275
     31 O         -31.2182   50.5610  -15.9332 O.2     1  UNL1       -0.2736
     32 H         -31.4797   51.7514  -18.2105 H       1  UNL1        0.1450
     33 H         -31.1229   50.2798  -19.1822 H       1  UNL1        0.1450
     34 C         -29.9663   48.1853  -18.4029 C.3     1  UNL1        0.0325
     35 C         -28.4480   48.4288  -18.2921 C.3     1  UNL1        0.0450
     36 C         -28.1077   49.9129  -18.4585 C.3     1  UNL1        0.1740
     37 N         -26.6925   50.0871  -18.7897 N.pl3   1  UNL1       -0.2625
     38 H         -26.4138   50.3302  -19.7678 H       1  UNL1        0.2587
     39 C         -25.6600   49.9608  -17.8029 C.cat   1  UNL1        0.3769
     40 N         -25.7602   50.5801  -16.6687 N.pl3   1  UNL1       -0.1298
     41 N         -24.5137   49.1527  -18.0786 N.pl3   1  UNL1       -0.2892
     42 H         -25.0203   50.5061  -15.9353 H       1  UNL1        0.3062
     43 H         -24.4410   48.6315  -18.9798 H       1  UNL1        0.2546
     44 H         -23.7381   49.0655  -17.3849 H       1  UNL1        0.2546
     45 C         -31.5794   49.5154  -12.6004 C.3     1  UNL1        0.0578
     46 C         -31.5704   51.0223  -12.5183 C.2     1  UNL1       -0.0297
     47 C         -30.4804   51.7709  -12.7865 C.2     1  UNL1       -0.0475
     48 C         -29.1697   51.1409  -13.1931 C.3     1  UNL1        0.0260
     49 C         -30.5882   53.2696  -12.6760 C.3     1  UNL1        0.0260
     50 O         -26.3232   46.5506   -4.4057 O.3     1  UNL1       -0.4623
     51 C         -26.7829   45.2579   -4.0093 C.3     1  UNL1        0.2895
     52 C         -28.2103   45.0518   -4.4246 C.2     1  UNL1        0.2673
     53 O         -28.4850   44.1424   -5.2537 O.2     1  UNL1       -0.2711
     54 N         -29.2447   45.9059   -3.9127 N.am    1  UNL1       -0.2953
     55 H         -28.9971   46.5743   -3.1482 H       1  UNL1        0.1499
     56 C         -30.6493   45.7843   -4.3257 C.3     1  UNL1        0.1485
     57 C         -30.7999   45.9998   -5.8123 C.2     1  UNL1        0.2372
     58 N         -30.7803   44.8829   -6.7015 N.am    1  UNL1       -0.3275
     59 O         -30.9858   47.1567   -6.2778 O.2     1  UNL1       -0.2736
     60 H         -30.6631   43.9117   -6.3363 H       1  UNL1        0.1450
     61 H         -30.9005   45.0253   -7.7288 H       1  UNL1        0.1450
     62 C         -31.5493   46.7423   -3.5191 C.3     1  UNL1        0.0325
     63 C         -30.8492   48.0525   -3.1123 C.3     1  UNL1        0.0450
     64 C         -31.1851   48.4644   -1.6720 C.3     1  UNL1        0.1740
     65 N         -30.2503   47.8830   -0.7070 N.pl3   1  UNL1       -0.2625
     66 H         -30.5332   47.8009    0.2960 H       1  UNL1        0.2587
     67 C         -28.9452   47.4097   -1.0832 C.cat   1  UNL1        0.3769
     68 N         -28.6882   46.1406   -1.0571 N.pl3   1  UNL1       -0.1298
     69 N         -27.9216   48.3160   -1.5061 N.pl3   1  UNL1       -0.2892
     70 H         -29.4036   45.4388   -0.7632 H       1  UNL1        0.3062
     71 H         -28.0833   49.3443   -1.5625 H       1  UNL1        0.2546
     72 H         -26.9836   47.9527   -1.7866 H       1  UNL1        0.2546
     73 C         -27.9582   51.0661   -5.6994 C.3     1  UNL1        0.0552
     74 C         -28.9971   51.3300   -4.6301 C.2     1  UNL1       -0.0298
     75 C         -30.3323   51.3740   -4.8370 C.2     1  UNL1       -0.0475
     76 C         -31.2287   51.6786   -3.6640 C.3     1  UNL1        0.0260
     77 C         -30.9456   51.1466   -6.1965 C.3     1  UNL1        0.0260
@<TRIPOS>BOND
     1    20    21    1
     2    21     1    1
     3     1     2   ar
     4     2    50    1
     5    50    51    1
     6    51    52    1
     7    52    53    2
     8    52    54   am
     9    54    56    1
    10    56    62    1
    11    62    63    1
    12    63    64    1
    13    64    65    1
    14    65    67    1
    15    67    68    2
    16    67    69    1
    17    56    57    1
    18    57    58   am
    19    57    59    2
    20     2     3   ar
    21     3     4   ar
    22     4     5    1
    23     5     6    1
    24     6     7   ar
    25     7     8    1
    26     7     9   ar
    27     9    22    1
    28    22    23    1
    29    23    24    1
    30    24    25    2
    31    24    26   am
    32    26    28    1
    33    28    34    1
    34    34    35    1
    35    35    36    1
    36    36    37    1
    37    37    39    1
    38    39    40    2
    39    39    41    1
    40    28    29    1
    41    29    30   am
    42    29    31    2
    43     9    10   ar
    44    10    45    1
    45    45    46    1
    46    46    47    2
    47    47    48    1
    48    47    49    1
    49    10    11   ar
    50    11    12    1
    51    11    13   ar
    52    13    14    1
    53    14    15    2
    54    14    16    1
    55    16    17   ar
    56    17    73    1
    57    73    74    1
    58    74    75    2
    59    75    76    1
    60    75    77    1
    61    17     1   ar
    62    16     4   ar
    63    13     6   ar
    64    54    55    1
    65    65    66    1
    66    68    70    1
    67    69    71    1
    68    69    72    1
    69    58    60    1
    70    58    61    1
    71    26    27    1
    72    37    38    1
    73    40    42    1
    74    41    43    1
    75    41    44    1
    76    30    32    1
    77    30    33    1
    78    12    18    1
    79     5    19    1
