@<TRIPOS>MOLECULE
*****
 50 55 0 0 0
SMALL
GASTEIGER

@<TRIPOS>ATOM
      1 O          60.6527   86.8900   13.3900 O.2     1  UNL1       -0.2701
      2 C          61.2924   86.4542   12.3934 C.2     1  UNL1        0.2483
      3 N          62.3351   85.4849   12.5898 N.am    1  UNL1       -0.2945
      4 H          62.6801   84.9614   11.7555 H       1  UNL1        0.1501
      5 C          60.9328   86.9381   11.0361 C.ar    1  UNL1        0.0808
      6 C          59.9234   86.2745   10.3162 C.ar    1  UNL1        0.0080
      7 C          59.5505   86.7107    9.0429 C.ar    1  UNL1        0.0148
      8 C          60.1700   87.8277    8.4645 C.ar    1  UNL1        0.0502
      9 C          61.1724   88.4987    9.1795 C.ar    1  UNL1        0.0443
     10 C          61.5511   88.0659   10.4542 C.ar    1  UNL1        0.1457
     11 F          62.4845   88.7865   11.1242 F       1  UNL1       -0.2040
     12 N          59.7905   88.2717    7.1486 N.pl3   1  UNL1       -0.3040
     13 C          60.1731   87.5012    5.9608 C.3     1  UNL1        0.1123
     14 C          60.8712   88.4233    4.9600 C.3     1  UNL1        0.1136
     15 N          60.0997   89.6593    4.7306 N.pl3   1  UNL1       -0.2897
     16 C          58.8762   89.9109    5.5121 C.3     1  UNL1        0.1136
     17 C          59.0858   89.5519    6.9903 C.3     1  UNL1        0.1123
     18 C          60.4300   90.5254    3.6198 C.ar    1  UNL1        0.1318
     19 C          59.4620   91.3501    3.0193 C.ar    1  UNL1        0.0343
     20 C          59.8213   92.1740    1.9515 C.ar    1  UNL1        0.0083
     21 C          61.1447   92.1960    1.4886 C.ar    1  UNL1        0.0906
     22 C          62.0754   91.3386    2.0936 C.ar    1  UNL1        0.1041
     23 N          61.7023   90.5437    3.1309 N.ar    1  UNL1       -0.2292
     24 C          61.5331   93.0433    0.3040 C.3     1  UNL1        0.4200
     25 F          60.4757   93.8446   -0.0908 F       1  UNL1       -0.1658
     26 F          62.6028   93.8473    0.6505 F       1  UNL1       -0.1658
     27 F          61.8963   92.2462   -0.7679 F       1  UNL1       -0.1658
     28 C          62.7934   85.0881   13.9304 C.3     1  UNL1        0.1535
     29 C          63.2089   86.2910   14.7492 C.2     1  UNL1        0.2443
     30 O          63.3569   86.1795   15.9967 O.2     1  UNL1       -0.2730
     31 N          63.4382   87.5523   14.0954 N.am    1  UNL1       -0.2825
     32 H          63.2315   87.6070   13.0722 H       1  UNL1        0.1549
     33 C          63.7405   88.7867   14.7720 C.ar    1  UNL1        0.0535
     34 C          62.9326   89.2880   15.8081 C.ar    1  UNL1        0.0353
     35 C          63.2885   90.4790   16.4462 C.ar    1  UNL1        0.1002
     36 N          64.4159   91.1418   16.0770 N.ar    1  UNL1       -0.2422
     37 C          65.2257   90.6728   15.0918 C.ar    1  UNL1        0.1002
     38 C          64.9075   89.4851   14.4293 C.ar    1  UNL1        0.0353
     39 C          61.7346   84.2374   14.6670 C.3     1  UNL1        0.0573
     40 C          61.2874   83.0273   13.8880 C.ar    1  UNL1        0.0034
     41 C          61.9489   81.8041   13.7692 C.ar    1  UNL1        0.0879
     42 BR         63.6845   81.3882   14.4518 Br      1  UNL1       -0.0305
     43 N          61.2327   80.9442   13.0108 N.ar    1  UNL1       -0.3483
     44 C          60.1308   81.6136   12.6337 C.ar    1  UNL1        0.0567
     45 C          59.1035   81.1493   11.8132 C.ar    1  UNL1        0.0170
     46 C          58.0567   82.0361   11.5035 C.ar    1  UNL1        0.0015
     47 C          58.0688   83.3574   12.0005 C.ar    1  UNL1        0.0001
     48 C          59.1227   83.8008   12.8192 C.ar    1  UNL1        0.0012
     49 C          60.1332   82.8907   13.1360 C.ar    1  UNL1        0.0136
     50 H          61.5004   79.9703   12.7453 H       1  UNL1        0.1664
@<TRIPOS>BOND
     1     1     2    2
     2     2     3   am
     3     3    28    1
     4    28    39    1
     5    39    40    1
     6    40    41   ar
     7    41    42    1
     8    41    43   ar
     9    43    44   ar
    10    44    45   ar
    11    45    46   ar
    12    46    47   ar
    13    47    48   ar
    14    48    49   ar
    15    28    29    1
    16    29    30    2
    17    29    31   am
    18    31    33    1
    19    33    34   ar
    20    34    35   ar
    21    35    36   ar
    22    36    37   ar
    23    37    38   ar
    24     2     5    1
    25     5     6   ar
    26     6     7   ar
    27     7     8   ar
    28     8    12    1
    29    12    13    1
    30    13    14    1
    31    14    15    1
    32    15    18    1
    33    18    19   ar
    34    19    20   ar
    35    20    21   ar
    36    21    24    1
    37    24    25    1
    38    24    26    1
    39    24    27    1
    40    21    22   ar
    41    22    23   ar
    42    15    16    1
    43    16    17    1
    44     8     9   ar
    45     9    10   ar
    46    10    11    1
    47    49    40   ar
    48    38    33   ar
    49    10     5   ar
    50    49    44   ar
    51    17    12    1
    52    23    18   ar
    53     3     4    1
    54    43    50    1
    55    31    32    1
@<TRIPOS>MOLECULE
*****
 50 55 0 0 0
SMALL
GASTEIGER

@<TRIPOS>ATOM
      1 O          57.7974   83.4811   13.9078 O.2     1  UNL1       -0.2701
      2 C          58.8922   83.5735   13.2871 C.2     1  UNL1        0.2483
      3 N          59.3182   82.4949   12.4383 N.am    1  UNL1       -0.2945
      4 H          60.0846   82.6830   11.7552 H       1  UNL1        0.1501
      5 C          59.7026   84.8097   13.4314 C.ar    1  UNL1        0.0808
      6 C          59.8383   85.3966   14.7021 C.ar    1  UNL1        0.0080
      7 C          60.6039   86.5516   14.8767 C.ar    1  UNL1        0.0148
      8 C          61.2614   87.1399   13.7870 C.ar    1  UNL1        0.0502
      9 C          61.1365   86.5560   12.5182 C.ar    1  UNL1        0.0443
     10 C          60.3702   85.4004   12.3369 C.ar    1  UNL1        0.1457
     11 F          60.3313   84.8452   11.1001 F       1  UNL1       -0.2040
     12 N          62.0438   88.3350   13.9665 N.pl3   1  UNL1       -0.3040
     13 C          62.5487   89.0787   12.8076 C.3     1  UNL1        0.1123
     14 C          64.0555   89.2924   12.9580 C.3     1  UNL1        0.1136
     15 N          64.3985   89.8246   14.2901 N.pl3   1  UNL1       -0.2897
     16 C          63.3426   89.9849   15.3052 C.3     1  UNL1        0.1136
     17 C          62.4094   88.7655   15.3235 C.3     1  UNL1        0.1123
     18 C          65.7180   90.3633   14.5388 C.ar    1  UNL1        0.1318
     19 C          66.7434   90.2641   13.5816 C.ar    1  UNL1        0.0343
     20 C          68.0023   90.7995   13.8585 C.ar    1  UNL1        0.0083
     21 C          68.2422   91.4507   15.0769 C.ar    1  UNL1        0.0906
     22 C          67.2036   91.5046   16.0181 C.ar    1  UNL1        0.1041
     23 N          65.9864   90.9747   15.7272 N.ar    1  UNL1       -0.2292
     24 C          69.6113   91.9878   15.4076 C.3     1  UNL1        0.4200
     25 F          69.5277   93.2944   15.8568 F       1  UNL1       -0.1658
     26 F          70.1800   91.2069   16.3963 F       1  UNL1       -0.1658
     27 F          70.4272   91.9654   14.2897 F       1  UNL1       -0.1658
     28 C          58.5984   81.2131   12.3794 C.3     1  UNL1        0.1535
     29 C          58.3218   80.8015   10.9496 C.2     1  UNL1        0.2443
     30 O          57.5349   79.8447   10.7137 O.2     1  UNL1       -0.2730
     31 N          58.9550   81.5110    9.8696 N.am    1  UNL1       -0.2825
     32 H          59.6525   82.2473   10.1228 H       1  UNL1        0.1549
     33 C          58.8499   81.1556    8.4783 C.ar    1  UNL1        0.0535
     34 C          59.9180   81.3287    7.5802 C.ar    1  UNL1        0.0353
     35 C          59.7673   80.9427    6.2458 C.ar    1  UNL1        0.1002
     36 N          58.6003   80.3908    5.8216 N.ar    1  UNL1       -0.2422
     37 C          57.5571   80.1945    6.6699 C.ar    1  UNL1        0.1002
     38 C          57.6663   80.5649    8.0121 C.ar    1  UNL1        0.0353
     39 C          59.3431   80.1042   13.1561 C.3     1  UNL1        0.0573
     40 C          60.8327   80.1071   12.9281 C.ar    1  UNL1        0.0034
     41 C          61.5483   79.3569   11.9937 C.ar    1  UNL1        0.0879
     42 BR         60.8349   78.0073   10.8444 Br      1  UNL1       -0.0305
     43 N          62.8681   79.6420   12.0604 N.ar    1  UNL1       -0.3483
     44 C          63.0003   80.5537   13.0381 C.ar    1  UNL1        0.0567
     45 C          64.1840   81.1304   13.4969 C.ar    1  UNL1        0.0170
     46 C          64.1024   82.0359   14.5699 C.ar    1  UNL1        0.0015
     47 C          62.8560   82.3279   15.1653 C.ar    1  UNL1        0.0001
     48 C          61.6793   81.7245   14.6870 C.ar    1  UNL1        0.0012
     49 C          61.7850   80.8532   13.6010 C.ar    1  UNL1        0.0136
     50 H          63.6313   79.2138   11.4905 H       1  UNL1        0.1664
@<TRIPOS>BOND
     1     1     2    2
     2     2     3   am
     3     3    28    1
     4    28    39    1
     5    39    40    1
     6    40    41   ar
     7    41    42    1
     8    41    43   ar
     9    43    44   ar
    10    44    45   ar
    11    45    46   ar
    12    46    47   ar
    13    47    48   ar
    14    48    49   ar
    15    28    29    1
    16    29    30    2
    17    29    31   am
    18    31    33    1
    19    33    34   ar
    20    34    35   ar
    21    35    36   ar
    22    36    37   ar
    23    37    38   ar
    24     2     5    1
    25     5     6   ar
    26     6     7   ar
    27     7     8   ar
    28     8    12    1
    29    12    13    1
    30    13    14    1
    31    14    15    1
    32    15    18    1
    33    18    19   ar
    34    19    20   ar
    35    20    21   ar
    36    21    24    1
    37    24    25    1
    38    24    26    1
    39    24    27    1
    40    21    22   ar
    41    22    23   ar
    42    15    16    1
    43    16    17    1
    44     8     9   ar
    45     9    10   ar
    46    10    11    1
    47    49    40   ar
    48    38    33   ar
    49    10     5   ar
    50    49    44   ar
    51    17    12    1
    52    23    18   ar
    53     3     4    1
    54    43    50    1
    55    31    32    1
@<TRIPOS>MOLECULE
*****
 50 55 0 0 0
SMALL
GASTEIGER

@<TRIPOS>ATOM
      1 O          60.4863   86.3230   13.0280 O.2     1  UNL1       -0.2701
      2 C          60.2335   85.6071   12.0200 C.2     1  UNL1        0.2483
      3 N          60.1349   84.1814   12.1709 N.am    1  UNL1       -0.2945
      4 H          59.6922   83.6369   11.3983 H       1  UNL1        0.1501
      5 C          60.0196   86.2616   10.7041 C.ar    1  UNL1        0.0808
      6 C          60.4579   87.5846   10.5165 C.ar    1  UNL1        0.0080
      7 C          60.2851   88.2263    9.2881 C.ar    1  UNL1        0.0148
      8 C          59.6807   87.5562    8.2150 C.ar    1  UNL1        0.0502
      9 C          59.2477   86.2343    8.3926 C.ar    1  UNL1        0.0443
     10 C          59.4166   85.5870    9.6206 C.ar    1  UNL1        0.1457
     11 F          59.0323   84.2901    9.7191 F       1  UNL1       -0.2040
     12 N          59.4958   88.2211    6.9515 N.pl3   1  UNL1       -0.3040
     13 C          59.7104   87.5032    5.6908 C.3     1  UNL1        0.1123
     14 C          60.6764   88.2983    4.8112 C.3     1  UNL1        0.1136
     15 N          60.2784   89.7149    4.7101 N.pl3   1  UNL1       -0.2897
     16 C          59.1336   90.2085    5.4955 C.3     1  UNL1        0.1136
     17 C          59.1707   89.6544    6.9270 C.3     1  UNL1        0.1123
     18 C          60.8806   90.5683    3.7090 C.ar    1  UNL1        0.1318
     19 C          60.1009   91.4170    2.9030 C.ar    1  UNL1        0.0343
     20 C          60.7202   92.2275    1.9504 C.ar    1  UNL1        0.0083
     21 C          62.1150   92.2124    1.8073 C.ar    1  UNL1        0.0906
     22 C          62.8565   91.3320    2.6089 C.ar    1  UNL1        0.1041
     23 N          62.2316   90.5508    3.5287 N.ar    1  UNL1       -0.2292
     24 C          62.7904   93.0453    0.7478 C.3     1  UNL1        0.4200
     25 F          61.8694   93.8476    0.0968 F       1  UNL1       -0.1658
     26 F          63.7473   93.8476    1.3407 F       1  UNL1       -0.1658
     27 F          63.4013   92.2352   -0.1938 F       1  UNL1       -0.1658
     28 C          60.4676   83.5022   13.4329 C.3     1  UNL1        0.1535
     29 C          60.1418   82.0258   13.3666 C.2     1  UNL1        0.2443
     30 O          60.7855   81.2091   14.0802 O.2     1  UNL1       -0.2730
     31 N          59.0943   81.5666   12.4934 N.am    1  UNL1       -0.2825
     32 H          58.6425   82.2752   11.8718 H       1  UNL1        0.1549
     33 C          58.7566   80.1849   12.2693 C.ar    1  UNL1        0.0535
     34 C          58.2350   79.7325   11.0443 C.ar    1  UNL1        0.0353
     35 C          57.9487   78.3755   10.8750 C.ar    1  UNL1        0.1002
     36 N          58.1856   77.4960   11.8835 N.ar    1  UNL1       -0.2422
     37 C          58.7056   77.9005   13.0719 C.ar    1  UNL1        0.1002
     38 C          59.0075   79.2479   13.2822 C.ar    1  UNL1        0.0353
     39 C          61.9389   83.7418   13.8393 C.3     1  UNL1        0.0573
     40 C          62.9289   82.9987   12.9799 C.ar    1  UNL1        0.0034
     41 C          63.8637   82.0482   13.3929 C.ar    1  UNL1        0.0879
     42 BR         64.2361   81.5406   15.1971 Br      1  UNL1       -0.0305
     43 N          64.5638   81.5752   12.3377 N.ar    1  UNL1       -0.3483
     44 C          64.0945   82.2269   11.2608 C.ar    1  UNL1        0.0567
     45 C          64.5313   82.0986    9.9429 C.ar    1  UNL1        0.0170
     46 C          63.9306   82.9151    8.9679 C.ar    1  UNL1        0.0015
     47 C          62.9308   83.8435    9.3307 C.ar    1  UNL1        0.0001
     48 C          62.5161   83.9571   10.6695 C.ar    1  UNL1        0.0012
     49 C          63.1072   83.1131   11.6118 C.ar    1  UNL1        0.0136
     50 H          65.3355   80.8719   12.3621 H       1  UNL1        0.1664
@<TRIPOS>BOND
     1     1     2    2
     2     2     3   am
     3     3    28    1
     4    28    39    1
     5    39    40    1
     6    40    41   ar
     7    41    42    1
     8    41    43   ar
     9    43    44   ar
    10    44    45   ar
    11    45    46   ar
    12    46    47   ar
    13    47    48   ar
    14    48    49   ar
    15    28    29    1
    16    29    30    2
    17    29    31   am
    18    31    33    1
    19    33    34   ar
    20    34    35   ar
    21    35    36   ar
    22    36    37   ar
    23    37    38   ar
    24     2     5    1
    25     5     6   ar
    26     6     7   ar
    27     7     8   ar
    28     8    12    1
    29    12    13    1
    30    13    14    1
    31    14    15    1
    32    15    18    1
    33    18    19   ar
    34    19    20   ar
    35    20    21   ar
    36    21    24    1
    37    24    25    1
    38    24    26    1
    39    24    27    1
    40    21    22   ar
    41    22    23   ar
    42    15    16    1
    43    16    17    1
    44     8     9   ar
    45     9    10   ar
    46    10    11    1
    47    49    40   ar
    48    38    33   ar
    49    10     5   ar
    50    49    44   ar
    51    17    12    1
    52    23    18   ar
    53     3     4    1
    54    43    50    1
    55    31    32    1
@<TRIPOS>MOLECULE
*****
 50 55 0 0 0
SMALL
GASTEIGER

@<TRIPOS>ATOM
      1 O          60.9332   87.3321   13.3532 O.2     1  UNL1       -0.2701
      2 C          61.2750   86.6333   12.3596 C.2     1  UNL1        0.2483
      3 N          62.0357   85.4318   12.5669 N.am    1  UNL1       -0.2945
      4 H          62.0979   84.7499   11.7792 H       1  UNL1        0.1501
      5 C          60.8596   87.0598   10.9990 C.ar    1  UNL1        0.0808
      6 C          61.2244   88.3378   10.5393 C.ar    1  UNL1        0.0080
      7 C          60.8622   88.7665    9.2603 C.ar    1  UNL1        0.0148
      8 C          60.1370   87.9230    8.4068 C.ar    1  UNL1        0.0502
      9 C          59.7759   86.6445    8.8559 C.ar    1  UNL1        0.0443
     10 C          60.1344   86.2102   10.1358 C.ar    1  UNL1        0.1457
     11 F          59.8099   84.9438   10.4967 F       1  UNL1       -0.2040
     12 N          59.7572   88.3687    7.0916 N.pl3   1  UNL1       -0.3040
     13 C          60.1008   87.5768    5.9060 C.3     1  UNL1        0.1123
     14 C          60.8170   88.4675    4.8899 C.3     1  UNL1        0.1136
     15 N          60.0838   89.7263    4.6589 N.pl3   1  UNL1       -0.2897
     16 C          58.8781   90.0239    5.4519 C.3     1  UNL1        0.1136
     17 C          59.0928   89.6700    6.9306 C.3     1  UNL1        0.1123
     18 C          60.4294   90.5723    3.5373 C.ar    1  UNL1        0.1318
     19 C          59.4468   91.2780    2.8204 C.ar    1  UNL1        0.0343
     20 C          59.8213   92.0865    1.7460 C.ar    1  UNL1        0.0083
     21 C          61.1721   92.2118    1.3916 C.ar    1  UNL1        0.0906
     22 C          62.1203   91.4702    2.1117 C.ar    1  UNL1        0.1041
     23 N          61.7321   90.6880    3.1531 N.ar    1  UNL1       -0.2292
     24 C          61.5834   93.0414    0.2022 C.3     1  UNL1        0.4200
     25 F          60.5364   93.8423   -0.2200 F       1  UNL1       -0.1658
     26 F          62.6515   93.8449    0.5550 F       1  UNL1       -0.1658
     27 F          61.9596   92.2284   -0.8531 F       1  UNL1       -0.1658
     28 C          62.5661   85.0583   13.8874 C.3     1  UNL1        0.1535
     29 C          63.0293   86.2748   14.6594 C.2     1  UNL1        0.2443
     30 O          62.9846   86.2721   15.9197 O.2     1  UNL1       -0.2730
     31 N          63.5237   87.4237   13.9476 N.am    1  UNL1       -0.2825
     32 H          63.4715   87.4006   12.9039 H       1  UNL1        0.1549
     33 C          63.9003   88.6713   14.5597 C.ar    1  UNL1        0.0535
     34 C          64.9913   89.4299   14.0995 C.ar    1  UNL1        0.0353
     35 C          65.2955   90.6460   14.7164 C.ar    1  UNL1        0.1002
     36 N          64.5336   91.0996   15.7461 N.ar    1  UNL1       -0.2422
     37 C          63.4627   90.3976   16.2009 C.ar    1  UNL1        0.1002
     38 C          63.1229   89.1779   15.6114 C.ar    1  UNL1        0.0353
     39 C          61.5472   84.2255   14.6971 C.3     1  UNL1        0.0573
     40 C          60.6659   83.3544   13.8395 C.ar    1  UNL1        0.0034
     41 C          59.3761   83.6381   13.3879 C.ar    1  UNL1        0.0879
     42 BR         58.3222   85.1592   13.8640 Br      1  UNL1       -0.0305
     43 N          58.9064   82.6315   12.6174 N.ar    1  UNL1       -0.3483
     44 C          59.8781   81.7044   12.5878 C.ar    1  UNL1        0.0567
     45 C          59.8433   80.4689   11.9425 C.ar    1  UNL1        0.0170
     46 C          60.9592   79.6237   12.0782 C.ar    1  UNL1        0.0015
     47 C          62.0648   80.0202   12.8615 C.ar    1  UNL1        0.0001
     48 C          62.0685   81.2689   13.5081 C.ar    1  UNL1        0.0012
     49 C          60.9612   82.1009   13.3315 C.ar    1  UNL1        0.0136
     50 H          57.9661   82.5736   12.1668 H       1  UNL1        0.1664
@<TRIPOS>BOND
     1     1     2    2
     2     2     3   am
     3     3    28    1
     4    28    39    1
     5    39    40    1
     6    40    41   ar
     7    41    42    1
     8    41    43   ar
     9    43    44   ar
    10    44    45   ar
    11    45    46   ar
    12    46    47   ar
    13    47    48   ar
    14    48    49   ar
    15    28    29    1
    16    29    30    2
    17    29    31   am
    18    31    33    1
    19    33    34   ar
    20    34    35   ar
    21    35    36   ar
    22    36    37   ar
    23    37    38   ar
    24     2     5    1
    25     5     6   ar
    26     6     7   ar
    27     7     8   ar
    28     8    12    1
    29    12    13    1
    30    13    14    1
    31    14    15    1
    32    15    18    1
    33    18    19   ar
    34    19    20   ar
    35    20    21   ar
    36    21    24    1
    37    24    25    1
    38    24    26    1
    39    24    27    1
    40    21    22   ar
    41    22    23   ar
    42    15    16    1
    43    16    17    1
    44     8     9   ar
    45     9    10   ar
    46    10    11    1
    47    49    40   ar
    48    38    33   ar
    49    10     5   ar
    50    49    44   ar
    51    17    12    1
    52    23    18   ar
    53     3     4    1
    54    43    50    1
    55    31    32    1
@<TRIPOS>MOLECULE
*****
 50 55 0 0 0
SMALL
GASTEIGER

@<TRIPOS>ATOM
      1 O          59.0387   85.4081   12.6541 O.2     1  UNL1       -0.2701
      2 C          60.0437   85.5335   11.9014 C.2     1  UNL1        0.2483
      3 N          61.3139   85.0100   12.3230 N.am    1  UNL1       -0.2945
      4 H          62.0624   84.9030   11.6035 H       1  UNL1        0.1501
      5 C          59.8811   86.1994   10.5839 C.ar    1  UNL1        0.0808
      6 C          60.3341   87.5209   10.4226 C.ar    1  UNL1        0.0080
      7 C          60.2094   88.1731    9.1939 C.ar    1  UNL1        0.0148
      8 C          59.6398   87.5152    8.0945 C.ar    1  UNL1        0.0502
      9 C          59.1924   86.1949    8.2460 C.ar    1  UNL1        0.0443
     10 C          59.3132   85.5371    9.4741 C.ar    1  UNL1        0.1457
     11 F          58.9176   84.2420    9.5486 F       1  UNL1       -0.2040
     12 N          59.5045   88.1911    6.8306 N.pl3   1  UNL1       -0.3040
     13 C          59.7636   87.4826    5.5729 C.3     1  UNL1        0.1123
     14 C          60.7645   88.2813    4.7366 C.3     1  UNL1        0.1136
     15 N          60.3752   89.7001    4.6323 N.pl3   1  UNL1       -0.2897
     16 C          59.2035   90.1915    5.3784 C.3     1  UNL1        0.1136
     17 C          59.1852   89.6257    6.8058 C.3     1  UNL1        0.1123
     18 C          61.0173   90.5594    3.6614 C.ar    1  UNL1        0.1318
     19 C          60.2845   91.5002    2.9161 C.ar    1  UNL1        0.0343
     20 C          60.9415   92.3132    1.9911 C.ar    1  UNL1        0.0083
     21 C          62.3288   92.2083    1.8163 C.ar    1  UNL1        0.0906
     22 C          63.0211   91.2388    2.5566 C.ar    1  UNL1        0.1041
     23 N          62.3600   90.4571    3.4504 N.ar    1  UNL1       -0.2292
     24 C          63.0412   93.0451    0.7845 C.3     1  UNL1        0.4200
     25 F          63.6729   92.2387   -0.1464 F       1  UNL1       -0.1658
     26 F          62.1218   93.8477    0.1355 F       1  UNL1       -0.1658
     27 F          63.9977   93.8472    1.3827 F       1  UNL1       -0.1658
     28 C          61.5270   84.4627   13.6719 C.3     1  UNL1        0.1535
     29 C          61.3285   82.9626   13.6957 C.2     1  UNL1        0.2443
     30 O          62.0433   82.2474   14.4493 O.2     1  UNL1       -0.2730
     31 N          60.3196   82.3649   12.8616 N.am    1  UNL1       -0.2825
     32 H          59.8057   82.9944   12.2042 H       1  UNL1        0.1549
     33 C          60.1002   80.9486   12.7225 C.ar    1  UNL1        0.0535
     34 C          58.8286   80.3703   12.8835 C.ar    1  UNL1        0.0353
     35 C          58.6702   78.9927   12.7121 C.ar    1  UNL1        0.1002
     36 N          59.7359   78.2184   12.3784 N.ar    1  UNL1       -0.2422
     37 C          60.9729   78.7512   12.1985 C.ar    1  UNL1        0.1002
     38 C          61.1747   80.1239   12.3587 C.ar    1  UNL1        0.0353
     39 C          62.9079   84.8623   14.2384 C.3     1  UNL1        0.0573
     40 C          63.0210   86.3282   14.5688 C.ar    1  UNL1        0.0034
     41 C          62.9822   86.9171   15.8336 C.ar    1  UNL1        0.0879
     42 BR         62.6261   86.0236   17.4846 Br      1  UNL1       -0.0305
     43 N          63.1427   88.2564   15.7432 N.ar    1  UNL1       -0.3483
     44 C          63.2672   88.5261   14.4331 C.ar    1  UNL1        0.0567
     45 C          63.4224   89.7798   13.8429 C.ar    1  UNL1        0.0170
     46 C          63.4879   89.8430   12.4394 C.ar    1  UNL1        0.0015
     47 C          63.3802   88.6674   11.6654 C.ar    1  UNL1        0.0001
     48 C          63.2155   87.4172   12.2878 C.ar    1  UNL1        0.0012
     49 C          63.1845   87.3797   13.6833 C.ar    1  UNL1        0.0136
     50 H          63.1361   88.9428   16.5302 H       1  UNL1        0.1664
@<TRIPOS>BOND
     1     1     2    2
     2     2     3   am
     3     3    28    1
     4    28    39    1
     5    39    40    1
     6    40    41   ar
     7    41    42    1
     8    41    43   ar
     9    43    44   ar
    10    44    45   ar
    11    45    46   ar
    12    46    47   ar
    13    47    48   ar
    14    48    49   ar
    15    28    29    1
    16    29    30    2
    17    29    31   am
    18    31    33    1
    19    33    34   ar
    20    34    35   ar
    21    35    36   ar
    22    36    37   ar
    23    37    38   ar
    24     2     5    1
    25     5     6   ar
    26     6     7   ar
    27     7     8   ar
    28     8    12    1
    29    12    13    1
    30    13    14    1
    31    14    15    1
    32    15    18    1
    33    18    19   ar
    34    19    20   ar
    35    20    21   ar
    36    21    24    1
    37    24    25    1
    38    24    26    1
    39    24    27    1
    40    21    22   ar
    41    22    23   ar
    42    15    16    1
    43    16    17    1
    44     8     9   ar
    45     9    10   ar
    46    10    11    1
    47    49    40   ar
    48    38    33   ar
    49    10     5   ar
    50    49    44   ar
    51    17    12    1
    52    23    18   ar
    53     3     4    1
    54    43    50    1
    55    31    32    1
@<TRIPOS>MOLECULE
*****
 50 55 0 0 0
SMALL
GASTEIGER

@<TRIPOS>ATOM
      1 O          62.4647   83.0532   11.5064 O.2     1  UNL1       -0.2701
      2 C          61.5798   83.9085   11.7854 C.2     1  UNL1        0.2483
      3 N          61.0252   83.9471   13.1107 N.am    1  UNL1       -0.2945
      4 H          60.4880   84.7966   13.3918 H       1  UNL1        0.1501
      5 C          61.1511   84.8722   10.7399 C.ar    1  UNL1        0.0808
      6 C          60.3058   84.4316    9.7060 C.ar    1  UNL1        0.0080
      7 C          59.8722   85.3138    8.7138 C.ar    1  UNL1        0.0148
      8 C          60.2641   86.6598    8.7389 C.ar    1  UNL1        0.0502
      9 C          61.1012   87.1079    9.7709 C.ar    1  UNL1        0.0443
     10 C          61.5396   86.2290   10.7663 C.ar    1  UNL1        0.1457
     11 F          62.2997   86.7286   11.7723 F       1  UNL1       -0.2040
     12 N          59.8232   87.5666    7.7113 N.pl3   1  UNL1       -0.3040
     13 C          59.3754   87.0603    6.4097 C.3     1  UNL1        0.1123
     14 C          60.1371   87.7794    5.2953 C.3     1  UNL1        0.1136
     15 N          60.1189   89.2424    5.4815 N.pl3   1  UNL1       -0.2897
     16 C          59.5044   89.8160    6.6915 C.3     1  UNL1        0.1136
     17 C          59.9022   89.0164    7.9406 C.3     1  UNL1        0.1123
     18 C          60.5267   90.1164    4.4030 C.ar    1  UNL1        0.1318
     19 C          59.6073   90.9604    3.7550 C.ar    1  UNL1        0.0343
     20 C          60.0409   91.7913    2.7207 C.ar    1  UNL1        0.0083
     21 C          61.3901   91.8010    2.3390 C.ar    1  UNL1        0.0906
     22 C          62.2716   90.9246    2.9888 C.ar    1  UNL1        0.1041
     23 N          61.8264   90.1233    3.9922 N.ar    1  UNL1       -0.2292
     24 C          61.8601   92.6562    1.1901 C.3     1  UNL1        0.4200
     25 F          62.2189   91.8686    0.1100 F       1  UNL1       -0.1658
     26 F          60.8395   93.5067    0.8083 F       1  UNL1       -0.1658
     27 F          62.9604   93.4098    1.5611 F       1  UNL1       -0.1658
     28 C          61.3397   82.9255   14.1217 C.3     1  UNL1        0.1535
     29 C          60.9340   81.5445   13.6543 C.2     1  UNL1        0.2443
     30 O          61.7668   80.5984   13.6968 O.2     1  UNL1       -0.2730
     31 N          59.5972   81.3209   13.1706 N.am    1  UNL1       -0.2825
     32 H          58.9708   82.1538   13.0890 H       1  UNL1        0.1549
     33 C          59.1213   80.0829   12.6102 C.ar    1  UNL1        0.0535
     34 C          59.1100   78.8850   13.3468 C.ar    1  UNL1        0.0353
     35 C          58.6135   77.7185   12.7596 C.ar    1  UNL1        0.1002
     36 N          58.1319   77.7443   11.4892 N.ar    1  UNL1       -0.2422
     37 C          58.1132   78.8902   10.7593 C.ar    1  UNL1        0.1002
     38 C          58.5988   80.0789   11.3088 C.ar    1  UNL1        0.0353
     39 C          62.8276   82.9711   14.5356 C.3     1  UNL1        0.0573
     40 C          63.3431   84.3671   14.7735 C.ar    1  UNL1        0.0034
     41 C          64.6694   84.7994   14.7300 C.ar    1  UNL1        0.0879
     42 BR         66.2103   83.6935   14.4977 Br      1  UNL1       -0.0305
     43 N          64.7481   86.1276   14.9692 N.ar    1  UNL1       -0.3483
     44 C          63.4873   86.5405   15.1798 C.ar    1  UNL1        0.0567
     45 C          63.0662   87.8314   15.4966 C.ar    1  UNL1        0.0170
     46 C          61.6938   88.0391   15.7234 C.ar    1  UNL1        0.0015
     47 C          60.7857   86.9609   15.6468 C.ar    1  UNL1        0.0001
     48 C          61.2403   85.6676   15.3337 C.ar    1  UNL1        0.0012
     49 C          62.6031   85.4954   15.0832 C.ar    1  UNL1        0.0136
     50 H          65.6166   86.7057   15.0146 H       1  UNL1        0.1664
@<TRIPOS>BOND
     1     1     2    2
     2     2     3   am
     3     3    28    1
     4    28    39    1
     5    39    40    1
     6    40    41   ar
     7    41    42    1
     8    41    43   ar
     9    43    44   ar
    10    44    45   ar
    11    45    46   ar
    12    46    47   ar
    13    47    48   ar
    14    48    49   ar
    15    28    29    1
    16    29    30    2
    17    29    31   am
    18    31    33    1
    19    33    34   ar
    20    34    35   ar
    21    35    36   ar
    22    36    37   ar
    23    37    38   ar
    24     2     5    1
    25     5     6   ar
    26     6     7   ar
    27     7     8   ar
    28     8    12    1
    29    12    13    1
    30    13    14    1
    31    14    15    1
    32    15    18    1
    33    18    19   ar
    34    19    20   ar
    35    20    21   ar
    36    21    24    1
    37    24    25    1
    38    24    26    1
    39    24    27    1
    40    21    22   ar
    41    22    23   ar
    42    15    16    1
    43    16    17    1
    44     8     9   ar
    45     9    10   ar
    46    10    11    1
    47    49    40   ar
    48    38    33   ar
    49    10     5   ar
    50    49    44   ar
    51    17    12    1
    52    23    18   ar
    53     3     4    1
    54    43    50    1
    55    31    32    1
@<TRIPOS>MOLECULE
*****
 50 55 0 0 0
SMALL
GASTEIGER

@<TRIPOS>ATOM
      1 O          62.3169   85.8656   11.9249 O.2     1  UNL1       -0.2701
      2 C          61.9655   87.0684   11.7760 C.2     1  UNL1        0.2483
      3 N          62.1274   87.9932   12.8640 N.am    1  UNL1       -0.2945
      4 H          62.0652   89.0134   12.6525 H       1  UNL1        0.1501
      5 C          61.4148   87.5036   10.4672 C.ar    1  UNL1        0.0808
      6 C          62.0967   88.4872    9.7288 C.ar    1  UNL1        0.0080
      7 C          61.6145   88.9105    8.4882 C.ar    1  UNL1        0.0148
      8 C          60.4459   88.3518    7.9516 C.ar    1  UNL1        0.0502
      9 C          59.7646   87.3654    8.6791 C.ar    1  UNL1        0.0443
     10 C          60.2416   86.9384    9.9223 C.ar    1  UNL1        0.1457
     11 F          59.5759   85.9408   10.5555 F       1  UNL1       -0.2040
     12 N          59.9453   88.7945    6.6764 N.pl3   1  UNL1       -0.3040
     13 C          60.0541   87.9363    5.4921 C.3     1  UNL1        0.1123
     14 C          60.7173   88.7181    4.3572 C.3     1  UNL1        0.1136
     15 N          60.0871   90.0378    4.1661 N.pl3   1  UNL1       -0.2897
     16 C          59.0286   90.4812    5.0902 C.3     1  UNL1        0.1136
     17 C          59.3963   90.1516    6.5442 C.3     1  UNL1        0.1123
     18 C          60.3665   90.8099    2.9749 C.ar    1  UNL1        0.1318
     19 C          59.4022   91.6645    2.4114 C.ar    1  UNL1        0.0343
     20 C          59.7117   92.3950    1.2631 C.ar    1  UNL1        0.0083
     21 C          60.9836   92.2943    0.6815 C.ar    1  UNL1        0.0906
     22 C          61.9092   91.4101    1.2551 C.ar    1  UNL1        0.1041
     23 N          61.5849   90.7076    2.3724 N.ar    1  UNL1       -0.2292
     24 C          61.3125   93.0391   -0.5870 C.3     1  UNL1        0.4200
     25 F          62.4234   93.8447   -0.4062 F       1  UNL1       -0.1658
     26 F          61.5748   92.1293   -1.5942 F       1  UNL1       -0.1658
     27 F          60.2524   93.8428   -0.9698 F       1  UNL1       -0.1658
     28 C          62.5494   87.5593   14.2050 C.3     1  UNL1        0.1535
     29 C          63.4916   88.5607   14.8372 C.2     1  UNL1        0.2443
     30 O          63.2701   88.9784   16.0063 O.2     1  UNL1       -0.2730
     31 N          64.6375   89.0235   14.1000 N.am    1  UNL1       -0.2825
     32 H          64.7338   88.7010   13.1104 H       1  UNL1        0.1549
     33 C          65.5493   90.0425   14.5511 C.ar    1  UNL1        0.0535
     34 C          65.3935   90.6889   15.7902 C.ar    1  UNL1        0.0353
     35 C          66.3236   91.6529   16.1876 C.ar    1  UNL1        0.1002
     36 N          67.3798   91.9542   15.3875 N.ar    1  UNL1       -0.2422
     37 C          67.5667   91.3337   14.1932 C.ar    1  UNL1        0.1002
     38 C          66.6613   90.3629   13.7588 C.ar    1  UNL1        0.0353
     39 C          61.3376   87.2646   15.1172 C.3     1  UNL1        0.0573
     40 C          60.5149   86.0868   14.6623 C.ar    1  UNL1        0.0034
     41 C          60.9174   84.7528   14.5815 C.ar    1  UNL1        0.0879
     42 BR         62.6805   84.0847   14.8917 Br      1  UNL1       -0.0305
     43 N          59.9002   83.9708   14.1558 N.ar    1  UNL1       -0.3483
     44 C          58.8605   84.7962   13.9502 C.ar    1  UNL1        0.0567
     45 C          57.5945   84.4536   13.4769 C.ar    1  UNL1        0.0170
     46 C          56.6598   85.4876   13.2894 C.ar    1  UNL1        0.0015
     47 C          57.0128   86.8276   13.5591 C.ar    1  UNL1        0.0001
     48 C          58.3003   87.1446   14.0275 C.ar    1  UNL1        0.0012
     49 C          59.1985   86.0957   14.2340 C.ar    1  UNL1        0.0136
     50 H          59.9296   82.9404   13.9885 H       1  UNL1        0.1664
@<TRIPOS>BOND
     1     1     2    2
     2     2     3   am
     3     3    28    1
     4    28    39    1
     5    39    40    1
     6    40    41   ar
     7    41    42    1
     8    41    43   ar
     9    43    44   ar
    10    44    45   ar
    11    45    46   ar
    12    46    47   ar
    13    47    48   ar
    14    48    49   ar
    15    28    29    1
    16    29    30    2
    17    29    31   am
    18    31    33    1
    19    33    34   ar
    20    34    35   ar
    21    35    36   ar
    22    36    37   ar
    23    37    38   ar
    24     2     5    1
    25     5     6   ar
    26     6     7   ar
    27     7     8   ar
    28     8    12    1
    29    12    13    1
    30    13    14    1
    31    14    15    1
    32    15    18    1
    33    18    19   ar
    34    19    20   ar
    35    20    21   ar
    36    21    24    1
    37    24    25    1
    38    24    26    1
    39    24    27    1
    40    21    22   ar
    41    22    23   ar
    42    15    16    1
    43    16    17    1
    44     8     9   ar
    45     9    10   ar
    46    10    11    1
    47    49    40   ar
    48    38    33   ar
    49    10     5   ar
    50    49    44   ar
    51    17    12    1
    52    23    18   ar
    53     3     4    1
    54    43    50    1
    55    31    32    1
@<TRIPOS>MOLECULE
*****
 50 55 0 0 0
SMALL
GASTEIGER

@<TRIPOS>ATOM
      1 O          60.3639   83.5398    9.9401 O.2     1  UNL1       -0.2701
      2 C          60.1011   84.6962   10.3716 C.2     1  UNL1        0.2483
      3 N          60.0179   84.9213   11.7885 N.am    1  UNL1       -0.2945
      4 H          60.0443   85.9073   12.1298 H       1  UNL1        0.1501
      5 C          59.9083   85.8032    9.4005 C.ar    1  UNL1        0.0808
      6 C          60.6308   86.9978    9.5696 C.ar    1  UNL1        0.0080
      7 C          60.4842   88.0542    8.6679 C.ar    1  UNL1        0.0148
      8 C          59.6207   87.9366    7.5695 C.ar    1  UNL1        0.0502
      9 C          58.9023   86.7456    7.3906 C.ar    1  UNL1        0.0443
     10 C          59.0439   85.6849    8.2908 C.ar    1  UNL1        0.1457
     11 F          58.3699   84.5356    8.0373 F       1  UNL1       -0.2040
     12 N          59.4641   89.0291    6.6451 N.pl3   1  UNL1       -0.3040
     13 C          58.2352   89.1712    5.8574 C.3     1  UNL1        0.1123
     14 C          58.5934   89.3074    4.3768 C.3     1  UNL1        0.1136
     15 N          59.6414   90.3229    4.1627 N.pl3   1  UNL1       -0.2897
     16 C          60.2677   90.9804    5.3230 C.3     1  UNL1        0.1136
     17 C          60.5797   89.9615    6.4287 C.3     1  UNL1        0.1123
     18 C          59.9192   90.8091    2.8286 C.ar    1  UNL1        0.1318
     19 C          61.2352   90.9076    2.3428 C.ar    1  UNL1        0.0343
     20 C          61.4614   91.3788    1.0486 C.ar    1  UNL1        0.0083
     21 C          60.3828   91.7357    0.2267 C.ar    1  UNL1        0.0906
     22 C          59.0866   91.6511    0.7560 C.ar    1  UNL1        0.1041
     23 N          58.8907   91.1911    2.0197 N.ar    1  UNL1       -0.2292
     24 C          60.6172   92.2935   -1.1540 C.3     1  UNL1        0.4200
     25 F          59.4440   92.2877   -1.8884 F       1  UNL1       -0.1658
     26 F          61.0761   93.5930   -1.0480 F       1  UNL1       -0.1658
     27 F          61.5569   91.5369   -1.8328 F       1  UNL1       -0.1658
     28 C          60.0781   83.8196   12.7617 C.3     1  UNL1        0.1535
     29 C          59.1652   82.6807   12.3620 C.2     1  UNL1        0.2443
     30 O          57.9199   82.7864   12.5310 O.2     1  UNL1       -0.2730
     31 N          59.7263   81.4875   11.7856 N.am    1  UNL1       -0.2825
     32 H          60.7684   81.4234   11.7347 H       1  UNL1        0.1549
     33 C          58.9778   80.3026   11.4559 C.ar    1  UNL1        0.0535
     34 C          58.2409   80.1922   10.2632 C.ar    1  UNL1        0.0353
     35 C          57.5534   79.0084    9.9838 C.ar    1  UNL1        0.1002
     36 N          57.6074   77.9651   10.8529 N.ar    1  UNL1       -0.2422
     37 C          58.3254   78.0357   12.0044 C.ar    1  UNL1        0.1002
     38 C          59.0286   79.2001   12.3213 C.ar    1  UNL1        0.0353
     39 C          61.5278   83.3342   12.9854 C.3     1  UNL1        0.0573
     40 C          62.3563   84.2783   13.8181 C.ar    1  UNL1        0.0034
     41 C          63.7128   84.1675   14.1274 C.ar    1  UNL1        0.0879
     42 BR         64.8537   82.6978   13.6923 Br      1  UNL1       -0.0305
     43 N          64.1205   85.2171   14.8756 N.ar    1  UNL1       -0.3483
     44 C          63.0336   85.9852   15.0580 C.ar    1  UNL1        0.0567
     45 C          62.9517   87.1664   15.7943 C.ar    1  UNL1        0.0170
     46 C          61.6967   87.7931   15.8959 C.ar    1  UNL1        0.0015
     47 C          60.5612   87.2223   15.2812 C.ar    1  UNL1        0.0001
     48 C          60.6721   86.0253   14.5518 C.ar    1  UNL1        0.0012
     49 C          61.9353   85.4406   14.4412 C.ar    1  UNL1        0.0136
     50 H          65.0777   85.3777   15.2609 H       1  UNL1        0.1664
@<TRIPOS>BOND
     1     1     2    2
     2     2     3   am
     3     3    28    1
     4    28    39    1
     5    39    40    1
     6    40    41   ar
     7    41    42    1
     8    41    43   ar
     9    43    44   ar
    10    44    45   ar
    11    45    46   ar
    12    46    47   ar
    13    47    48   ar
    14    48    49   ar
    15    28    29    1
    16    29    30    2
    17    29    31   am
    18    31    33    1
    19    33    34   ar
    20    34    35   ar
    21    35    36   ar
    22    36    37   ar
    23    37    38   ar
    24     2     5    1
    25     5     6   ar
    26     6     7   ar
    27     7     8   ar
    28     8    12    1
    29    12    13    1
    30    13    14    1
    31    14    15    1
    32    15    18    1
    33    18    19   ar
    34    19    20   ar
    35    20    21   ar
    36    21    24    1
    37    24    25    1
    38    24    26    1
    39    24    27    1
    40    21    22   ar
    41    22    23   ar
    42    15    16    1
    43    16    17    1
    44     8     9   ar
    45     9    10   ar
    46    10    11    1
    47    49    40   ar
    48    38    33   ar
    49    10     5   ar
    50    49    44   ar
    51    17    12    1
    52    23    18   ar
    53     3     4    1
    54    43    50    1
    55    31    32    1
