@<TRIPOS>MOLECULE
*****
 46 51 0 0 0
SMALL
GASTEIGER

@<TRIPOS>ATOM
      1 C          60.6571   86.8482    8.4098 C.ar    1  UNL1        0.0702
      2 C          59.7842   85.8553    8.8675 C.ar    1  UNL1        0.0191
      3 C          60.0305   85.2020   10.0759 C.ar    1  UNL1        0.0356
      4 C          61.1732   85.5332   10.8276 C.ar    1  UNL1        0.1318
      5 N          62.0205   86.4855   10.3445 N.ar    1  UNL1       -0.2279
      6 C          61.7987   87.1372    9.1728 C.ar    1  UNL1        0.1149
      7 N          61.4611   84.8866   12.0910 N.pl3   1  UNL1       -0.2932
      8 C          60.3990   84.6833   13.0896 C.3     1  UNL1        0.0923
      9 C          60.3160   83.2065   13.5103 C.3     1  UNL1        0.0252
     10 C          61.6974   82.4974   13.5619 C.3     1  UNL1        0.0472
     11 C          62.8538   83.5103   13.6372 C.3     1  UNL1        0.0252
     12 C          62.8271   84.4328   12.4096 C.3     1  UNL1        0.0923
     13 C          61.7748   81.5020   14.7288 C.3     1  UNL1        0.2054
     14 O          61.7680   80.1672   14.2263 O.3     1  UNL1       -0.4755
     15 C          60.9124   79.7029   13.2166 C.ar    1  UNL1        0.1388
     16 C          59.5908   79.2964   13.4766 C.ar    1  UNL1        0.0369
     17 C          58.7757   78.8533   12.4338 C.ar    1  UNL1        0.0033
     18 C          59.2678   78.8050   11.1280 C.ar    1  UNL1        0.0066
     19 C          60.5900   79.1936   10.8493 C.ar    1  UNL1        0.0785
     20 C          61.4014   79.6500   11.9049 C.ar    1  UNL1        0.0433
     21 C          61.0995   79.1396    9.4572 C.2     1  UNL1        0.3381
     22 O          60.5016   79.7744    8.5480 O.2     1  UNL1       -0.2451
     23 O          62.2231   78.3880    9.1144 O.3     1  UNL1       -0.4771
     24 H          62.6889   77.7733    9.7689 H       1  UNL1        0.2954
     25 C          59.8603   88.8209    7.0245 C.2     1  UNL1        0.2839
     26 O          59.3406   89.3928    8.0204 O.2     1  UNL1       -0.2665
     27 N          60.4019   87.4962    7.1517 N.am    1  UNL1       -0.2766
     28 H          60.5403   86.9374    6.2793 H       1  UNL1        0.1553
     29 C          61.5381   90.8850    2.9735 C.ar    1  UNL1        0.0123
     30 C          60.9613   91.4563    1.8196 C.ar    1  UNL1       -0.0013
     31 C          59.5511   91.5458    1.6742 C.ar    1  UNL1       -0.0001
     32 C          58.7136   91.0434    2.6973 C.ar    1  UNL1        0.0028
     33 C          59.3111   90.4711    3.8203 C.ar    1  UNL1        0.0334
     34 C          58.7712   89.8970    4.9555 C.ar    1  UNL1        0.0202
     35 C          57.3204   89.7310    5.2947 C.3     1  UNL1        0.0345
     36 C          59.8765   89.4953    5.7127 C.ar    1  UNL1        0.1946
     37 O          60.9934   89.8084    5.0817 O.2     1  UNL1       -0.4495
     38 C          60.6720   90.3919    3.9519 C.ar    1  UNL1        0.1412
     39 C          58.9607   92.1564    0.4562 C.ar    1  UNL1       -0.0000
     40 C          59.5665   93.2735   -0.1497 C.ar    1  UNL1       -0.0000
     41 C          59.0081   93.8470   -1.2962 C.ar    1  UNL1       -0.0000
     42 C          57.8424   93.3135   -1.8504 C.ar    1  UNL1        0.0000
     43 C          57.2321   92.2054   -1.2588 C.ar    1  UNL1       -0.0000
     44 C          57.7855   91.6283   -0.1117 C.ar    1  UNL1       -0.0000
     45 C          63.7472   91.7044    2.1621 C.3     1  UNL1        0.0051
     46 C          63.0301   90.7510    3.1118 C.3     1  UNL1        0.0295
@<TRIPOS>BOND
     1    45    46    1
     2    46    29    1
     3    29    30   ar
     4    30    31   ar
     5    31    39    1
     6    39    40   ar
     7    40    41   ar
     8    41    42   ar
     9    42    43   ar
    10    43    44   ar
    11    31    32   ar
    12    32    33   ar
    13    33    34   ar
    14    34    35    1
    15    34    36   ar
    16    36    25    1
    17    25    26    2
    18    25    27   am
    19    27     1    1
    20     1     2   ar
    21     2     3   ar
    22     3     4   ar
    23     4     7    1
    24     7     8    1
    25     8     9    1
    26     9    10    1
    27    10    13    1
    28    13    14    1
    29    14    15    1
    30    15    16   ar
    31    16    17   ar
    32    17    18   ar
    33    18    19   ar
    34    19    21    1
    35    21    22    2
    36    21    23    1
    37    19    20   ar
    38    10    11    1
    39    11    12    1
    40     4     5   ar
    41     5     6   ar
    42    36    37   ar
    43    37    38   ar
    44    38    29   ar
    45    44    39   ar
    46    38    33   ar
    47     6     1   ar
    48    12     7    1
    49    20    15   ar
    50    27    28    1
    51    23    24    1
@<TRIPOS>MOLECULE
*****
 46 51 0 0 0
SMALL
GASTEIGER

@<TRIPOS>ATOM
      1 C          59.8961   89.5848    5.8171 C.ar    1  UNL1        0.0702
      2 C          60.9310   89.6787    4.8804 C.ar    1  UNL1        0.0191
      3 C          60.7762   90.4598    3.7343 C.ar    1  UNL1        0.0356
      4 C          59.5651   91.1416    3.5133 C.ar    1  UNL1        0.1318
      5 N          58.5642   91.0106    4.4293 N.ar    1  UNL1       -0.2279
      6 C          58.6940   90.2589    5.5540 C.ar    1  UNL1        0.1149
      7 N          59.3664   91.9700    2.3422 N.pl3   1  UNL1       -0.2932
      8 C          59.7758   93.3838    2.3444 C.3     1  UNL1        0.0923
      9 C          60.7009   93.6895    1.1546 C.3     1  UNL1        0.0252
     10 C          60.3400   92.8968   -0.1319 C.3     1  UNL1        0.0472
     11 C          58.9015   92.3521   -0.0790 C.3     1  UNL1        0.0252
     12 C          58.7353   91.4187    1.1292 C.3     1  UNL1        0.0923
     13 C          60.5494   93.7472   -1.3932 C.3     1  UNL1        0.2054
     14 O          61.7983   93.4161   -1.9973 O.3     1  UNL1       -0.4755
     15 C          62.8636   92.7944   -1.3295 C.ar    1  UNL1        0.1388
     16 C          63.6788   91.8281   -1.9468 C.ar    1  UNL1        0.0369
     17 C          64.7344   91.2477   -1.2417 C.ar    1  UNL1        0.0033
     18 C          64.9844   91.6177    0.0813 C.ar    1  UNL1        0.0066
     19 C          64.1728   92.5712    0.7207 C.ar    1  UNL1        0.0785
     20 C          63.1177   93.1599   -0.0013 C.ar    1  UNL1        0.0433
     21 C          64.4508   92.9569    2.1259 C.2     1  UNL1        0.3381
     22 O          65.3070   93.8479    2.3715 O.2     1  UNL1       -0.2451
     23 O          63.7991   92.3479    3.1979 O.3     1  UNL1       -0.4771
     24 H          63.1796   91.5567    3.0817 H       1  UNL1        0.2954
     25 C          59.2258   87.6327    7.2956 C.2     1  UNL1        0.2839
     26 O          58.1343   87.4641    6.6881 O.2     1  UNL1       -0.2665
     27 N          60.0625   88.7578    6.9817 N.am    1  UNL1       -0.2766
     28 H          60.7825   89.0441    7.6834 H       1  UNL1        0.1553
     29 C          59.0231   83.9975   10.4940 C.ar    1  UNL1        0.0123
     30 C          59.9070   83.4362   11.4397 C.ar    1  UNL1       -0.0013
     31 C          61.2051   83.9773   11.6392 C.ar    1  UNL1       -0.0001
     32 C          61.6209   85.0884   10.8690 C.ar    1  UNL1        0.0028
     33 C          60.7316   85.6138    9.9315 C.ar    1  UNL1        0.0334
     34 C          60.8496   86.6653    9.0426 C.ar    1  UNL1        0.0202
     35 C          62.0313   87.5663    8.8437 C.3     1  UNL1        0.0345
     36 C          59.6281   86.6964    8.3620 C.ar    1  UNL1        0.1946
     37 O          58.8367   85.7396    8.8115 O.2     1  UNL1       -0.4495
     38 C          59.4811   85.0861    9.7486 C.ar    1  UNL1        0.1412
     39 C          62.1203   83.3786   12.6436 C.ar    1  UNL1       -0.0000
     40 C          61.8744   82.0913   13.1580 C.ar    1  UNL1       -0.0000
     41 C          62.7373   81.5301   14.1043 C.ar    1  UNL1       -0.0000
     42 C          63.8530   82.2444   14.5465 C.ar    1  UNL1        0.0000
     43 C          64.1080   83.5221   14.0436 C.ar    1  UNL1       -0.0000
     44 C          63.2480   84.0887   13.0978 C.ar    1  UNL1       -0.0000
     45 C          57.6406   82.6293    8.9362 C.3     1  UNL1        0.0051
     46 C          57.6635   83.4011   10.2510 C.3     1  UNL1        0.0295
@<TRIPOS>BOND
     1    45    46    1
     2    46    29    1
     3    29    30   ar
     4    30    31   ar
     5    31    39    1
     6    39    40   ar
     7    40    41   ar
     8    41    42   ar
     9    42    43   ar
    10    43    44   ar
    11    31    32   ar
    12    32    33   ar
    13    33    34   ar
    14    34    35    1
    15    34    36   ar
    16    36    25    1
    17    25    26    2
    18    25    27   am
    19    27     1    1
    20     1     2   ar
    21     2     3   ar
    22     3     4   ar
    23     4     7    1
    24     7     8    1
    25     8     9    1
    26     9    10    1
    27    10    13    1
    28    13    14    1
    29    14    15    1
    30    15    16   ar
    31    16    17   ar
    32    17    18   ar
    33    18    19   ar
    34    19    21    1
    35    21    22    2
    36    21    23    1
    37    19    20   ar
    38    10    11    1
    39    11    12    1
    40     4     5   ar
    41     5     6   ar
    42    36    37   ar
    43    37    38   ar
    44    38    29   ar
    45    44    39   ar
    46    38    33   ar
    47     6     1   ar
    48    12     7    1
    49    20    15   ar
    50    27    28    1
    51    23    24    1
