@<TRIPOS>MOLECULE
*****
 58 65 0 0 0
SMALL
GASTEIGER

@<TRIPOS>ATOM
      1 O          60.2173   86.1045   14.9645 O.3     1  UNL1       -0.4727
      2 C          60.4447   87.3112   10.9223 C.ar    1  UNL1        0.0481
      3 C          61.5972   87.3442   11.7251 C.ar    1  UNL1        0.0176
      4 C          61.5458   86.9421   13.0623 C.ar    1  UNL1        0.0382
      5 C          60.3369   86.4887   13.6202 C.ar    1  UNL1        0.1388
      6 C          59.1998   86.4123   12.8096 C.ar    1  UNL1        0.0382
      7 C          59.2467   86.8272   11.4763 C.ar    1  UNL1        0.0176
      8 N          60.4835   88.9165    6.9444 N.pl3   1  UNL1       -0.3041
      9 C          61.4732   89.3674    7.9359 C.3     1  UNL1        0.1122
     10 C          61.7457   88.2908    8.9908 C.3     1  UNL1        0.1122
     11 N          60.4863   87.7949    9.5625 N.pl3   1  UNL1       -0.3041
     12 C          59.2916   87.6683    8.7130 C.3     1  UNL1        0.1122
     13 C          59.6470   87.7404    7.2249 C.3     1  UNL1        0.1122
     14 C          60.2606   90.8597    3.1451 C.ar    1  UNL1        0.0699
     15 C          59.1450   90.8286    3.9979 C.ar    1  UNL1        0.0190
     16 C          59.2180   90.1924    5.2402 C.ar    1  UNL1        0.0160
     17 C          60.4086   89.5727    5.6587 C.ar    1  UNL1        0.0480
     18 C          61.5275   89.6139    4.8077 C.ar    1  UNL1        0.0160
     19 C          61.4544   90.2522    3.5667 C.ar    1  UNL1        0.0190
     20 N          59.4998   92.3082   -0.0927 N.ar    1  UNL1       -0.2024
     21 N          60.7715   92.6600    0.0306 N.ar    1  UNL1       -0.1442
     22 C          61.1854   92.1762    1.2222 C.ar    1  UNL1        0.2073
     23 N          60.1934   91.5190    1.8657 N.ar    1  UNL1       -0.2398
     24 C          59.1577   91.6162    1.0087 C.ar    1  UNL1        0.3522
     25 O          58.0259   91.0920    1.1920 O.2     1  UNL1       -0.2444
     26 C          58.6647   92.5960   -1.2641 C.3     1  UNL1        0.1099
     27 C          57.9601   91.3173   -1.7255 C.3     1  UNL1        0.0265
     28 C          56.2700   93.4015   -1.5522 C.3     1  UNL1        0.0021
     29 C          57.6385   93.6977   -0.9406 C.3     1  UNL1        0.0245
     30 C          60.9662   85.0707   15.6090 C.3     1  UNL1        0.2374
     31 C          60.7731   83.7101   14.9169 C.3     1  UNL1        0.1909
     32 C          62.0060   82.8369   14.9781 C.3     1  UNL1        0.1783
     33 O          62.3740   82.5886   13.6576 O.3     1  UNL1       -0.3266
     34 C          61.2407   82.9093   12.8783 C.3     1  UNL1        0.2315
     35 O          60.4760   83.8775   13.5627 O.3     1  UNL1       -0.3254
     36 C          60.4436   81.6246   12.6027 C.ar    1  UNL1        0.0410
     37 C          61.0906   80.3902   12.8276 C.ar    1  UNL1        0.0022
     38 C          60.4268   79.1798   12.6287 C.ar    1  UNL1        0.0113
     39 C          59.1023   79.1722   12.1987 C.ar    1  UNL1        0.0585
     40 CL         58.2646   77.6488   11.9652 Cl      1  UNL1       -0.0822
     41 C          58.4503   80.3769   11.9349 C.ar    1  UNL1        0.0226
     42 C          59.1102   81.6014   12.1055 C.ar    1  UNL1        0.0591
     43 CL         58.2152   83.0427   11.6300 Cl      1  UNL1       -0.0824
     44 C          61.7441   83.5104   11.5528 C.3     1  UNL1        0.1914
     45 N          62.7140   82.6413   10.8784 N.ar    1  UNL1       -0.2079
     46 N          63.9970   82.5888   11.1883 N.ar    1  UNL1       -0.0427
     47 N          64.6035   81.7402   10.3732 N.ar    1  UNL1       -0.0227
     48 N          63.7290   81.2314    9.5169 N.ar    1  UNL1       -0.1081
     49 C          62.5498   81.8001    9.8341 C.ar    1  UNL1        0.1837
     50 C          61.2837   81.5149    9.1211 C.ar    1  UNL1        0.0357
     51 C          60.7612   80.2108    9.1650 C.ar    1  UNL1        0.0029
     52 C          59.5837   79.8916    8.4896 C.ar    1  UNL1        0.0001
     53 C          58.9301   80.8595    7.7312 C.ar    1  UNL1       -0.0002
     54 C          59.4557   82.1484    7.6379 C.ar    1  UNL1       -0.0018
     55 C          60.6271   82.5025    8.3371 C.ar    1  UNL1        0.0103
     56 C          61.2092   83.8894    8.1554 C.3     1  UNL1        0.1688
     57 O          62.5396   83.8147    7.6840 O.3     1  UNL1       -0.3463
     58 C          63.2628   84.9371    8.1371 C.3     1  UNL1        0.1746
@<TRIPOS>BOND
     1    28    29    1
     2    29    26    1
     3    26    27    1
     4    26    20    1
     5    20    21   ar
     6    21    22   ar
     7    22    23   ar
     8    23    14    1
     9    14    15   ar
    10    15    16   ar
    11    16    17   ar
    12    17     8    1
    13     8     9    1
    14     9    10    1
    15    10    11    1
    16    11     2    1
    17     2     3   ar
    18     3     4   ar
    19     4     5   ar
    20     5     1    1
    21     1    30    1
    22    30    31    1
    23    31    32    1
    24    32    33    1
    25    33    34    1
    26    34    44    1
    27    44    45    1
    28    45    46   ar
    29    46    47   ar
    30    47    48   ar
    31    48    49   ar
    32    49    50    1
    33    50    51   ar
    34    51    52   ar
    35    52    53   ar
    36    53    54   ar
    37    54    55   ar
    38    55    56    1
    39    56    57    1
    40    57    58    1
    41    34    36    1
    42    36    37   ar
    43    37    38   ar
    44    38    39   ar
    45    39    40    1
    46    39    41   ar
    47    41    42   ar
    48    42    43    1
    49    34    35    1
    50     5     6   ar
    51     6     7   ar
    52    11    12    1
    53    12    13    1
    54    17    18   ar
    55    18    19   ar
    56    23    24   ar
    57    24    25    2
    58    24    20   ar
    59    19    14   ar
    60    13     8    1
    61     7     2   ar
    62    35    31    1
    63    49    45   ar
    64    55    50   ar
    65    42    36   ar
@<TRIPOS>MOLECULE
*****
 58 65 0 0 0
SMALL
GASTEIGER

@<TRIPOS>ATOM
      1 O          61.8576   86.2018   15.2255 O.3     1  UNL1       -0.4727
      2 C          61.2652   87.5520   11.2666 C.ar    1  UNL1        0.0481
      3 C          60.1745   87.0681   12.0082 C.ar    1  UNL1        0.0176
      4 C          60.3469   86.6240   13.3218 C.ar    1  UNL1        0.0382
      5 C          61.6178   86.6651   13.9229 C.ar    1  UNL1        0.1388
      6 C          62.6952   87.1891   13.2014 C.ar    1  UNL1        0.0382
      7 C          62.5267   87.6206   11.8832 C.ar    1  UNL1        0.0176
      8 N          60.7035   88.8913    7.2301 N.pl3   1  UNL1       -0.3041
      9 C          61.8875   89.3155    7.9945 C.3     1  UNL1        0.1122
     10 C          62.2647   88.2884    9.0663 C.3     1  UNL1        0.1122
     11 N          61.0960   87.9426    9.8869 N.pl3   1  UNL1       -0.3041
     12 C          59.7611   87.8680    9.2725 C.3     1  UNL1        0.1122
     13 C          59.8455   87.8137    7.7441 C.3     1  UNL1        0.1122
     14 C          59.9451   90.5942    3.3850 C.ar    1  UNL1        0.0699
     15 C          61.2216   90.1074    3.7113 C.ar    1  UNL1        0.0190
     16 C          61.4695   89.5511    4.9693 C.ar    1  UNL1        0.0160
     17 C          60.4465   89.4684    5.9301 C.ar    1  UNL1        0.0480
     18 C          59.1665   89.9469    5.5976 C.ar    1  UNL1        0.0160
     19 C          58.9188   90.5009    4.3389 C.ar    1  UNL1        0.0190
     20 N          59.8923   91.9243    0.0103 N.ar    1  UNL1       -0.2024
     21 N          58.6340   92.1366    0.3677 N.ar    1  UNL1       -0.1442
     22 C          58.5146   91.6725    1.6308 C.ar    1  UNL1        0.2073
     23 N          59.6818   91.1635    2.0879 N.ar    1  UNL1       -0.2398
     24 C          60.5211   91.3461    1.0492 C.ar    1  UNL1        0.3522
     25 O          61.7473   91.0533    1.0604 O.2     1  UNL1       -0.2444
     26 C          60.4702   92.3158   -1.2800 C.3     1  UNL1        0.1099
     27 C          59.5243   93.2804   -2.0007 C.3     1  UNL1        0.0265
     28 C          62.9185   92.3098   -1.9674 C.3     1  UNL1        0.0021
     29 C          61.8558   92.9576   -1.0810 C.3     1  UNL1        0.0245
     30 C          60.9970   85.3450   15.9805 C.3     1  UNL1        0.2374
     31 C          60.8265   83.9716   15.3082 C.3     1  UNL1        0.1909
     32 C          62.0455   83.0886   15.4526 C.3     1  UNL1        0.1783
     33 O          62.4795   82.8084   14.1589 O.3     1  UNL1       -0.3266
     34 C          61.3919   83.1225   13.3144 C.3     1  UNL1        0.2315
     35 O          60.6023   84.1122   13.9370 O.3     1  UNL1       -0.3254
     36 C          60.5972   81.8394   13.0246 C.ar    1  UNL1        0.0410
     37 C          61.2351   80.6037   13.2676 C.ar    1  UNL1        0.0022
     38 C          60.5722   79.3948   13.0572 C.ar    1  UNL1        0.0113
     39 C          59.2577   79.3900   12.5974 C.ar    1  UNL1        0.0585
     40 CL         58.4207   77.8685   12.3494 Cl      1  UNL1       -0.0822
     41 C          58.6156   80.5960   12.3156 C.ar    1  UNL1        0.0226
     42 C          59.2752   81.8189   12.4975 C.ar    1  UNL1        0.0591
     43 CL         58.3957   83.2616   11.9978 Cl      1  UNL1       -0.0824
     44 C          61.9701   83.6901   12.0048 C.3     1  UNL1        0.1914
     45 N          62.9956   82.8178   11.4230 N.ar    1  UNL1       -0.2079
     46 N          63.9788   82.2722   12.1160 N.ar    1  UNL1       -0.0427
     47 N          64.7504   81.5760   11.2960 N.ar    1  UNL1       -0.0227
     48 N          64.2872   81.6613   10.0570 N.ar    1  UNL1       -0.1081
     49 C          63.1921   82.4413   10.1406 C.ar    1  UNL1        0.1837
     50 C          62.3534   82.8048    8.9755 C.ar    1  UNL1        0.0357
     51 C          62.6855   83.9518    8.2341 C.ar    1  UNL1        0.0029
     52 C          61.9108   84.3445    7.1433 C.ar    1  UNL1        0.0001
     53 C          60.7731   83.6193    6.7984 C.ar    1  UNL1       -0.0002
     54 C          60.4004   82.5034    7.5481 C.ar    1  UNL1       -0.0018
     55 C          61.1853   82.0693    8.6352 C.ar    1  UNL1        0.0103
     56 C          60.7122   80.8977    9.4711 C.3     1  UNL1        0.1688
     57 O          61.0166   79.6738    8.8332 O.3     1  UNL1       -0.3463
     58 C          61.7863   78.8706    9.6994 C.3     1  UNL1        0.1746
@<TRIPOS>BOND
     1    28    29    1
     2    29    26    1
     3    26    27    1
     4    26    20    1
     5    20    21   ar
     6    21    22   ar
     7    22    23   ar
     8    23    14    1
     9    14    15   ar
    10    15    16   ar
    11    16    17   ar
    12    17     8    1
    13     8     9    1
    14     9    10    1
    15    10    11    1
    16    11     2    1
    17     2     3   ar
    18     3     4   ar
    19     4     5   ar
    20     5     1    1
    21     1    30    1
    22    30    31    1
    23    31    32    1
    24    32    33    1
    25    33    34    1
    26    34    44    1
    27    44    45    1
    28    45    46   ar
    29    46    47   ar
    30    47    48   ar
    31    48    49   ar
    32    49    50    1
    33    50    51   ar
    34    51    52   ar
    35    52    53   ar
    36    53    54   ar
    37    54    55   ar
    38    55    56    1
    39    56    57    1
    40    57    58    1
    41    34    36    1
    42    36    37   ar
    43    37    38   ar
    44    38    39   ar
    45    39    40    1
    46    39    41   ar
    47    41    42   ar
    48    42    43    1
    49    34    35    1
    50     5     6   ar
    51     6     7   ar
    52    11    12    1
    53    12    13    1
    54    17    18   ar
    55    18    19   ar
    56    23    24   ar
    57    24    25    2
    58    24    20   ar
    59    19    14   ar
    60    13     8    1
    61     7     2   ar
    62    35    31    1
    63    49    45   ar
    64    55    50   ar
    65    42    36   ar
@<TRIPOS>MOLECULE
*****
 58 65 0 0 0
SMALL
GASTEIGER

@<TRIPOS>ATOM
      1 O          61.9627   84.5314   14.4519 O.3     1  UNL1       -0.4727
      2 C          61.0227   86.7638   10.9907 C.ar    1  UNL1        0.0481
      3 C          59.9889   86.2825   11.8114 C.ar    1  UNL1        0.0176
      4 C          60.2780   85.5488   12.9649 C.ar    1  UNL1        0.0382
      5 C          61.6129   85.2903   13.3247 C.ar    1  UNL1        0.1388
      6 C          62.6434   85.8079   12.5334 C.ar    1  UNL1        0.0382
      7 C          62.3554   86.5298   11.3723 C.ar    1  UNL1        0.0176
      8 N          60.2761   88.7440    7.2593 N.pl3   1  UNL1       -0.3041
      9 C          59.9281   87.3240    7.4281 C.3     1  UNL1        0.1122
     10 C          59.6330   86.9859    8.8926 C.3     1  UNL1        0.1122
     11 N          60.7181   87.4594    9.7627 N.pl3   1  UNL1       -0.3041
     12 C          61.4146   88.7179    9.4525 C.3     1  UNL1        0.1122
     13 C          60.6391   89.5550    8.4307 C.3     1  UNL1        0.1122
     14 C          59.9399   90.5639    3.4077 C.ar    1  UNL1        0.0699
     15 C          58.8357   90.5178    4.2746 C.ar    1  UNL1        0.0190
     16 C          58.9458   89.9219    5.5341 C.ar    1  UNL1        0.0160
     17 C          60.1629   89.3585    5.9560 C.ar    1  UNL1        0.0480
     18 C          61.2700   89.4150    5.0905 C.ar    1  UNL1        0.0160
     19 C          61.1597   90.0129    3.8323 C.ar    1  UNL1        0.0190
     20 N          60.2640   91.9205    0.0588 N.ar    1  UNL1       -0.2024
     21 N          59.0407   92.3301    0.3623 N.ar    1  UNL1       -0.1442
     22 C          58.7878   91.8782    1.6101 C.ar    1  UNL1        0.2073
     23 N          59.8342   91.1819    2.1105 N.ar    1  UNL1       -0.2398
     24 C          60.7407   91.2371    1.1145 C.ar    1  UNL1        0.3522
     25 O          61.9017   90.7493    1.1762 O.2     1  UNL1       -0.2444
     26 C          60.9585   92.2267   -1.1966 C.3     1  UNL1        0.1099
     27 C          60.1505   93.2494   -2.0003 C.3     1  UNL1        0.0265
     28 C          63.4245   92.0725   -1.7982 C.3     1  UNL1        0.0021
     29 C          62.3785   92.7526   -0.9161 C.3     1  UNL1        0.0245
     30 C          61.3324   83.3187   14.8727 C.3     1  UNL1        0.2374
     31 C          61.4128   82.2285   13.7900 C.3     1  UNL1        0.1909
     32 C          61.6488   82.7883   12.4053 C.3     1  UNL1        0.1783
     33 O          60.5591   82.3917   11.6334 O.3     1  UNL1       -0.3266
     34 C          59.9458   81.3402   12.3495 C.3     1  UNL1        0.2315
     35 O          60.2212   81.5031   13.7236 O.3     1  UNL1       -0.3254
     36 C          60.4614   79.9982   11.8065 C.ar    1  UNL1        0.0410
     37 C          61.2512   80.0237   10.6367 C.ar    1  UNL1        0.0022
     38 C          61.7808   78.8519   10.0968 C.ar    1  UNL1        0.0113
     39 C          61.5335   77.6263   10.7102 C.ar    1  UNL1        0.0585
     40 CL         62.2145   76.1560   10.0386 Cl      1  UNL1       -0.0822
     41 C          60.7270   77.5684   11.8470 C.ar    1  UNL1        0.0226
     42 C          60.1663   78.7331   12.3882 C.ar    1  UNL1        0.0591
     43 CL         59.0762   78.5119   13.7547 Cl      1  UNL1       -0.0824
     44 C          58.4263   81.4497   12.1243 C.3     1  UNL1        0.1914
     45 N          58.0403   82.7375   11.5382 N.ar    1  UNL1       -0.2079
     46 N          57.5658   83.7529   12.2373 N.ar    1  UNL1       -0.0427
     47 N          57.2798   84.7484   11.4129 N.ar    1  UNL1       -0.0227
     48 N          57.5568   84.3967   10.1653 N.ar    1  UNL1       -0.1081
     49 C          58.0287   83.1378   10.2480 C.ar    1  UNL1        0.1837
     50 C          58.4635   82.3462    9.0744 C.ar    1  UNL1        0.0357
     51 C          57.7051   81.2252    8.6955 C.ar    1  UNL1        0.0029
     52 C          58.0898   80.4378    7.6108 C.ar    1  UNL1        0.0001
     53 C          59.2562   80.7362    6.9110 C.ar    1  UNL1       -0.0002
     54 C          60.0474   81.8180    7.2981 C.ar    1  UNL1       -0.0018
     55 C          59.6621   82.6465    8.3712 C.ar    1  UNL1        0.0103
     56 C          60.5813   83.7681    8.8100 C.3     1  UNL1        0.1688
     57 O          61.5504   84.0370    7.8171 O.3     1  UNL1       -0.3463
     58 C          62.8273   84.1017    8.4113 C.3     1  UNL1        0.1746
@<TRIPOS>BOND
     1    28    29    1
     2    29    26    1
     3    26    27    1
     4    26    20    1
     5    20    21   ar
     6    21    22   ar
     7    22    23   ar
     8    23    14    1
     9    14    15   ar
    10    15    16   ar
    11    16    17   ar
    12    17     8    1
    13     8     9    1
    14     9    10    1
    15    10    11    1
    16    11     2    1
    17     2     3   ar
    18     3     4   ar
    19     4     5   ar
    20     5     1    1
    21     1    30    1
    22    30    31    1
    23    31    32    1
    24    32    33    1
    25    33    34    1
    26    34    44    1
    27    44    45    1
    28    45    46   ar
    29    46    47   ar
    30    47    48   ar
    31    48    49   ar
    32    49    50    1
    33    50    51   ar
    34    51    52   ar
    35    52    53   ar
    36    53    54   ar
    37    54    55   ar
    38    55    56    1
    39    56    57    1
    40    57    58    1
    41    34    36    1
    42    36    37   ar
    43    37    38   ar
    44    38    39   ar
    45    39    40    1
    46    39    41   ar
    47    41    42   ar
    48    42    43    1
    49    34    35    1
    50     5     6   ar
    51     6     7   ar
    52    11    12    1
    53    12    13    1
    54    17    18   ar
    55    18    19   ar
    56    23    24   ar
    57    24    25    2
    58    24    20   ar
    59    19    14   ar
    60    13     8    1
    61     7     2   ar
    62    35    31    1
    63    49    45   ar
    64    55    50   ar
    65    42    36   ar
