@<TRIPOS>MOLECULE
*****
 30 33 0 0 0
SMALL
GASTEIGER

@<TRIPOS>ATOM
      1 N          46.1123   14.6546  -26.6444 N.ar    1  UNL1       -0.3243
      2 C          46.4377   14.0151  -25.4900 C.ar    1  UNL1        0.0600
      3 C          46.4695   14.5328  -24.1902 C.ar    1  UNL1        0.0177
      4 C          46.8389   13.6721  -23.1407 C.ar    1  UNL1        0.0082
      5 C          47.1603   12.3211  -23.3967 C.ar    1  UNL1        0.0347
      6 BR         47.6561   11.1725  -21.9544 Br      1  UNL1       -0.0490
      7 C          47.1105   11.8144  -24.7071 C.ar    1  UNL1        0.0082
      8 C          46.7438   12.6890  -25.7282 C.ar    1  UNL1        0.0177
      9 C          46.5947   12.4922  -27.0812 C.ar    1  UNL1        0.0177
     10 C          46.7616   11.3574  -27.8685 C.ar    1  UNL1        0.0079
     11 C          46.5195   11.4681  -29.2496 C.ar    1  UNL1        0.0307
     12 BR         46.7504    9.9029  -30.3334 Br      1  UNL1       -0.0493
     13 C          46.1116   12.7109  -29.8117 C.ar    1  UNL1       -0.0142
     14 C          45.8454   12.8335  -31.2857 C.3     1  UNL1        0.0316
     15 C          45.9509   13.8408  -28.9776 C.ar    1  UNL1        0.0134
     16 C          46.2063   13.7040  -27.6104 C.ar    1  UNL1        0.0597
     17 C          45.7817   16.0739  -26.8315 C.3     1  UNL1        0.1429
     18 C          47.0303   16.9638  -26.7057 C.3     1  UNL1        0.2027
     19 F          47.2366   17.2670  -25.3716 F       1  UNL1       -0.2334
     20 C          48.2943   16.3262  -27.3074 C.3     1  UNL1        0.1259
     21 N          49.4485   16.4584  -26.4172 N.pl3   1  UNL1       -0.3157
     22 H          49.9265   17.3857  -26.3688 H       1  UNL1        0.1483
     23 C          50.3969   13.1374  -25.1067 C.ar    1  UNL1        0.2261
     24 C          50.6341   13.4100  -23.7569 C.ar    1  UNL1        0.0578
     25 C          50.4757   14.7135  -23.2835 C.ar    1  UNL1        0.0077
     26 C          50.0848   15.7291  -24.1581 C.ar    1  UNL1        0.0343
     27 C          49.8577   15.4263  -25.5072 C.ar    1  UNL1        0.1317
     28 N          50.0149   14.1446  -25.9413 N.ar    1  UNL1       -0.1969
     29 C          50.7867   10.7238  -24.7250 C.3     1  UNL1        0.2542
     30 O          50.5555   11.8336  -25.5846 O.3     1  UNL1       -0.4561
@<TRIPOS>BOND
     1    29    30    1
     2    30    23    1
     3    23    24   ar
     4    24    25   ar
     5    25    26   ar
     6    26    27   ar
     7    27    21    1
     8    21    20    1
     9    20    18    1
    10    18    19    1
    11    18    17    1
    12    17     1    1
    13     1     2   ar
    14     2     3   ar
    15     3     4   ar
    16     4     5   ar
    17     5     6    1
    18     5     7   ar
    19     7     8   ar
    20     8     9   ar
    21     9    10   ar
    22    10    11   ar
    23    11    12    1
    24    11    13   ar
    25    13    14    1
    26    13    15   ar
    27    15    16   ar
    28    27    28   ar
    29    28    23   ar
    30    16     1   ar
    31     8     2   ar
    32    16     9   ar
    33    21    22    1
@<TRIPOS>MOLECULE
*****
 30 33 0 0 0
SMALL
GASTEIGER

@<TRIPOS>ATOM
      1 N          47.0429   12.7447  -25.5823 N.ar    1  UNL1       -0.3243
      2 C          46.8906   14.0683  -25.3136 C.ar    1  UNL1        0.0600
      3 C          47.0795   14.7344  -24.0973 C.ar    1  UNL1        0.0177
      4 C          46.8618   16.1235  -24.0593 C.ar    1  UNL1        0.0082
      5 C          46.4707   16.8231  -25.2220 C.ar    1  UNL1        0.0347
      6 BR         46.1839   18.7092  -25.1448 Br      1  UNL1       -0.0490
      7 C          46.2981   16.1400  -26.4385 C.ar    1  UNL1        0.0082
      8 C          46.5181   14.7640  -26.4477 C.ar    1  UNL1        0.0177
      9 C          46.4443   13.8404  -27.4640 C.ar    1  UNL1        0.0177
     10 C          46.1262   13.9801  -28.8112 C.ar    1  UNL1        0.0079
     11 C          46.1471   12.8291  -29.6193 C.ar    1  UNL1        0.0307
     12 BR         45.7079   13.0233  -31.4760 Br      1  UNL1       -0.0493
     13 C          46.4901   11.5645  -29.0625 C.ar    1  UNL1       -0.0142
     14 C          46.5202   10.3324  -29.9226 C.3     1  UNL1        0.0316
     15 C          46.8095   11.4643  -27.6892 C.ar    1  UNL1        0.0134
     16 C          46.7726   12.6227  -26.9082 C.ar    1  UNL1        0.0597
     17 C          47.3738   11.6623  -24.6455 C.3     1  UNL1        0.1429
     18 C          48.8786   11.6348  -24.3266 C.3     1  UNL1        0.2027
     19 F          49.1477   10.5504  -23.5104 F       1  UNL1       -0.2334
     20 C          49.7655   11.5876  -25.5825 C.3     1  UNL1        0.1259
     21 N          50.8522   12.5659  -25.5199 N.pl3   1  UNL1       -0.3157
     22 H          51.8100   12.2527  -25.7940 H       1  UNL1        0.1483
     23 C          50.0498   16.1373  -26.0172 C.ar    1  UNL1        0.2261
     24 C          50.2313   16.6615  -24.7347 C.ar    1  UNL1        0.0578
     25 C          50.6245   15.8137  -23.6979 C.ar    1  UNL1        0.0077
     26 C          50.8307   14.4559  -23.9490 C.ar    1  UNL1        0.0343
     27 C          50.6373   13.9583  -25.2446 C.ar    1  UNL1        0.1317
     28 N          50.2583   14.8090  -26.2388 N.ar    1  UNL1       -0.1969
     29 C          49.6177   18.3988  -26.9239 C.3     1  UNL1        0.2542
     30 O          49.6551   16.9828  -27.0577 O.3     1  UNL1       -0.4561
@<TRIPOS>BOND
     1    29    30    1
     2    30    23    1
     3    23    24   ar
     4    24    25   ar
     5    25    26   ar
     6    26    27   ar
     7    27    21    1
     8    21    20    1
     9    20    18    1
    10    18    19    1
    11    18    17    1
    12    17     1    1
    13     1     2   ar
    14     2     3   ar
    15     3     4   ar
    16     4     5   ar
    17     5     6    1
    18     5     7   ar
    19     7     8   ar
    20     8     9   ar
    21     9    10   ar
    22    10    11   ar
    23    11    12    1
    24    11    13   ar
    25    13    14    1
    26    13    15   ar
    27    15    16   ar
    28    27    28   ar
    29    28    23   ar
    30    16     1   ar
    31     8     2   ar
    32    16     9   ar
    33    21    22    1
@<TRIPOS>MOLECULE
*****
 30 33 0 0 0
SMALL
GASTEIGER

@<TRIPOS>ATOM
      1 N          47.0590   12.6709  -25.8754 N.ar    1  UNL1       -0.3243
      2 C          46.7430   12.5277  -27.1895 C.ar    1  UNL1        0.0600
      3 C          46.7131   11.3548  -27.9523 C.ar    1  UNL1        0.0177
      4 C          46.3506   11.4522  -29.3078 C.ar    1  UNL1        0.0082
      5 C          46.0190   12.7016  -29.8764 C.ar    1  UNL1        0.0347
      6 BR         45.5276   12.8071  -31.7184 Br      1  UNL1       -0.0490
      7 C          46.0417   13.8682  -29.0922 C.ar    1  UNL1        0.0082
      8 C          46.4066   13.7436  -27.7531 C.ar    1  UNL1        0.0177
      9 C          46.5080   14.6788  -26.7497 C.ar    1  UNL1        0.0177
     10 C          46.2796   16.0512  -26.7464 C.ar    1  UNL1        0.0079
     11 C          46.4604   16.7496  -25.5390 C.ar    1  UNL1        0.0307
     12 BR         46.1456   18.6414  -25.5362 Br      1  UNL1       -0.0493
     13 C          46.8617   16.0587  -24.3607 C.ar    1  UNL1       -0.0142
     14 C          47.0503   16.7988  -23.0663 C.3     1  UNL1        0.0316
     15 C          47.0816   14.6630  -24.4044 C.ar    1  UNL1        0.0134
     16 C          46.9025   13.9960  -25.6194 C.ar    1  UNL1        0.0597
     17 C          47.5220   11.6392  -24.9374 C.3     1  UNL1        0.1429
     18 C          49.0124   11.3187  -25.1443 C.3     1  UNL1        0.2027
     19 F          49.2419   11.0846  -26.4885 F       1  UNL1       -0.2334
     20 C          49.9492   12.4251  -24.6301 C.3     1  UNL1        0.1259
     21 N          50.3334   13.3530  -25.6947 N.pl3   1  UNL1       -0.3157
     22 H          50.5083   12.9613  -26.6468 H       1  UNL1        0.1483
     23 C          49.9400   16.9526  -26.4259 C.ar    1  UNL1        0.2261
     24 C          50.3503   17.5432  -25.2278 C.ar    1  UNL1        0.0578
     25 C          50.7607   16.7310  -24.1693 C.ar    1  UNL1        0.0077
     26 C          50.7567   15.3425  -24.3152 C.ar    1  UNL1        0.0343
     27 C          50.3364   14.7788  -25.5272 C.ar    1  UNL1        0.1317
     28 N          49.9458   15.5952  -26.5454 N.ar    1  UNL1       -0.1969
     29 C          49.2874   19.1571  -27.3407 C.3     1  UNL1        0.2542
     30 O          49.5273   17.7625  -27.4875 O.3     1  UNL1       -0.4561
@<TRIPOS>BOND
     1    29    30    1
     2    30    23    1
     3    23    24   ar
     4    24    25   ar
     5    25    26   ar
     6    26    27   ar
     7    27    21    1
     8    21    20    1
     9    20    18    1
    10    18    19    1
    11    18    17    1
    12    17     1    1
    13     1     2   ar
    14     2     3   ar
    15     3     4   ar
    16     4     5   ar
    17     5     6    1
    18     5     7   ar
    19     7     8   ar
    20     8     9   ar
    21     9    10   ar
    22    10    11   ar
    23    11    12    1
    24    11    13   ar
    25    13    14    1
    26    13    15   ar
    27    15    16   ar
    28    27    28   ar
    29    28    23   ar
    30    16     1   ar
    31     8     2   ar
    32    16     9   ar
    33    21    22    1
@<TRIPOS>MOLECULE
*****
 30 33 0 0 0
SMALL
GASTEIGER

@<TRIPOS>ATOM
      1 N          47.5975   13.2224  -26.1757 N.ar    1  UNL1       -0.3243
      2 C          47.7962   14.5435  -26.4264 C.ar    1  UNL1        0.0600
      3 C          46.8547   15.5054  -26.8096 C.ar    1  UNL1        0.0177
      4 C          47.2974   16.8250  -27.0129 C.ar    1  UNL1        0.0082
      5 C          48.6551   17.1657  -26.8263 C.ar    1  UNL1        0.0347
      6 BR         49.2306   18.9646  -27.1062 Br      1  UNL1       -0.0490
      7 C          49.5851   16.1892  -26.4286 C.ar    1  UNL1        0.0082
      8 C          49.1202   14.8897  -26.2364 C.ar    1  UNL1        0.0177
      9 C          49.7696   13.7428  -25.8434 C.ar    1  UNL1        0.0177
     10 C          51.1001   13.5083  -25.5109 C.ar    1  UNL1        0.0079
     11 C          51.4677   12.2052  -25.1299 C.ar    1  UNL1        0.0307
     12 BR         53.3021   11.8836  -24.6723 Br      1  UNL1       -0.0493
     13 C          50.4950   11.1665  -25.0860 C.ar    1  UNL1       -0.0142
     14 C          50.8808    9.7738  -24.6735 C.3     1  UNL1        0.0316
     15 C          49.1524   11.4456  -25.4290 C.ar    1  UNL1        0.0134
     16 C          48.8171   12.7472  -25.8118 C.ar    1  UNL1        0.0597
     17 C          46.3549   12.4509  -26.3148 C.3     1  UNL1        0.1429
     18 C          45.4679   12.5826  -25.0647 C.3     1  UNL1        0.2027
     19 F          44.2104   12.0798  -25.3479 F       1  UNL1       -0.2334
     20 C          46.0539   11.8820  -23.8270 C.3     1  UNL1        0.1259
     21 N          46.2493   12.8129  -22.7147 N.pl3   1  UNL1       -0.3157
     22 H          45.6704   12.6789  -21.8559 H       1  UNL1        0.1483
     23 C          48.0116   16.0364  -23.1020 C.ar    1  UNL1        0.2261
     24 C          49.3034   15.7193  -22.6737 C.ar    1  UNL1        0.0578
     25 C          49.5853   14.4186  -22.2527 C.ar    1  UNL1        0.0077
     26 C          48.5793   13.4506  -22.2617 C.ar    1  UNL1        0.0343
     27 C          47.2924   13.7990  -22.6931 C.ar    1  UNL1        0.1317
     28 N          47.0463   15.0746  -23.1034 N.ar    1  UNL1       -0.1969
     29 C          46.4467   17.9371  -23.3492 C.3     1  UNL1        0.2542
     30 O          47.7253   17.3378  -23.5233 O.3     1  UNL1       -0.4561
@<TRIPOS>BOND
     1    29    30    1
     2    30    23    1
     3    23    24   ar
     4    24    25   ar
     5    25    26   ar
     6    26    27   ar
     7    27    21    1
     8    21    20    1
     9    20    18    1
    10    18    19    1
    11    18    17    1
    12    17     1    1
    13     1     2   ar
    14     2     3   ar
    15     3     4   ar
    16     4     5   ar
    17     5     6    1
    18     5     7   ar
    19     7     8   ar
    20     8     9   ar
    21     9    10   ar
    22    10    11   ar
    23    11    12    1
    24    11    13   ar
    25    13    14    1
    26    13    15   ar
    27    15    16   ar
    28    27    28   ar
    29    28    23   ar
    30    16     1   ar
    31     8     2   ar
    32    16     9   ar
    33    21    22    1
@<TRIPOS>MOLECULE
*****
 30 33 0 0 0
SMALL
GASTEIGER

@<TRIPOS>ATOM
      1 N          47.5906   13.1365  -26.0311 N.ar    1  UNL1       -0.3243
      2 C          47.7816   14.4564  -26.2935 C.ar    1  UNL1        0.0600
      3 C          46.8298   15.4157  -26.6570 C.ar    1  UNL1        0.0177
      4 C          47.2660   16.7345  -26.8783 C.ar    1  UNL1        0.0082
      5 C          48.6278   17.0772  -26.7285 C.ar    1  UNL1        0.0347
      6 BR         49.1942   18.8751  -27.0322 Br      1  UNL1       -0.0490
      7 C          49.5685   16.1034  -26.3500 C.ar    1  UNL1        0.0082
      8 C          49.1098   14.8045  -26.1394 C.ar    1  UNL1        0.0177
      9 C          49.7702   13.6600  -25.7576 C.ar    1  UNL1        0.0177
     10 C          51.1090   13.4282  -25.4584 C.ar    1  UNL1        0.0079
     11 C          51.4874   12.1273  -25.0805 C.ar    1  UNL1        0.0307
     12 BR         53.3333   11.8094  -24.6689 Br      1  UNL1       -0.0493
     13 C          50.5171   11.0882  -25.0063 C.ar    1  UNL1       -0.0142
     14 C          50.9146    9.6978  -24.5970 C.3     1  UNL1        0.0316
     15 C          49.1659   11.3646  -25.3160 C.ar    1  UNL1        0.0134
     16 C          48.8197   12.6640  -25.6964 C.ar    1  UNL1        0.0597
     17 C          46.3455   12.3634  -26.1342 C.3     1  UNL1        0.1429
     18 C          45.3664   12.7200  -25.0025 C.3     1  UNL1        0.2027
     19 F          44.1610   12.0797  -25.2293 F       1  UNL1       -0.2334
     20 C          45.9001   12.3679  -23.6034 C.3     1  UNL1        0.1259
     21 N          46.5232   13.5204  -22.9512 N.pl3   1  UNL1       -0.3157
     22 H          45.9100   14.3212  -22.6806 H       1  UNL1        0.1483
     23 C          49.8092   12.3709  -21.7154 C.ar    1  UNL1        0.2261
     24 C          50.5548   13.5527  -21.7179 C.ar    1  UNL1        0.0578
     25 C          49.9534   14.7409  -22.1361 C.ar    1  UNL1        0.0077
     26 C          48.6193   14.7386  -22.5475 C.ar    1  UNL1        0.0343
     27 C          47.8979   13.5374  -22.5377 C.ar    1  UNL1        0.1317
     28 N          48.5082   12.3933  -22.1199 N.ar    1  UNL1       -0.1969
     29 C          49.6553   10.0511  -20.8681 C.3     1  UNL1        0.2542
     30 O          50.4082   11.1791  -21.2983 O.3     1  UNL1       -0.4561
@<TRIPOS>BOND
     1    29    30    1
     2    30    23    1
     3    23    24   ar
     4    24    25   ar
     5    25    26   ar
     6    26    27   ar
     7    27    21    1
     8    21    20    1
     9    20    18    1
    10    18    19    1
    11    18    17    1
    12    17     1    1
    13     1     2   ar
    14     2     3   ar
    15     3     4   ar
    16     4     5   ar
    17     5     6    1
    18     5     7   ar
    19     7     8   ar
    20     8     9   ar
    21     9    10   ar
    22    10    11   ar
    23    11    12    1
    24    11    13   ar
    25    13    14    1
    26    13    15   ar
    27    15    16   ar
    28    27    28   ar
    29    28    23   ar
    30    16     1   ar
    31     8     2   ar
    32    16     9   ar
    33    21    22    1
@<TRIPOS>MOLECULE
*****
 30 33 0 0 0
SMALL
GASTEIGER

@<TRIPOS>ATOM
      1 N          46.7146   14.6115  -24.6888 N.ar    1  UNL1       -0.3243
      2 C          46.5902   14.0475  -25.9192 C.ar    1  UNL1        0.0600
      3 C          46.1728   14.6494  -27.1117 C.ar    1  UNL1        0.0177
      4 C          46.1241   13.8586  -28.2739 C.ar    1  UNL1        0.0082
      5 C          46.4950   12.4966  -28.2342 C.ar    1  UNL1        0.0347
      6 BR         46.4225   11.4451  -29.8262 Br      1  UNL1       -0.0490
      7 C          46.9243   11.9115  -27.0301 C.ar    1  UNL1        0.0082
      8 C          46.9610   12.7168  -25.8935 C.ar    1  UNL1        0.0177
      9 C          47.3395   12.4433  -24.5998 C.ar    1  UNL1        0.0177
     10 C          47.8079   11.2751  -24.0071 C.ar    1  UNL1        0.0079
     11 C          48.1295   11.3100  -22.6382 C.ar    1  UNL1        0.0307
     12 BR         48.7746    9.6986  -21.8226 Br      1  UNL1       -0.0493
     13 C          47.9793   12.5142  -21.8938 C.ar    1  UNL1       -0.0142
     14 C          48.3273   12.5590  -20.4324 C.3     1  UNL1        0.0316
     15 C          47.5023   13.6811  -22.5332 C.ar    1  UNL1        0.0134
     16 C          47.1827   13.6155  -23.8922 C.ar    1  UNL1        0.0597
     17 C          46.3715   15.9807  -24.2810 C.3     1  UNL1        0.1429
     18 C          47.6316   16.8389  -24.0752 C.3     1  UNL1        0.2027
     19 F          48.2008   16.5205  -22.8550 F       1  UNL1       -0.2334
     20 C          48.6665   16.6795  -25.2021 C.3     1  UNL1        0.1259
     21 N          49.9915   16.3396  -24.6818 N.pl3   1  UNL1       -0.3157
     22 H          50.5854   17.1138  -24.3098 H       1  UNL1        0.1483
     23 C          51.3321   13.2680  -23.1280 C.ar    1  UNL1        0.2261
     24 C          51.3504   12.3771  -24.2043 C.ar    1  UNL1        0.0578
     25 C          50.9110   12.8078  -25.4572 C.ar    1  UNL1        0.0077
     26 C          50.4580   14.1179  -25.6236 C.ar    1  UNL1        0.0343
     27 C          50.4478   14.9875  -24.5249 C.ar    1  UNL1        0.1317
     28 N          50.8869   14.5423  -23.3146 N.ar    1  UNL1       -0.1969
     29 C          52.1222   13.7454  -20.8322 C.3     1  UNL1        0.2542
     30 O          51.7702   12.8400  -21.8717 O.3     1  UNL1       -0.4561
@<TRIPOS>BOND
     1    29    30    1
     2    30    23    1
     3    23    24   ar
     4    24    25   ar
     5    25    26   ar
     6    26    27   ar
     7    27    21    1
     8    21    20    1
     9    20    18    1
    10    18    19    1
    11    18    17    1
    12    17     1    1
    13     1     2   ar
    14     2     3   ar
    15     3     4   ar
    16     4     5   ar
    17     5     6    1
    18     5     7   ar
    19     7     8   ar
    20     8     9   ar
    21     9    10   ar
    22    10    11   ar
    23    11    12    1
    24    11    13   ar
    25    13    14    1
    26    13    15   ar
    27    15    16   ar
    28    27    28   ar
    29    28    23   ar
    30    16     1   ar
    31     8     2   ar
    32    16     9   ar
    33    21    22    1
@<TRIPOS>MOLECULE
*****
 30 33 0 0 0
SMALL
GASTEIGER

@<TRIPOS>ATOM
      1 N          47.3687   13.5714  -24.1836 N.ar    1  UNL1       -0.3243
      2 C          47.5044   14.8934  -24.4692 C.ar    1  UNL1        0.0600
      3 C          46.6125   15.9365  -24.1954 C.ar    1  UNL1        0.0177
      4 C          46.9721   17.2387  -24.5874 C.ar    1  UNL1        0.0082
      5 C          48.2046   17.4820  -25.2323 C.ar    1  UNL1        0.0347
      6 BR         48.6705   19.2592  -25.7520 Br      1  UNL1       -0.0490
      7 C          49.0944   16.4241  -25.4878 C.ar    1  UNL1        0.0082
      8 C          48.7124   15.1439  -25.0912 C.ar    1  UNL1        0.0177
      9 C          49.3581   13.9335  -25.1889 C.ar    1  UNL1        0.0177
     10 C          50.6008   13.5949  -25.7150 C.ar    1  UNL1        0.0079
     11 C          50.9983   12.2469  -25.6595 C.ar    1  UNL1        0.0307
     12 BR         52.7114   11.7818  -26.3856 Br      1  UNL1       -0.0493
     13 C          50.1455   11.2682  -25.0749 C.ar    1  UNL1       -0.0142
     14 C          50.5678    9.8275  -25.0071 C.3     1  UNL1        0.0316
     15 C          48.8911   11.6528  -24.5490 C.ar    1  UNL1        0.0134
     16 C          48.5183   12.9975  -24.6251 C.ar    1  UNL1        0.0597
     17 C          46.2163   12.8888  -23.5798 C.3     1  UNL1        0.1429
     18 C          45.0919   12.6680  -24.6062 C.3     1  UNL1        0.2027
     19 F          44.6020   13.8969  -25.0112 F       1  UNL1       -0.2334
     20 C          45.5364   11.8446  -25.8271 C.3     1  UNL1        0.1259
     21 N          46.0236   12.6974  -26.9122 N.pl3   1  UNL1       -0.3157
     22 H          46.3627   13.6546  -26.6687 H       1  UNL1        0.1483
     23 C          46.0520   12.6350  -30.6056 C.ar    1  UNL1        0.2261
     24 C          46.5000   11.3392  -30.8750 C.ar    1  UNL1        0.0578
     25 C          46.7943   10.4819  -29.8135 C.ar    1  UNL1        0.0077
     26 C          46.6408   10.9243  -28.4983 C.ar    1  UNL1        0.0343
     27 C          46.1932   12.2304  -28.2590 C.ar    1  UNL1        0.1317
     28 N          45.9084   13.0442  -29.3138 N.ar    1  UNL1       -0.1969
     29 C          45.2569   13.0338  -32.9147 C.3     1  UNL1        0.2542
     30 O          45.7573   13.4966  -31.6659 O.3     1  UNL1       -0.4561
@<TRIPOS>BOND
     1    29    30    1
     2    30    23    1
     3    23    24   ar
     4    24    25   ar
     5    25    26   ar
     6    26    27   ar
     7    27    21    1
     8    21    20    1
     9    20    18    1
    10    18    19    1
    11    18    17    1
    12    17     1    1
    13     1     2   ar
    14     2     3   ar
    15     3     4   ar
    16     4     5   ar
    17     5     6    1
    18     5     7   ar
    19     7     8   ar
    20     8     9   ar
    21     9    10   ar
    22    10    11   ar
    23    11    12    1
    24    11    13   ar
    25    13    14    1
    26    13    15   ar
    27    15    16   ar
    28    27    28   ar
    29    28    23   ar
    30    16     1   ar
    31     8     2   ar
    32    16     9   ar
    33    21    22    1
@<TRIPOS>MOLECULE
*****
 30 33 0 0 0
SMALL
GASTEIGER

@<TRIPOS>ATOM
      1 N          46.9368   14.1794  -24.0982 N.ar    1  UNL1       -0.3243
      2 C          47.8225   15.1029  -24.5567 C.ar    1  UNL1        0.0600
      3 C          47.7586   15.8574  -25.7336 C.ar    1  UNL1        0.0177
      4 C          48.8017   16.7624  -26.0006 C.ar    1  UNL1        0.0082
      5 C          49.8780   16.9072  -25.0980 C.ar    1  UNL1        0.0347
      6 BR         51.2806   18.1445  -25.4821 Br      1  UNL1       -0.0490
      7 C          49.9196   16.1505  -23.9139 C.ar    1  UNL1        0.0082
      8 C          48.8748   15.2599  -23.6752 C.ar    1  UNL1        0.0177
      9 C          48.6310   14.4086  -22.6229 C.ar    1  UNL1        0.0177
     10 C          49.3479   14.1606  -21.4566 C.ar    1  UNL1        0.0079
     11 C          48.8279   13.2229  -20.5464 C.ar    1  UNL1        0.0307
     12 BR         49.8176   12.8819  -18.9395 Br      1  UNL1       -0.0493
     13 C          47.5998   12.5572  -20.8212 C.ar    1  UNL1       -0.0142
     14 C          47.0362   11.5590  -19.8493 C.3     1  UNL1        0.0316
     15 C          46.8998   12.8386  -22.0166 C.ar    1  UNL1        0.0134
     16 C          47.4439   13.7685  -22.9067 C.ar    1  UNL1        0.0597
     17 C          45.7216   13.6838  -24.7587 C.3     1  UNL1        0.1429
     18 C          45.9409   12.2874  -25.3659 C.3     1  UNL1        0.2027
     19 F          44.7169   11.7576  -25.7343 F       1  UNL1       -0.2334
     20 C          46.9017   12.2909  -26.5672 C.3     1  UNL1        0.1259
     21 N          48.0191   11.3655  -26.3746 N.pl3   1  UNL1       -0.3157
     22 H          48.0603   10.5144  -26.9784 H       1  UNL1        0.1483
     23 C          50.2811   11.2512  -23.4563 C.ar    1  UNL1        0.2261
     24 C          51.2581   12.1878  -23.8039 C.ar    1  UNL1        0.0578
     25 C          51.1584   12.8611  -25.0226 C.ar    1  UNL1        0.0077
     26 C          50.0899   12.5936  -25.8803 C.ar    1  UNL1        0.0343
     27 C          49.1274   11.6463  -25.5064 C.ar    1  UNL1        0.1317
     28 N          49.2465   11.0076  -24.3090 N.ar    1  UNL1       -0.1969
     29 C          49.5822    9.4369  -21.9256 C.3     1  UNL1        0.2542
     30 O          50.3781   10.5743  -22.2374 O.3     1  UNL1       -0.4561
@<TRIPOS>BOND
     1    29    30    1
     2    30    23    1
     3    23    24   ar
     4    24    25   ar
     5    25    26   ar
     6    26    27   ar
     7    27    21    1
     8    21    20    1
     9    20    18    1
    10    18    19    1
    11    18    17    1
    12    17     1    1
    13     1     2   ar
    14     2     3   ar
    15     3     4   ar
    16     4     5   ar
    17     5     6    1
    18     5     7   ar
    19     7     8   ar
    20     8     9   ar
    21     9    10   ar
    22    10    11   ar
    23    11    12    1
    24    11    13   ar
    25    13    14    1
    26    13    15   ar
    27    15    16   ar
    28    27    28   ar
    29    28    23   ar
    30    16     1   ar
    31     8     2   ar
    32    16     9   ar
    33    21    22    1
@<TRIPOS>MOLECULE
*****
 30 33 0 0 0
SMALL
GASTEIGER

@<TRIPOS>ATOM
      1 N          46.9111   14.1165  -23.9379 N.ar    1  UNL1       -0.3243
      2 C          47.4364   13.6995  -22.7556 C.ar    1  UNL1        0.0600
      3 C          46.9442   12.7214  -21.8840 C.ar    1  UNL1        0.0177
      4 C          47.6668   12.4556  -20.7068 C.ar    1  UNL1        0.0082
      5 C          48.8603   13.1544  -20.4213 C.ar    1  UNL1        0.0347
      6 BR         49.8242   12.7733  -18.8178 Br      1  UNL1       -0.0490
      7 C          49.3472   14.1247  -21.3145 C.ar    1  UNL1        0.0082
      8 C          48.6107   14.3699  -22.4719 C.ar    1  UNL1        0.0177
      9 C          48.8305   15.2310  -23.5215 C.ar    1  UNL1        0.0177
     10 C          49.8583   16.1357  -23.7680 C.ar    1  UNL1        0.0079
     11 C          49.8116   16.8827  -24.9588 C.ar    1  UNL1        0.0307
     12 BR         51.2289   18.1297  -25.2967 Br      1  UNL1       -0.0493
     13 C          48.7397   16.7048  -25.8787 C.ar    1  UNL1       -0.0142
     14 C          48.6879   17.4957  -27.1557 C.3     1  UNL1        0.0316
     15 C          47.7153   15.7736  -25.5931 C.ar    1  UNL1        0.0134
     16 C          47.7828   15.0511  -24.3987 C.ar    1  UNL1        0.0597
     17 C          45.6512   13.6979  -24.5672 C.3     1  UNL1        0.1429
     18 C          45.7813   12.3101  -25.2181 C.3     1  UNL1        0.2027
     19 F          44.5211   11.8498  -25.5565 F       1  UNL1       -0.2334
     20 C          46.6994   12.3011  -26.4522 C.3     1  UNL1        0.1259
     21 N          47.8164   11.3687  -26.2944 N.pl3   1  UNL1       -0.3157
     22 H          47.8251   10.5093  -26.8876 H       1  UNL1        0.1483
     23 C          50.2140   11.2519  -23.4865 C.ar    1  UNL1        0.2261
     24 C          51.1681   12.1964  -23.8742 C.ar    1  UNL1        0.0578
     25 C          51.0072   12.8758  -25.0829 C.ar    1  UNL1        0.0077
     26 C          49.9010   12.6066  -25.8909 C.ar    1  UNL1        0.0343
     27 C          48.9627   11.6514  -25.4777 C.ar    1  UNL1        0.1317
     28 N          49.1418   11.0068  -24.2909 N.ar    1  UNL1       -0.1969
     29 C          49.5908    9.4318  -21.9304 C.3     1  UNL1        0.2542
     30 O          50.3722   10.5689  -22.2775 O.3     1  UNL1       -0.4561
@<TRIPOS>BOND
     1    29    30    1
     2    30    23    1
     3    23    24   ar
     4    24    25   ar
     5    25    26   ar
     6    26    27   ar
     7    27    21    1
     8    21    20    1
     9    20    18    1
    10    18    19    1
    11    18    17    1
    12    17     1    1
    13     1     2   ar
    14     2     3   ar
    15     3     4   ar
    16     4     5   ar
    17     5     6    1
    18     5     7   ar
    19     7     8   ar
    20     8     9   ar
    21     9    10   ar
    22    10    11   ar
    23    11    12    1
    24    11    13   ar
    25    13    14    1
    26    13    15   ar
    27    15    16   ar
    28    27    28   ar
    29    28    23   ar
    30    16     1   ar
    31     8     2   ar
    32    16     9   ar
    33    21    22    1
