@<TRIPOS>MOLECULE
*****
 35 38 0 0 0
SMALL
GASTEIGER

@<TRIPOS>ATOM
      1 C         -23.9666  -14.1027  -15.1357 C.ar    1  UNL1        0.1718
      2 C         -24.6801  -13.5722  -14.0494 C.ar    1  UNL1        0.0400
      3 C         -24.3683  -12.3111  -13.5489 C.ar    1  UNL1        0.0030
      4 C         -23.3168  -11.5614  -14.0966 C.ar    1  UNL1       -0.0015
      5 C         -22.5413  -12.1167  -15.1463 C.ar    1  UNL1        0.0145
      6 C         -22.9145  -13.3679  -15.7015 C.ar    1  UNL1        0.1636
      7 O         -22.2788  -13.9076  -16.8237 O.3     1  UNL1       -0.5031
      8 C         -21.3284  -11.3525  -15.6318 C.3     1  UNL1        0.0299
      9 C         -21.7267  -10.1415  -16.4879 C.3     1  UNL1        0.0091
     10 C         -22.8914   -9.3154  -15.9070 C.3     1  UNL1        0.0227
     11 C         -22.8021   -9.1342  -14.4004 C.2     1  UNL1       -0.0398
     12 C         -23.0529  -10.1872  -13.5686 C.2     1  UNL1       -0.0076
     13 H         -21.6385  -13.3929  -17.4120 H       1  UNL1        0.2923
     14 C         -23.0401  -10.0215  -12.0991 C.ar    1  UNL1        0.0056
     15 C         -24.2293   -9.8066  -11.4003 C.ar    1  UNL1        0.0402
     16 C         -24.2133   -9.6355  -10.0055 C.ar    1  UNL1        0.1754
     17 C         -22.9945   -9.6725   -9.3060 C.ar    1  UNL1        0.2061
     18 C         -21.7845   -9.9035  -10.0120 C.ar    1  UNL1        0.1754
     19 C         -21.8295  -10.0923  -11.4061 C.ar    1  UNL1        0.0402
     20 O         -25.3917   -9.4133   -9.2744 O.3     1  UNL1       -0.4683
     21 C         -26.4869   -8.6236   -9.7270 C.3     1  UNL1        0.2526
     22 O         -23.0595   -9.4679   -7.9144 O.3     1  UNL1       -0.4654
     23 C         -22.2734   -8.5580   -7.1532 C.3     1  UNL1        0.2528
     24 O         -20.5624   -9.9382   -9.3222 O.3     1  UNL1       -0.4683
     25 C         -19.3098   -9.5240   -9.8585 C.3     1  UNL1        0.2526
     26 C         -25.2154  -15.5601  -16.7435 C.3     1  UNL1        0.2526
     27 O         -24.2794  -15.3545  -15.6902 O.3     1  UNL1       -0.4684
     28 C         -22.5245   -7.7335  -13.8661 C.3     1  UNL1        0.0487
     29 C         -23.7710   -7.0280  -13.3665 C.ar    1  UNL1       -0.0127
     30 C         -24.9886   -7.2161  -14.0481 C.ar    1  UNL1       -0.0035
     31 C         -26.1437   -6.5442  -13.6450 C.ar    1  UNL1       -0.0003
     32 C         -26.1091   -5.6975  -12.5384 C.ar    1  UNL1        0.0004
     33 C         -24.9254   -5.5412  -11.8168 C.ar    1  UNL1        0.0055
     34 C         -23.7595   -6.2122  -12.2073 C.ar    1  UNL1        0.0264
     35 I         -22.0626   -5.9678  -10.9527 I       1  UNL1       -0.0428
@<TRIPOS>BOND
     1    26    27    1
     2    27     1    1
     3     1     2   ar
     4     2     3   ar
     5     3     4   ar
     6     4     5   ar
     7     5     6   ar
     8     6     7    1
     9     5     8    1
    10     8     9    1
    11     9    10    1
    12    10    11    1
    13    11    28    1
    14    28    29    1
    15    29    30   ar
    16    30    31   ar
    17    31    32   ar
    18    32    33   ar
    19    33    34   ar
    20    34    35    1
    21    11    12    2
    22    12    14    1
    23    14    15   ar
    24    15    16   ar
    25    16    20    1
    26    20    21    1
    27    16    17   ar
    28    17    22    1
    29    22    23    1
    30    17    18   ar
    31    18    24    1
    32    24    25    1
    33    18    19   ar
    34     6     1   ar
    35    34    29   ar
    36    19    14   ar
    37    12     4    1
    38     7    13    1
@<TRIPOS>MOLECULE
*****
 35 38 0 0 0
SMALL
GASTEIGER

@<TRIPOS>ATOM
      1 C         -21.0235   -7.6275  -10.1970 C.ar    1  UNL1        0.1718
      2 C         -22.1959   -6.8805  -10.3915 C.ar    1  UNL1        0.0400
      3 C         -23.1354   -7.2763  -11.3395 C.ar    1  UNL1        0.0030
      4 C         -22.9150   -8.4070  -12.1399 C.ar    1  UNL1       -0.0015
      5 C         -21.7013   -9.1281  -12.0039 C.ar    1  UNL1        0.0145
      6 C         -20.7853   -8.7643  -10.9832 C.ar    1  UNL1        0.1636
      7 O         -19.6379   -9.5135  -10.7063 O.3     1  UNL1       -0.5031
      8 C         -21.4214  -10.2614  -12.9673 C.3     1  UNL1        0.0299
      9 C         -22.2639  -11.5033  -12.6418 C.3     1  UNL1        0.0091
     10 C         -23.7417  -11.1970  -12.3276 C.3     1  UNL1        0.0227
     11 C         -24.3402  -10.1401  -13.2416 C.2     1  UNL1       -0.0398
     12 C         -23.9758   -8.8317  -13.1048 C.2     1  UNL1       -0.0076
     13 H         -19.4605  -10.4345  -11.0822 H       1  UNL1        0.2923
     14 C         -24.5934   -7.7746  -13.9346 C.ar    1  UNL1        0.0056
     15 C         -25.7736   -7.1517  -13.5249 C.ar    1  UNL1        0.0402
     16 C         -26.3663   -6.1573  -14.3217 C.ar    1  UNL1        0.1754
     17 C         -25.7753   -5.7894  -15.5430 C.ar    1  UNL1        0.2061
     18 C         -24.5682   -6.4120  -15.9567 C.ar    1  UNL1        0.1754
     19 C         -23.9835   -7.3904  -15.1310 C.ar    1  UNL1        0.0402
     20 O         -27.5554   -5.5150  -13.9395 O.3     1  UNL1       -0.4683
     21 C         -28.8565   -5.8994  -14.3721 C.3     1  UNL1        0.2526
     22 O         -26.4429   -4.8037  -16.2950 O.3     1  UNL1       -0.4654
     23 C         -26.2962   -3.3941  -16.1659 C.3     1  UNL1        0.2528
     24 O         -23.9733   -6.0536  -17.1765 O.3     1  UNL1       -0.4683
     25 C         -24.5829   -6.1968  -18.4557 C.3     1  UNL1        0.2526
     26 C         -19.9474   -7.9125   -7.9544 C.3     1  UNL1        0.2526
     27 O         -20.0731   -7.2791   -9.2236 O.3     1  UNL1       -0.4684
     28 C         -25.4153  -10.5783  -14.2298 C.3     1  UNL1        0.0487
     29 C         -25.2067  -11.9874  -14.7516 C.ar    1  UNL1       -0.0127
     30 C         -25.9716  -13.0406  -14.2149 C.ar    1  UNL1       -0.0035
     31 C         -25.7710  -14.3559  -14.6369 C.ar    1  UNL1       -0.0003
     32 C         -24.8255  -14.6370  -15.6216 C.ar    1  UNL1        0.0004
     33 C         -24.0970  -13.6002  -16.2050 C.ar    1  UNL1        0.0055
     34 C         -24.2905  -12.2751  -15.7943 C.ar    1  UNL1        0.0264
     35 I         -23.1944  -10.7896  -16.8456 I       1  UNL1       -0.0428
@<TRIPOS>BOND
     1    26    27    1
     2    27     1    1
     3     1     2   ar
     4     2     3   ar
     5     3     4   ar
     6     4     5   ar
     7     5     6   ar
     8     6     7    1
     9     5     8    1
    10     8     9    1
    11     9    10    1
    12    10    11    1
    13    11    28    1
    14    28    29    1
    15    29    30   ar
    16    30    31   ar
    17    31    32   ar
    18    32    33   ar
    19    33    34   ar
    20    34    35    1
    21    11    12    2
    22    12    14    1
    23    14    15   ar
    24    15    16   ar
    25    16    20    1
    26    20    21    1
    27    16    17   ar
    28    17    22    1
    29    22    23    1
    30    17    18   ar
    31    18    24    1
    32    24    25    1
    33    18    19   ar
    34     6     1   ar
    35    34    29   ar
    36    19    14   ar
    37    12     4    1
    38     7    13    1
@<TRIPOS>MOLECULE
*****
 35 38 0 0 0
SMALL
GASTEIGER

@<TRIPOS>ATOM
      1 C         -23.9600  -14.0996  -15.1315 C.ar    1  UNL1        0.1718
      2 C         -24.6752  -13.5679  -14.0470 C.ar    1  UNL1        0.0400
      3 C         -24.3703  -12.3024  -13.5534 C.ar    1  UNL1        0.0030
      4 C         -23.3241  -11.5492  -14.1064 C.ar    1  UNL1       -0.0015
      5 C         -22.5466  -12.1052  -15.1543 C.ar    1  UNL1        0.0145
      6 C         -22.9130  -13.3614  -15.7025 C.ar    1  UNL1        0.1636
      7 O         -22.2756  -13.9031  -16.8228 O.3     1  UNL1       -0.5031
      8 C         -21.3390  -11.3362  -15.6453 C.3     1  UNL1        0.0299
      9 C         -21.7457  -10.1320  -16.5070 C.3     1  UNL1        0.0091
     10 C         -22.9146   -9.3100  -15.9288 C.3     1  UNL1        0.0227
     11 C         -22.8244   -9.1205  -14.4233 C.2     1  UNL1       -0.0398
     12 C         -23.0677  -10.1707  -13.5858 C.2     1  UNL1       -0.0076
     13 H         -21.6392  -13.3876  -17.4146 H       1  UNL1        0.2923
     14 C         -23.0539   -9.9974  -12.1171 C.ar    1  UNL1        0.0056
     15 C         -21.8496  -10.0265  -11.4118 C.ar    1  UNL1        0.0402
     16 C         -21.8401   -9.8754  -10.0147 C.ar    1  UNL1        0.1754
     17 C         -23.0484   -9.7014   -9.3176 C.ar    1  UNL1        0.2061
     18 C         -24.2740   -9.6587  -10.0331 C.ar    1  UNL1        0.1754
     19 C         -24.2549   -9.7918  -11.4342 C.ar    1  UNL1        0.0402
     20 O         -20.6459   -9.9044   -9.2760 O.3     1  UNL1       -0.4683
     21 C         -19.3758   -9.4997   -9.7769 C.3     1  UNL1        0.2526
     22 O         -22.9573   -9.5824   -7.9175 O.3     1  UNL1       -0.4654
     23 C         -22.4164   -8.4833   -7.1931 C.3     1  UNL1        0.2528
     24 O         -25.4856   -9.4893   -9.3448 O.3     1  UNL1       -0.4683
     25 C         -26.5377   -8.6172   -9.7459 C.3     1  UNL1        0.2526
     26 C         -25.1925  -15.5713  -16.7389 C.3     1  UNL1        0.2526
     27 O         -24.2660  -15.3561  -15.6792 O.3     1  UNL1       -0.4684
     28 C         -22.5544   -7.7154  -13.8966 C.3     1  UNL1        0.0487
     29 C         -23.8028   -7.0190  -13.3889 C.ar    1  UNL1       -0.0127
     30 C         -25.0213   -7.2079  -14.0685 C.ar    1  UNL1       -0.0035
     31 C         -26.1784   -6.5439  -13.6579 C.ar    1  UNL1       -0.0003
     32 C         -26.1446   -5.7045  -12.5458 C.ar    1  UNL1        0.0004
     33 C         -24.9597   -5.5478  -11.8262 C.ar    1  UNL1        0.0055
     34 C         -23.7919   -6.2109  -12.2243 C.ar    1  UNL1        0.0264
     35 I         -22.0928   -5.9673  -10.9725 I       1  UNL1       -0.0428
@<TRIPOS>BOND
     1    26    27    1
     2    27     1    1
     3     1     2   ar
     4     2     3   ar
     5     3     4   ar
     6     4     5   ar
     7     5     6   ar
     8     6     7    1
     9     5     8    1
    10     8     9    1
    11     9    10    1
    12    10    11    1
    13    11    28    1
    14    28    29    1
    15    29    30   ar
    16    30    31   ar
    17    31    32   ar
    18    32    33   ar
    19    33    34   ar
    20    34    35    1
    21    11    12    2
    22    12    14    1
    23    14    15   ar
    24    15    16   ar
    25    16    20    1
    26    20    21    1
    27    16    17   ar
    28    17    22    1
    29    22    23    1
    30    17    18   ar
    31    18    24    1
    32    24    25    1
    33    18    19   ar
    34     6     1   ar
    35    34    29   ar
    36    19    14   ar
    37    12     4    1
    38     7    13    1
@<TRIPOS>MOLECULE
*****
 35 38 0 0 0
SMALL
GASTEIGER

@<TRIPOS>ATOM
      1 C         -21.0486   -7.5632  -10.2516 C.ar    1  UNL1        0.1718
      2 C         -22.2229   -6.8212  -10.4541 C.ar    1  UNL1        0.0400
      3 C         -23.1619   -7.2302  -11.3969 C.ar    1  UNL1        0.0030
      4 C         -22.9393   -8.3696  -12.1843 C.ar    1  UNL1       -0.0015
      5 C         -21.7238   -9.0862  -12.0406 C.ar    1  UNL1        0.0145
      6 C         -20.8082   -8.7085  -11.0247 C.ar    1  UNL1        0.1636
      7 O         -19.6589   -9.4518  -10.7397 O.3     1  UNL1       -0.5031
      8 C         -21.4418  -10.2299  -12.9909 C.3     1  UNL1        0.0299
      9 C         -22.2812  -11.4699  -12.6507 C.3     1  UNL1        0.0091
     10 C         -23.7596  -11.1635  -12.3393 C.3     1  UNL1        0.0227
     11 C         -24.3609  -10.1186  -13.2651 C.2     1  UNL1       -0.0398
     12 C         -23.9996   -8.8078  -13.1437 C.2     1  UNL1       -0.0076
     13 H         -19.4796  -10.3766  -11.1050 H       1  UNL1        0.2923
     14 C         -24.6200   -7.7619  -13.9854 C.ar    1  UNL1        0.0056
     15 C         -24.0295   -7.3807  -15.1914 C.ar    1  UNL1        0.0402
     16 C         -24.6133   -6.3768  -15.9829 C.ar    1  UNL1        0.1754
     17 C         -25.7948   -5.7443  -15.5584 C.ar    1  UNL1        0.2061
     18 C         -26.4050   -6.1384  -14.3384 C.ar    1  UNL1        0.1754
     19 C         -25.8117   -7.1606  -13.5741 C.ar    1  UNL1        0.0402
     20 O         -24.0414   -5.9679  -17.1987 O.3     1  UNL1       -0.4683
     21 C         -24.5749   -6.2685  -18.4844 C.3     1  UNL1        0.2526
     22 O         -26.3035   -4.7318  -16.3943 O.3     1  UNL1       -0.4654
     23 C         -26.2981   -3.3331  -16.1322 C.3     1  UNL1        0.2528
     24 O         -27.5827   -5.5096  -13.9049 O.3     1  UNL1       -0.4683
     25 C         -28.8886   -5.7925  -14.3977 C.3     1  UNL1        0.2526
     26 C         -19.9586   -7.8320   -8.0136 C.3     1  UNL1        0.2526
     27 O         -20.0986   -7.2013   -9.2827 O.3     1  UNL1       -0.4684
     28 C         -25.4355  -10.5707  -14.2477 C.3     1  UNL1        0.0487
     29 C         -25.2190  -11.9820  -14.7602 C.ar    1  UNL1       -0.0127
     30 C         -25.9796  -13.0356  -14.2181 C.ar    1  UNL1       -0.0035
     31 C         -25.7717  -14.3525  -14.6315 C.ar    1  UNL1       -0.0003
     32 C         -24.8230  -14.6351  -15.6127 C.ar    1  UNL1        0.0004
     33 C         -24.0985  -13.5984  -16.2013 C.ar    1  UNL1        0.0055
     34 C         -24.2994  -12.2717  -15.7994 C.ar    1  UNL1        0.0264
     35 I         -23.2087  -10.7875  -16.8580 I       1  UNL1       -0.0428
@<TRIPOS>BOND
     1    26    27    1
     2    27     1    1
     3     1     2   ar
     4     2     3   ar
     5     3     4   ar
     6     4     5   ar
     7     5     6   ar
     8     6     7    1
     9     5     8    1
    10     8     9    1
    11     9    10    1
    12    10    11    1
    13    11    28    1
    14    28    29    1
    15    29    30   ar
    16    30    31   ar
    17    31    32   ar
    18    32    33   ar
    19    33    34   ar
    20    34    35    1
    21    11    12    2
    22    12    14    1
    23    14    15   ar
    24    15    16   ar
    25    16    20    1
    26    20    21    1
    27    16    17   ar
    28    17    22    1
    29    22    23    1
    30    17    18   ar
    31    18    24    1
    32    24    25    1
    33    18    19   ar
    34     6     1   ar
    35    34    29   ar
    36    19    14   ar
    37    12     4    1
    38     7    13    1
@<TRIPOS>MOLECULE
*****
 35 38 0 0 0
SMALL
GASTEIGER

@<TRIPOS>ATOM
      1 C         -24.4611  -14.0540  -15.3502 C.ar    1  UNL1        0.1718
      2 C         -25.5818  -13.2968  -14.9747 C.ar    1  UNL1        0.0400
      3 C         -25.4368  -11.9688  -14.5829 C.ar    1  UNL1        0.0030
      4 C         -24.1685  -11.3722  -14.5240 C.ar    1  UNL1       -0.0015
      5 C         -23.0214  -12.1479  -14.8306 C.ar    1  UNL1        0.0145
      6 C         -23.1842  -13.4757  -15.3033 C.ar    1  UNL1        0.1636
      7 O         -22.1078  -14.2473  -15.7513 O.3     1  UNL1       -0.5031
      8 C         -21.6549  -11.5287  -14.6304 C.3     1  UNL1        0.0299
      9 C         -21.3294  -10.5063  -15.7290 C.3     1  UNL1        0.0091
     10 C         -22.4916   -9.5506  -16.0642 C.3     1  UNL1        0.0227
     11 C         -23.2441   -9.0705  -14.8338 C.2     1  UNL1       -0.0398
     12 C         -24.0624   -9.9267  -14.1551 C.2     1  UNL1       -0.0076
     13 H         -21.1838  -13.8787  -15.9282 H       1  UNL1        0.2923
     14 C         -24.8584   -9.4674  -12.9964 C.ar    1  UNL1        0.0056
     15 C         -24.3942   -9.6660  -11.6948 C.ar    1  UNL1        0.0402
     16 C         -25.1587   -9.2412  -10.5948 C.ar    1  UNL1        0.1754
     17 C         -26.4023   -8.6189  -10.8006 C.ar    1  UNL1        0.2061
     18 C         -26.8716   -8.4039  -12.1233 C.ar    1  UNL1        0.1754
     19 C         -26.0778   -8.8201  -13.2085 C.ar    1  UNL1        0.0402
     20 O         -24.7216   -9.4303   -9.2736 O.3     1  UNL1       -0.4683
     21 C         -23.3569   -9.5368   -8.8812 C.3     1  UNL1        0.2526
     22 O         -27.1189   -8.2450   -9.6476 O.3     1  UNL1       -0.4654
     23 C         -27.5461   -6.9320   -9.3030 C.3     1  UNL1        0.2528
     24 O         -28.1140   -7.7868  -12.3380 O.3     1  UNL1       -0.4683
     25 C         -28.6103   -7.3694  -13.6059 C.3     1  UNL1        0.2526
     26 C         -25.0827  -15.7754  -17.0588 C.3     1  UNL1        0.2526
     27 O         -24.5751  -15.3838  -15.7872 O.3     1  UNL1       -0.4684
     28 C         -23.1266   -7.5982  -14.4559 C.3     1  UNL1        0.0487
     29 C         -22.3976   -7.3756  -13.1443 C.ar    1  UNL1       -0.0127
     30 C         -21.1409   -7.9782  -12.9442 C.ar    1  UNL1       -0.0035
     31 C         -20.4651   -7.8345  -11.7314 C.ar    1  UNL1       -0.0003
     32 C         -21.0185   -7.0637  -10.7105 C.ar    1  UNL1        0.0004
     33 C         -22.2366   -6.4136  -10.9097 C.ar    1  UNL1        0.0055
     34 C         -22.9240   -6.5454  -12.1230 C.ar    1  UNL1        0.0264
     35 I         -24.7093   -5.4119  -12.3264 I       1  UNL1       -0.0428
@<TRIPOS>BOND
     1    26    27    1
     2    27     1    1
     3     1     2   ar
     4     2     3   ar
     5     3     4   ar
     6     4     5   ar
     7     5     6   ar
     8     6     7    1
     9     5     8    1
    10     8     9    1
    11     9    10    1
    12    10    11    1
    13    11    28    1
    14    28    29    1
    15    29    30   ar
    16    30    31   ar
    17    31    32   ar
    18    32    33   ar
    19    33    34   ar
    20    34    35    1
    21    11    12    2
    22    12    14    1
    23    14    15   ar
    24    15    16   ar
    25    16    20    1
    26    20    21    1
    27    16    17   ar
    28    17    22    1
    29    22    23    1
    30    17    18   ar
    31    18    24    1
    32    24    25    1
    33    18    19   ar
    34     6     1   ar
    35    34    29   ar
    36    19    14   ar
    37    12     4    1
    38     7    13    1
@<TRIPOS>MOLECULE
*****
 35 38 0 0 0
SMALL
GASTEIGER

@<TRIPOS>ATOM
      1 C         -27.4527   -6.1418  -13.9112 C.ar    1  UNL1        0.1718
      2 C         -27.9235   -7.4608  -14.0054 C.ar    1  UNL1        0.0400
      3 C         -27.1461   -8.5217  -13.5491 C.ar    1  UNL1        0.0030
      4 C         -25.8671   -8.2979  -13.0180 C.ar    1  UNL1       -0.0015
      5 C         -25.3505   -6.9774  -12.9846 C.ar    1  UNL1        0.0145
      6 C         -26.1786   -5.8951  -13.3791 C.ar    1  UNL1        0.1636
      7 O         -25.7817   -4.5614  -13.2430 O.3     1  UNL1       -0.5031
      8 C         -23.9198   -6.7717  -12.5357 C.3     1  UNL1        0.0299
      9 C         -23.7744   -6.9298  -11.0152 C.3     1  UNL1        0.0091
     10 C         -24.5256   -8.1439  -10.4336 C.3     1  UNL1        0.0227
     11 C         -24.4134   -9.3872  -11.3009 C.2     1  UNL1       -0.0398
     12 C         -25.0889   -9.4585  -12.4850 C.2     1  UNL1       -0.0076
     13 H         -24.9725   -4.2642  -12.7160 H       1  UNL1        0.2923
     14 C         -25.0520  -10.6823  -13.3145 C.ar    1  UNL1        0.0056
     15 C         -25.4344  -11.9132  -12.7783 C.ar    1  UNL1        0.0402
     16 C         -25.3853  -13.0772  -13.5642 C.ar    1  UNL1        0.1754
     17 C         -24.9420  -13.0084  -14.8965 C.ar    1  UNL1        0.2061
     18 C         -24.5643  -11.7561  -15.4489 C.ar    1  UNL1        0.1754
     19 C         -24.6420  -10.6018  -14.6473 C.ar    1  UNL1        0.0402
     20 O         -25.7591  -14.3307  -13.0529 O.3     1  UNL1       -0.4683
     21 C         -26.4589  -14.5281  -11.8285 C.3     1  UNL1        0.2526
     22 O         -24.8980  -14.2216  -15.6099 O.3     1  UNL1       -0.4654
     23 C         -23.7882  -15.1067  -15.7104 C.3     1  UNL1        0.2528
     24 O         -24.1167  -11.6788  -16.7771 O.3     1  UNL1       -0.4683
     25 C         -22.7579  -11.5210  -17.1731 C.3     1  UNL1        0.2526
     26 C         -29.4513   -5.1466  -15.0442 C.3     1  UNL1        0.2526
     27 O         -28.2257   -5.0453  -14.3261 O.3     1  UNL1       -0.4684
     28 C         -23.6121  -10.5651  -10.7579 C.3     1  UNL1        0.0487
     29 C         -22.1618  -10.2206  -10.4767 C.ar    1  UNL1       -0.0127
     30 C         -21.8475   -9.4243   -9.3589 C.ar    1  UNL1       -0.0035
     31 C         -20.5289   -9.0477   -9.0985 C.ar    1  UNL1       -0.0003
     32 C         -19.5004   -9.4839   -9.9320 C.ar    1  UNL1        0.0004
     33 C         -19.7852  -10.3190  -11.0125 C.ar    1  UNL1        0.0055
     34 C         -21.1032  -10.7082  -11.2836 C.ar    1  UNL1        0.0264
     35 I         -21.3755  -12.0692  -12.8920 I       1  UNL1       -0.0428
@<TRIPOS>BOND
     1    26    27    1
     2    27     1    1
     3     1     2   ar
     4     2     3   ar
     5     3     4   ar
     6     4     5   ar
     7     5     6   ar
     8     6     7    1
     9     5     8    1
    10     8     9    1
    11     9    10    1
    12    10    11    1
    13    11    28    1
    14    28    29    1
    15    29    30   ar
    16    30    31   ar
    17    31    32   ar
    18    32    33   ar
    19    33    34   ar
    20    34    35    1
    21    11    12    2
    22    12    14    1
    23    14    15   ar
    24    15    16   ar
    25    16    20    1
    26    20    21    1
    27    16    17   ar
    28    17    22    1
    29    22    23    1
    30    17    18   ar
    31    18    24    1
    32    24    25    1
    33    18    19   ar
    34     6     1   ar
    35    34    29   ar
    36    19    14   ar
    37    12     4    1
    38     7    13    1
@<TRIPOS>MOLECULE
*****
 35 38 0 0 0
SMALL
GASTEIGER

@<TRIPOS>ATOM
      1 C         -27.4489   -6.1476  -13.8944 C.ar    1  UNL1        0.1718
      2 C         -27.9128   -7.4678  -14.0047 C.ar    1  UNL1        0.0400
      3 C         -27.1324   -8.5295  -13.5556 C.ar    1  UNL1        0.0030
      4 C         -25.8572   -8.3051  -13.0159 C.ar    1  UNL1       -0.0015
      5 C         -25.3472   -6.9826  -12.9662 C.ar    1  UNL1        0.0145
      6 C         -26.1787   -5.9002  -13.3535 C.ar    1  UNL1        0.1636
      7 O         -25.7890   -4.5661  -13.2016 O.3     1  UNL1       -0.5031
      8 C         -23.9198   -6.7746  -12.5081 C.3     1  UNL1        0.0299
      9 C         -23.7811   -6.9478  -10.9886 C.3     1  UNL1        0.0091
     10 C         -24.5292   -8.1716  -10.4234 C.3     1  UNL1        0.0227
     11 C         -24.4067   -9.4052  -11.3030 C.2     1  UNL1       -0.0398
     12 C         -25.0759   -9.4674  -12.4911 C.2     1  UNL1       -0.0076
     13 H         -24.9838   -4.2705  -12.6675 H       1  UNL1        0.2923
     14 C         -25.0289  -10.6824  -13.3331 C.ar    1  UNL1        0.0056
     15 C         -24.6070  -10.6074  -14.6617 C.ar    1  UNL1        0.0402
     16 C         -24.5763  -11.7608  -15.4640 C.ar    1  UNL1        0.1754
     17 C         -24.9792  -12.9983  -14.9328 C.ar    1  UNL1        0.2061
     18 C         -25.3969  -13.0805  -13.5783 C.ar    1  UNL1        0.1754
     19 C         -25.3990  -11.9147  -12.7896 C.ar    1  UNL1        0.0402
     20 O         -24.1611  -11.7176  -16.8051 O.3     1  UNL1       -0.4683
     21 C         -22.8102  -11.5640  -17.2283 C.3     1  UNL1        0.2526
     22 O         -24.9435  -14.1016  -15.8070 O.3     1  UNL1       -0.4654
     23 C         -23.9687  -15.1382  -15.8252 C.3     1  UNL1        0.2528
     24 O         -25.8046  -14.3114  -13.0406 O.3     1  UNL1       -0.4683
     25 C         -26.4591  -14.4783  -11.7868 C.3     1  UNL1        0.2526
     26 C         -29.4234   -5.1479  -15.0653 C.3     1  UNL1        0.2526
     27 O         -28.2253   -5.0505  -14.3018 O.3     1  UNL1       -0.4684
     28 C         -23.6023  -10.5848  -10.7683 C.3     1  UNL1        0.0487
     29 C         -22.1547  -10.2367  -10.4780 C.ar    1  UNL1       -0.0127
     30 C         -21.8491   -9.4414   -9.3571 C.ar    1  UNL1       -0.0035
     31 C         -20.5331   -9.0616   -9.0883 C.ar    1  UNL1       -0.0003
     32 C         -19.4985   -9.4934   -9.9165 C.ar    1  UNL1        0.0004
     33 C         -19.7747  -10.3275  -11.0001 C.ar    1  UNL1        0.0055
     34 C         -21.0899  -10.7199  -11.2795 C.ar    1  UNL1        0.0264
     35 I         -21.3489  -12.0790  -12.8917 I       1  UNL1       -0.0428
@<TRIPOS>BOND
     1    26    27    1
     2    27     1    1
     3     1     2   ar
     4     2     3   ar
     5     3     4   ar
     6     4     5   ar
     7     5     6   ar
     8     6     7    1
     9     5     8    1
    10     8     9    1
    11     9    10    1
    12    10    11    1
    13    11    28    1
    14    28    29    1
    15    29    30   ar
    16    30    31   ar
    17    31    32   ar
    18    32    33   ar
    19    33    34   ar
    20    34    35    1
    21    11    12    2
    22    12    14    1
    23    14    15   ar
    24    15    16   ar
    25    16    20    1
    26    20    21    1
    27    16    17   ar
    28    17    22    1
    29    22    23    1
    30    17    18   ar
    31    18    24    1
    32    24    25    1
    33    18    19   ar
    34     6     1   ar
    35    34    29   ar
    36    19    14   ar
    37    12     4    1
    38     7    13    1
@<TRIPOS>MOLECULE
*****
 35 38 0 0 0
SMALL
GASTEIGER

@<TRIPOS>ATOM
      1 C         -24.3125  -14.0604  -15.4636 C.ar    1  UNL1        0.1718
      2 C         -25.4547  -13.3569  -15.0500 C.ar    1  UNL1        0.0400
      3 C         -25.3553  -12.0314  -14.6362 C.ar    1  UNL1        0.0030
      4 C         -24.1115  -11.3843  -14.5927 C.ar    1  UNL1       -0.0015
      5 C         -22.9407  -12.1065  -14.9383 C.ar    1  UNL1        0.0145
      6 C         -23.0595  -13.4310  -15.4326 C.ar    1  UNL1        0.1636
      7 O         -21.9627  -14.1494  -15.9180 O.3     1  UNL1       -0.5031
      8 C         -21.5965  -11.4352  -14.7553 C.3     1  UNL1        0.0299
      9 C         -21.3371  -10.3805  -15.8409 C.3     1  UNL1        0.0091
     10 C         -22.5443   -9.4675  -16.1331 C.3     1  UNL1        0.0227
     11 C         -23.2886   -9.0413  -14.8781 C.2     1  UNL1       -0.0398
     12 C         -24.0563   -9.9426  -14.1986 C.2     1  UNL1       -0.0076
     13 H         -21.0585  -13.7398  -16.1073 H       1  UNL1        0.2923
     14 C         -24.8447   -9.5376  -13.0148 C.ar    1  UNL1        0.0056
     15 C         -26.0886   -8.9230  -13.1688 C.ar    1  UNL1        0.0402
     16 C         -26.8299   -8.5263  -12.0427 C.ar    1  UNL1        0.1754
     17 C         -26.3169   -8.7405  -10.7515 C.ar    1  UNL1        0.2061
     18 C         -25.0578   -9.3768  -10.5909 C.ar    1  UNL1        0.1754
     19 C         -24.3443   -9.7831  -11.7341 C.ar    1  UNL1        0.0402
     20 O         -28.0820   -7.9019  -12.1643 O.3     1  UNL1       -0.4683
     21 C         -28.6348   -7.4310  -13.3893 C.3     1  UNL1        0.2526
     22 O         -27.1080   -8.2926   -9.6762 O.3     1  UNL1       -0.4654
     23 C         -27.4365   -6.9423   -9.3696 C.3     1  UNL1        0.2528
     24 O         -24.5361   -9.5912   -9.3055 O.3     1  UNL1       -0.4683
     25 C         -23.1494   -9.6396   -8.9845 C.3     1  UNL1        0.2526
     26 C         -25.1165  -15.8059  -17.0684 C.3     1  UNL1        0.2526
     27 O         -24.3818  -15.3856  -15.9233 O.3     1  UNL1       -0.4684
     28 C         -23.2230   -7.5724  -14.4747 C.3     1  UNL1        0.0487
     29 C         -22.4649   -7.3427  -13.1811 C.ar    1  UNL1       -0.0127
     30 C         -21.1870   -7.9120  -13.0214 C.ar    1  UNL1       -0.0035
     31 C         -20.4826   -7.7617  -11.8258 C.ar    1  UNL1       -0.0003
     32 C         -21.0290   -7.0168  -10.7821 C.ar    1  UNL1        0.0004
     33 C         -22.2696   -6.3988  -10.9414 C.ar    1  UNL1        0.0055
     34 C         -22.9859   -6.5377  -12.1370 C.ar    1  UNL1        0.0264
     35 I         -24.8066   -5.4524  -12.2801 I       1  UNL1       -0.0428
@<TRIPOS>BOND
     1    26    27    1
     2    27     1    1
     3     1     2   ar
     4     2     3   ar
     5     3     4   ar
     6     4     5   ar
     7     5     6   ar
     8     6     7    1
     9     5     8    1
    10     8     9    1
    11     9    10    1
    12    10    11    1
    13    11    28    1
    14    28    29    1
    15    29    30   ar
    16    30    31   ar
    17    31    32   ar
    18    32    33   ar
    19    33    34   ar
    20    34    35    1
    21    11    12    2
    22    12    14    1
    23    14    15   ar
    24    15    16   ar
    25    16    20    1
    26    20    21    1
    27    16    17   ar
    28    17    22    1
    29    22    23    1
    30    17    18   ar
    31    18    24    1
    32    24    25    1
    33    18    19   ar
    34     6     1   ar
    35    34    29   ar
    36    19    14   ar
    37    12     4    1
    38     7    13    1
@<TRIPOS>MOLECULE
*****
 35 38 0 0 0
SMALL
GASTEIGER

@<TRIPOS>ATOM
      1 C         -19.6659   -9.6626   -9.3011 C.ar    1  UNL1        0.1718
      2 C         -19.5102  -10.3447  -10.5180 C.ar    1  UNL1        0.0400
      3 C         -20.4436  -10.1883  -11.5389 C.ar    1  UNL1        0.0030
      4 C         -21.5723   -9.3744  -11.3609 C.ar    1  UNL1       -0.0015
      5 C         -21.7791   -8.7377  -10.1106 C.ar    1  UNL1        0.0145
      6 C         -20.7847   -8.8399   -9.1038 C.ar    1  UNL1        0.1636
      7 O         -20.8608   -8.1288   -7.9025 O.3     1  UNL1       -0.5031
      8 C         -23.0682   -7.9756   -9.8915 C.3     1  UNL1        0.0299
      9 C         -23.0685   -6.6349  -10.6403 C.3     1  UNL1        0.0091
     10 C         -22.5402   -6.7211  -12.0861 C.3     1  UNL1        0.0227
     11 C         -23.0218   -7.9590  -12.8252 C.2     1  UNL1       -0.0398
     12 C         -22.5196   -9.1868  -12.5030 C.2     1  UNL1       -0.0076
     13 H         -21.5187   -7.3817   -7.7293 H       1  UNL1        0.2923
     14 C         -22.9196  -10.3977  -13.2519 C.ar    1  UNL1        0.0056
     15 C         -22.3944  -10.6519  -14.5201 C.ar    1  UNL1        0.0402
     16 C         -22.7866  -11.7960  -15.2357 C.ar    1  UNL1        0.1754
     17 C         -23.7186  -12.6890  -14.6790 C.ar    1  UNL1        0.2061
     18 C         -24.2452  -12.4402  -13.3841 C.ar    1  UNL1        0.1754
     19 C         -23.8210  -11.2982  -12.6793 C.ar    1  UNL1        0.0402
     20 O         -22.2799  -12.0775  -16.5150 O.3     1  UNL1       -0.4683
     21 C         -22.8658  -11.6292  -17.7330 C.3     1  UNL1        0.2526
     22 O         -24.0789  -13.7980  -15.4684 O.3     1  UNL1       -0.4654
     23 C         -23.4678  -15.0831  -15.4551 C.3     1  UNL1        0.2528
     24 O         -25.1793  -13.3245  -12.8221 O.3     1  UNL1       -0.4683
     25 C         -26.3883  -13.7420  -13.4484 C.3     1  UNL1        0.2526
     26 C         -17.8044  -10.8439   -8.1146 C.3     1  UNL1        0.2526
     27 O         -18.7241   -9.7671   -8.2646 O.3     1  UNL1       -0.4684
     28 C         -23.9941   -7.7645  -13.9834 C.3     1  UNL1        0.0487
     29 C         -25.4379   -7.6397  -13.5351 C.ar    1  UNL1       -0.0127
     30 C         -25.9037   -8.4474  -12.4801 C.ar    1  UNL1       -0.0035
     31 C         -27.2383   -8.3933  -12.0750 C.ar    1  UNL1       -0.0003
     32 C         -28.1216   -7.5120  -12.6960 C.ar    1  UNL1        0.0004
     33 C         -27.6659   -6.6641  -13.7058 C.ar    1  UNL1        0.0055
     34 C         -26.3285   -6.7045  -14.1199 C.ar    1  UNL1        0.0264
     35 I         -25.7496   -5.2818  -15.5876 I       1  UNL1       -0.0428
@<TRIPOS>BOND
     1    26    27    1
     2    27     1    1
     3     1     2   ar
     4     2     3   ar
     5     3     4   ar
     6     4     5   ar
     7     5     6   ar
     8     6     7    1
     9     5     8    1
    10     8     9    1
    11     9    10    1
    12    10    11    1
    13    11    28    1
    14    28    29    1
    15    29    30   ar
    16    30    31   ar
    17    31    32   ar
    18    32    33   ar
    19    33    34   ar
    20    34    35    1
    21    11    12    2
    22    12    14    1
    23    14    15   ar
    24    15    16   ar
    25    16    20    1
    26    20    21    1
    27    16    17   ar
    28    17    22    1
    29    22    23    1
    30    17    18   ar
    31    18    24    1
    32    24    25    1
    33    18    19   ar
    34     6     1   ar
    35    34    29   ar
    36    19    14   ar
    37    12     4    1
    38     7    13    1
