@<TRIPOS>MOLECULE
*****
 42 46 0 0 0
SMALL
GASTEIGER

@<TRIPOS>ATOM
      1 C          -6.5502   -9.7360   30.9406 C.3     1  UNL1        0.0634
      2 C          -7.3318  -10.9353   30.4714 C.ar    1  UNL1        0.0323
      3 C          -6.7145  -11.4729   29.3611 C.ar    1  UNL1        0.1401
      4 C          -7.1321  -12.6897   28.7736 C.ar    1  UNL1        0.0888
      5 C          -8.2827  -13.3217   29.3045 C.ar    1  UNL1        0.0282
      6 C          -8.9507  -12.7072   30.3708 C.ar    1  UNL1        0.0999
      7 N         -10.1194  -13.0886   30.9115 N.ar    1  UNL1       -0.2135
      8 C         -10.3859  -12.0927   31.7923 C.ar    1  UNL1        0.2018
      9 N          -9.4236  -11.1278   31.8479 N.ar    1  UNL1       -0.2977
     10 C          -9.5000   -9.8525   32.5632 C.3     1  UNL1        0.1332
     11 C          -8.5143  -11.5347   30.9354 C.ar    1  UNL1        0.0789
     12 O          -5.7340  -10.6254   28.8876 O.3     1  UNL1       -0.4824
     13 C          -5.7494   -9.3950   29.6115 C.3     1  UNL1        0.1370
     14 C          -4.3030   -8.8791   29.7585 C.3     1  UNL1        0.0439
     15 C          -6.5482   -8.3642   28.7863 C.3     1  UNL1        0.0439
     16 C          -6.4398  -13.2688   27.6025 C.2     1  UNL1        0.2525
     17 O          -5.3947  -12.7084   27.1737 O.2     1  UNL1       -0.2697
     18 N          -6.9435  -14.4537   26.9587 N.am    1  UNL1       -0.2803
     19 H          -7.7803  -14.9300   27.3620 H       1  UNL1        0.1552
     20 C          -6.3173  -15.0805   25.8271 C.ar    1  UNL1        0.0505
     21 C          -5.2064  -15.9098   26.0322 C.ar    1  UNL1        0.0147
     22 C          -4.6017  -16.5604   24.9551 C.ar    1  UNL1        0.0012
     23 C          -5.1048  -16.3953   23.6629 C.ar    1  UNL1        0.0039
     24 C          -6.2177  -15.5679   23.4338 C.ar    1  UNL1        0.0726
     25 C          -6.8378  -14.9376   24.5280 C.ar    1  UNL1        0.0185
     26 C          -6.8059  -15.4446   22.0506 C.3     1  UNL1        0.4186
     27 F          -7.0441  -16.7081   21.5430 F       1  UNL1       -0.1659
     28 F          -7.9977  -14.7417   22.0891 F       1  UNL1       -0.1659
     29 F          -5.9369  -14.7757   21.2059 F       1  UNL1       -0.1659
     30 C          -4.6703  -11.2196   31.8612 C.3     1  UNL1        0.0005
     31 C          -5.6372  -10.0702   32.1877 C.3     1  UNL1        0.0076
     32 C          -4.8361   -8.8873   32.7716 C.3     1  UNL1        0.0005
     33 N         -11.6033  -12.0663   32.5496 N.pl3   1  UNL1       -0.2814
     34 H         -11.9468  -11.1345   32.8734 H       1  UNL1        0.1551
     35 C         -12.2652  -13.2443   33.0417 C.ar    1  UNL1        0.0889
     36 C         -13.4320  -13.7345   32.4189 C.ar    1  UNL1        0.1543
     37 F         -13.9501  -13.1188   31.3264 F       1  UNL1       -0.2028
     38 C         -14.0582  -14.8858   32.9052 C.ar    1  UNL1        0.0310
     39 C         -13.5267  -15.5644   34.0028 C.ar    1  UNL1        0.0033
     40 C         -12.3627  -15.0979   34.6160 C.ar    1  UNL1        0.0128
     41 C         -11.7264  -13.9462   34.1386 C.ar    1  UNL1        0.0733
     42 CL        -10.2779  -13.3791   34.9594 Cl      1  UNL1       -0.0809
@<TRIPOS>BOND
     1    30    31    1
     2    31    32    1
     3    31     1    1
     4     1     2    1
     5     2     3   ar
     6     3     4   ar
     7     4    16    1
     8    16    17    2
     9    16    18   am
    10    18    20    1
    11    20    21   ar
    12    21    22   ar
    13    22    23   ar
    14    23    24   ar
    15    24    26    1
    16    26    27    1
    17    26    28    1
    18    26    29    1
    19    24    25   ar
    20     4     5   ar
    21     5     6   ar
    22     6     7   ar
    23     7     8   ar
    24     8    33    1
    25    33    35    1
    26    35    36   ar
    27    36    37    1
    28    36    38   ar
    29    38    39   ar
    30    39    40   ar
    31    40    41   ar
    32    41    42    1
    33     8     9   ar
    34     9    10    1
    35     9    11   ar
    36     3    12    1
    37    12    13    1
    38    13    14    1
    39    13    15    1
    40    13     1    1
    41    11     2   ar
    42    25    20   ar
    43    11     6   ar
    44    41    35   ar
    45    18    19    1
    46    33    34    1
@<TRIPOS>MOLECULE
*****
 42 46 0 0 0
SMALL
GASTEIGER

@<TRIPOS>ATOM
      1 C          -8.5488  -17.4732   22.7810 C.3     1  UNL1        0.0634
      2 C          -7.4221  -16.7491   23.4706 C.ar    1  UNL1        0.0323
      3 C          -6.2609  -16.9228   22.7466 C.ar    1  UNL1        0.1401
      4 C          -5.0591  -16.2480   23.0637 C.ar    1  UNL1        0.0888
      5 C          -5.0413  -15.4349   24.2228 C.ar    1  UNL1        0.0282
      6 C          -6.2048  -15.3499   24.9974 C.ar    1  UNL1        0.0999
      7 N          -6.3336  -14.7389   26.1864 N.ar    1  UNL1       -0.2135
      8 C          -7.5931  -15.0708   26.5636 C.ar    1  UNL1        0.2018
      9 N          -8.2638  -15.8317   25.6518 N.ar    1  UNL1       -0.2977
     10 C          -9.5600  -16.4865   25.8392 C.3     1  UNL1        0.1332
     11 C          -7.3646  -16.0007   24.6579 C.ar    1  UNL1        0.0789
     12 O          -6.4315  -17.8833   21.7707 O.3     1  UNL1       -0.4824
     13 C          -7.7150  -18.4957   21.8960 C.3     1  UNL1        0.1370
     14 C          -8.2527  -18.8304   20.4893 C.3     1  UNL1        0.0439
     15 C          -7.5409  -19.8174   22.6734 C.3     1  UNL1        0.0439
     16 C          -3.8313  -16.4210   22.2584 C.2     1  UNL1        0.2525
     17 O          -3.2097  -15.3961   21.8667 O.2     1  UNL1       -0.2697
     18 N          -3.3462  -17.7347   21.9249 N.am    1  UNL1       -0.2803
     19 H          -3.8475  -18.5686   22.3029 H       1  UNL1        0.1552
     20 C          -2.1547  -17.9802   21.1596 C.ar    1  UNL1        0.0505
     21 C          -1.8591  -17.1513   20.0689 C.ar    1  UNL1        0.0147
     22 C          -0.6898  -17.3443   19.3311 C.ar    1  UNL1        0.0012
     23 C           0.2002  -18.3626   19.6795 C.ar    1  UNL1        0.0039
     24 C          -0.0762  -19.2062   20.7692 C.ar    1  UNL1        0.0726
     25 C          -1.2431  -18.9877   21.5241 C.ar    1  UNL1        0.0185
     26 C           0.9171  -20.2599   21.1906 C.3     1  UNL1        0.4186
     27 F           1.7022  -20.6047   20.1065 F       1  UNL1       -0.1659
     28 F           1.7309  -19.7843   22.2042 F       1  UNL1       -0.1659
     29 F           0.2660  -21.3903   21.6537 F       1  UNL1       -0.1659
     30 C         -10.8401  -16.3287   22.6319 C.3     1  UNL1        0.0005
     31 C          -9.4706  -16.4906   21.9531 C.3     1  UNL1        0.0076
     32 C          -8.8801  -15.0934   21.6685 C.3     1  UNL1        0.0005
     33 N          -8.1243  -14.6760   27.8356 N.pl3   1  UNL1       -0.2814
     34 H          -8.9440  -15.2111   28.2002 H       1  UNL1        0.1551
     35 C          -7.7208  -13.4874   28.5373 C.ar    1  UNL1        0.0889
     36 C          -6.4029  -12.9956   28.4331 C.ar    1  UNL1        0.1543
     37 F          -5.4857  -13.6200   27.6522 F       1  UNL1       -0.2028
     38 C          -6.0296  -11.8340   29.1153 C.ar    1  UNL1        0.0310
     39 C          -6.9614  -11.1468   29.8947 C.ar    1  UNL1        0.0033
     40 C          -8.2729  -11.6149   29.9908 C.ar    1  UNL1        0.0128
     41 C          -8.6590  -12.7769   29.3126 C.ar    1  UNL1        0.0733
     42 CL        -10.3144  -13.3455   29.4849 Cl      1  UNL1       -0.0809
@<TRIPOS>BOND
     1    30    31    1
     2    31    32    1
     3    31     1    1
     4     1     2    1
     5     2     3   ar
     6     3     4   ar
     7     4    16    1
     8    16    17    2
     9    16    18   am
    10    18    20    1
    11    20    21   ar
    12    21    22   ar
    13    22    23   ar
    14    23    24   ar
    15    24    26    1
    16    26    27    1
    17    26    28    1
    18    26    29    1
    19    24    25   ar
    20     4     5   ar
    21     5     6   ar
    22     6     7   ar
    23     7     8   ar
    24     8    33    1
    25    33    35    1
    26    35    36   ar
    27    36    37    1
    28    36    38   ar
    29    38    39   ar
    30    39    40   ar
    31    40    41   ar
    32    41    42    1
    33     8     9   ar
    34     9    10    1
    35     9    11   ar
    36     3    12    1
    37    12    13    1
    38    13    14    1
    39    13    15    1
    40    13     1    1
    41    11     2   ar
    42    25    20   ar
    43    11     6   ar
    44    41    35   ar
    45    18    19    1
    46    33    34    1
@<TRIPOS>MOLECULE
*****
 42 46 0 0 0
SMALL
GASTEIGER

@<TRIPOS>ATOM
      1 C         -10.4924  -11.1993   31.3898 C.3     1  UNL1        0.0634
      2 C          -9.2291  -11.7080   30.7456 C.ar    1  UNL1        0.0323
      3 C          -9.5348  -12.7777   29.9302 C.ar    1  UNL1        0.1401
      4 C          -8.5801  -13.3830   29.0804 C.ar    1  UNL1        0.0888
      5 C          -7.2444  -12.9176   29.1461 C.ar    1  UNL1        0.0282
      6 C          -6.9369  -11.8951   30.0521 C.ar    1  UNL1        0.0999
      7 N          -5.7139  -11.4220   30.3425 N.ar    1  UNL1       -0.2135
      8 C          -5.9551  -10.5629   31.3635 C.ar    1  UNL1        0.2018
      9 N          -7.2725  -10.4555   31.6998 N.ar    1  UNL1       -0.2977
     10 C          -7.8280   -9.7517   32.8574 C.3     1  UNL1        0.1332
     11 C          -7.8860  -11.3113   30.8535 C.ar    1  UNL1        0.0789
     12 O         -10.8328  -13.1969   30.1385 O.3     1  UNL1       -0.4824
     13 C         -11.4171  -12.4808   31.2266 C.3     1  UNL1        0.1370
     14 C         -12.9142  -12.2517   30.9326 C.3     1  UNL1        0.0439
     15 C         -11.3021  -13.3560   32.4924 C.3     1  UNL1        0.0439
     16 C          -8.9316  -14.5089   28.1888 C.2     1  UNL1        0.2525
     17 O          -9.7337  -15.3885   28.6049 O.2     1  UNL1       -0.2697
     18 N          -8.3731  -14.6048   26.8655 N.am    1  UNL1       -0.2803
     19 H          -7.7520  -13.8388   26.5234 H       1  UNL1        0.1552
     20 C          -8.6789  -15.6605   25.9395 C.ar    1  UNL1        0.0505
     21 C          -8.9527  -16.9440   26.4314 C.ar    1  UNL1        0.0147
     22 C          -9.2889  -17.9789   25.5568 C.ar    1  UNL1        0.0012
     23 C          -9.3624  -17.7411   24.1827 C.ar    1  UNL1        0.0039
     24 C          -9.0914  -16.4619   23.6673 C.ar    1  UNL1        0.0726
     25 C          -8.7800  -15.4180   24.5575 C.ar    1  UNL1        0.0185
     26 C          -9.2396  -16.1857   22.1921 C.3     1  UNL1        0.4186
     27 F         -10.5458  -15.8193   21.9266 F       1  UNL1       -0.1659
     28 F          -8.3951  -15.1609   21.8013 F       1  UNL1       -0.1659
     29 F          -8.9267  -17.3106   21.4486 F       1  UNL1       -0.1659
     30 C         -11.4536   -8.8431   31.7160 C.3     1  UNL1        0.0005
     31 C         -11.0430   -9.8993   30.6775 C.3     1  UNL1        0.0076
     32 C         -10.1013   -9.2492   29.6419 C.3     1  UNL1        0.0005
     33 N          -4.8897   -9.8783   32.0360 N.pl3   1  UNL1       -0.2814
     34 H          -4.2639  -10.4483   32.6480 H       1  UNL1        0.1551
     35 C          -4.7509   -8.4473   32.0655 C.ar    1  UNL1        0.0889
     36 C          -4.1989   -7.7948   33.1876 C.ar    1  UNL1        0.1543
     37 F          -3.7658   -8.5018   34.2617 F       1  UNL1       -0.2028
     38 C          -4.0636   -6.4035   33.1964 C.ar    1  UNL1        0.0310
     39 C          -4.4630   -5.6518   32.0904 C.ar    1  UNL1        0.0033
     40 C          -4.9944   -6.2887   30.9677 C.ar    1  UNL1        0.0128
     41 C          -5.1351   -7.6812   30.9467 C.ar    1  UNL1        0.0733
     42 CL         -5.8353   -8.4386   29.5221 Cl      1  UNL1       -0.0809
@<TRIPOS>BOND
     1    30    31    1
     2    31    32    1
     3    31     1    1
     4     1     2    1
     5     2     3   ar
     6     3     4   ar
     7     4    16    1
     8    16    17    2
     9    16    18   am
    10    18    20    1
    11    20    21   ar
    12    21    22   ar
    13    22    23   ar
    14    23    24   ar
    15    24    26    1
    16    26    27    1
    17    26    28    1
    18    26    29    1
    19    24    25   ar
    20     4     5   ar
    21     5     6   ar
    22     6     7   ar
    23     7     8   ar
    24     8    33    1
    25    33    35    1
    26    35    36   ar
    27    36    37    1
    28    36    38   ar
    29    38    39   ar
    30    39    40   ar
    31    40    41   ar
    32    41    42    1
    33     8     9   ar
    34     9    10    1
    35     9    11   ar
    36     3    12    1
    37    12    13    1
    38    13    14    1
    39    13    15    1
    40    13     1    1
    41    11     2   ar
    42    25    20   ar
    43    11     6   ar
    44    41    35   ar
    45    18    19    1
    46    33    34    1
@<TRIPOS>MOLECULE
*****
 42 46 0 0 0
SMALL
GASTEIGER

@<TRIPOS>ATOM
      1 C          -5.7436  -10.3436   29.7248 C.3     1  UNL1        0.0634
      2 C          -6.6904  -11.4680   29.3952 C.ar    1  UNL1        0.0323
      3 C          -6.1873  -12.1873   28.3312 C.ar    1  UNL1        0.1401
      4 C          -6.7797  -13.3888   27.8777 C.ar    1  UNL1        0.0888
      5 C          -7.9835  -13.8083   28.4942 C.ar    1  UNL1        0.0282
      6 C          -8.5284  -13.0106   29.5079 C.ar    1  UNL1        0.0999
      7 N          -9.7173  -13.1795   30.1094 N.ar    1  UNL1       -0.2135
      8 C          -9.8212  -12.0769   30.8917 C.ar    1  UNL1        0.2018
      9 N          -8.7403  -11.2475   30.8294 N.ar    1  UNL1       -0.2977
     10 C          -8.6253   -9.9104   31.4150 C.3     1  UNL1        0.1332
     11 C          -7.9239  -11.8575   29.9426 C.ar    1  UNL1        0.0789
     12 O          -5.1220  -11.5272   27.7538 O.3     1  UNL1       -0.4824
     13 C          -4.9522  -10.2416   28.3511 C.3     1  UNL1        0.1370
     14 C          -3.4467   -9.9106   28.4141 C.3     1  UNL1        0.0439
     15 C          -5.6383   -9.1982   27.4445 C.3     1  UNL1        0.0439
     16 C          -6.2098  -14.1649   26.7557 C.2     1  UNL1        0.2525
     17 O          -5.0067  -14.5371   26.8210 O.2     1  UNL1       -0.2697
     18 N          -7.0097  -14.4956   25.6055 N.am    1  UNL1       -0.2803
     19 H          -8.0169  -14.2219   25.5958 H       1  UNL1        0.1552
     20 C          -6.5291  -15.2574   24.4855 C.ar    1  UNL1        0.0505
     21 C          -7.1618  -15.1199   23.2425 C.ar    1  UNL1        0.0147
     22 C          -6.6924  -15.8197   22.1295 C.ar    1  UNL1        0.0012
     23 C          -5.5818  -16.6585   22.2445 C.ar    1  UNL1        0.0039
     24 C          -4.9320  -16.8119   23.4813 C.ar    1  UNL1        0.0726
     25 C          -5.3945  -16.0823   24.5917 C.ar    1  UNL1        0.0185
     26 C          -3.6905  -17.6609   23.5918 C.3     1  UNL1        0.4186
     27 F          -3.3732  -17.8318   24.9263 F       1  UNL1       -0.1659
     28 F          -3.8962  -18.9020   23.0144 F       1  UNL1       -0.1659
     29 F          -2.6242  -17.0565   22.9485 F       1  UNL1       -0.1659
     30 C          -4.8803   -9.5236   31.9974 C.3     1  UNL1        0.0005
     31 C          -4.8390  -10.6742   30.9789 C.3     1  UNL1        0.0076
     32 C          -5.1515  -12.0007   31.7033 C.3     1  UNL1        0.0005
     33 N         -10.9977  -11.8161   31.6690 N.pl3   1  UNL1       -0.2814
     34 H         -11.3729  -10.8414   31.6593 H       1  UNL1        0.1551
     35 C         -11.5702  -12.7566   32.5940 C.ar    1  UNL1        0.0889
     36 C         -12.7977  -13.3931   32.3151 C.ar    1  UNL1        0.1543
     37 F         -13.4616  -13.1497   31.1570 F       1  UNL1       -0.2028
     38 C         -13.3361  -14.3110   33.2215 C.ar    1  UNL1        0.0310
     39 C         -12.6571  -14.6126   34.4029 C.ar    1  UNL1        0.0033
     40 C         -11.4331  -14.0016   34.6809 C.ar    1  UNL1        0.0128
     41 C         -10.8836  -13.0807   33.7813 C.ar    1  UNL1        0.0733
     42 CL         -9.3530  -12.3145   34.1857 Cl      1  UNL1       -0.0809
@<TRIPOS>BOND
     1    30    31    1
     2    31    32    1
     3    31     1    1
     4     1     2    1
     5     2     3   ar
     6     3     4   ar
     7     4    16    1
     8    16    17    2
     9    16    18   am
    10    18    20    1
    11    20    21   ar
    12    21    22   ar
    13    22    23   ar
    14    23    24   ar
    15    24    26    1
    16    26    27    1
    17    26    28    1
    18    26    29    1
    19    24    25   ar
    20     4     5   ar
    21     5     6   ar
    22     6     7   ar
    23     7     8   ar
    24     8    33    1
    25    33    35    1
    26    35    36   ar
    27    36    37    1
    28    36    38   ar
    29    38    39   ar
    30    39    40   ar
    31    40    41   ar
    32    41    42    1
    33     8     9   ar
    34     9    10    1
    35     9    11   ar
    36     3    12    1
    37    12    13    1
    38    13    14    1
    39    13    15    1
    40    13     1    1
    41    11     2   ar
    42    25    20   ar
    43    11     6   ar
    44    41    35   ar
    45    18    19    1
    46    33    34    1
@<TRIPOS>MOLECULE
*****
 42 46 0 0 0
SMALL
GASTEIGER

@<TRIPOS>ATOM
      1 C          -5.8802   -9.5969   30.3972 C.3     1  UNL1        0.0634
      2 C          -6.7187  -10.8007   30.0546 C.ar    1  UNL1        0.0323
      3 C          -6.1694  -11.4402   28.9629 C.ar    1  UNL1        0.1401
      4 C          -6.6503  -12.6826   28.4881 C.ar    1  UNL1        0.0888
      5 C          -7.7943  -13.2338   29.1145 C.ar    1  UNL1        0.0282
      6 C          -8.3940  -12.5191   30.1587 C.ar    1  UNL1        0.0999
      7 N          -9.5481  -12.8192   30.7767 N.ar    1  UNL1       -0.2135
      8 C          -9.7436  -11.7520   31.5899 C.ar    1  UNL1        0.2018
      9 N          -8.7507  -10.8189   31.5306 N.ar    1  UNL1       -0.2977
     10 C          -8.7554   -9.4919   32.1495 C.3     1  UNL1        0.1332
     11 C          -7.8967  -11.3233   30.6133 C.ar    1  UNL1        0.0789
     12 O          -5.1859  -10.6642   28.3845 O.3     1  UNL1       -0.4824
     13 C          -5.1307   -9.3834   29.0128 C.3     1  UNL1        0.1370
     14 C          -3.6640   -8.9073   29.0577 C.3     1  UNL1        0.0439
     15 C          -5.9343   -8.3904   28.1468 C.3     1  UNL1        0.0439
     16 C          -6.0300  -13.3705   27.3357 C.2     1  UNL1        0.2525
     17 O          -4.8949  -12.9914   26.9383 O.2     1  UNL1       -0.2697
     18 N          -6.7039  -14.4573   26.6747 N.am    1  UNL1       -0.2803
     19 H          -7.6191  -14.7880   27.0527 H       1  UNL1        0.1552
     20 C          -6.1579  -15.1813   25.5597 C.ar    1  UNL1        0.0505
     21 C          -5.1395  -16.1175   25.7845 C.ar    1  UNL1        0.0147
     22 C          -4.6169  -16.8612   24.7248 C.ar    1  UNL1        0.0012
     23 C          -5.1110  -16.6829   23.4309 C.ar    1  UNL1        0.0039
     24 C          -6.1317  -15.7493   23.1822 C.ar    1  UNL1        0.0726
     25 C          -6.6718  -15.0235   24.2597 C.ar    1  UNL1        0.0185
     26 C          -6.7158  -15.6062   21.7991 C.3     1  UNL1        0.4186
     27 F          -6.8021  -16.8539   21.2103 F       1  UNL1       -0.1659
     28 F          -7.9807  -15.0474   21.8600 F       1  UNL1       -0.1659
     29 F          -5.9204  -14.7905   21.0129 F       1  UNL1       -0.1659
     30 C          -5.2803   -8.9517   32.8067 C.3     1  UNL1        0.0005
     31 C          -4.9222   -9.8679   31.6257 C.3     1  UNL1        0.0076
     32 C          -4.8594  -11.3283   32.1209 C.3     1  UNL1        0.0005
     33 N         -10.9239  -11.6279   32.3948 N.pl3   1  UNL1       -0.2814
     34 H         -11.2642  -10.6622   32.6016 H       1  UNL1        0.1551
     35 C         -11.5457  -12.7296   33.0784 C.ar    1  UNL1        0.0889
     36 C         -10.9122  -13.3552   34.1725 C.ar    1  UNL1        0.1543
     37 F          -9.7076  -12.9213   34.6217 F       1  UNL1       -0.2028
     38 C         -11.5344  -14.4197   34.8311 C.ar    1  UNL1        0.0310
     39 C         -12.7916  -14.8630   34.4179 C.ar    1  UNL1        0.0033
     40 C         -13.4353  -14.2399   33.3474 C.ar    1  UNL1        0.0128
     41 C         -12.8225  -13.1731   32.6798 C.ar    1  UNL1        0.0733
     42 CL        -13.6581  -12.4361   31.3188 Cl      1  UNL1       -0.0809
@<TRIPOS>BOND
     1    30    31    1
     2    31    32    1
     3    31     1    1
     4     1     2    1
     5     2     3   ar
     6     3     4   ar
     7     4    16    1
     8    16    17    2
     9    16    18   am
    10    18    20    1
    11    20    21   ar
    12    21    22   ar
    13    22    23   ar
    14    23    24   ar
    15    24    26    1
    16    26    27    1
    17    26    28    1
    18    26    29    1
    19    24    25   ar
    20     4     5   ar
    21     5     6   ar
    22     6     7   ar
    23     7     8   ar
    24     8    33    1
    25    33    35    1
    26    35    36   ar
    27    36    37    1
    28    36    38   ar
    29    38    39   ar
    30    39    40   ar
    31    40    41   ar
    32    41    42    1
    33     8     9   ar
    34     9    10    1
    35     9    11   ar
    36     3    12    1
    37    12    13    1
    38    13    14    1
    39    13    15    1
    40    13     1    1
    41    11     2   ar
    42    25    20   ar
    43    11     6   ar
    44    41    35   ar
    45    18    19    1
    46    33    34    1
@<TRIPOS>MOLECULE
*****
 42 46 0 0 0
SMALL
GASTEIGER

@<TRIPOS>ATOM
      1 C         -11.2786  -11.3702   32.1155 C.3     1  UNL1        0.0634
      2 C          -9.9430  -11.4831   31.4280 C.ar    1  UNL1        0.0323
      3 C         -10.0277  -12.4262   30.4249 C.ar    1  UNL1        0.1401
      4 C          -8.9756  -12.6579   29.5085 C.ar    1  UNL1        0.0888
      5 C          -7.7647  -11.9484   29.6961 C.ar    1  UNL1        0.0282
      6 C          -7.6677  -11.0669   30.7799 C.ar    1  UNL1        0.0999
      7 N          -6.5667  -10.4141   31.1865 N.ar    1  UNL1       -0.2135
      8 C          -6.9717   -9.8231   32.3377 C.ar    1  UNL1        0.2018
      9 N          -8.2799  -10.0511   32.6489 N.ar    1  UNL1       -0.2977
     10 C          -8.9591   -9.6988   33.8973 C.3     1  UNL1        0.1332
     11 C          -8.7102  -10.8459   31.6449 C.ar    1  UNL1        0.0789
     12 O         -11.2090  -13.1333   30.5160 O.3     1  UNL1       -0.4824
     13 C         -11.9195  -12.7625   31.6975 C.3     1  UNL1        0.1370
     14 C         -13.4340  -12.7956   31.4056 C.3     1  UNL1        0.0439
     15 C         -11.6150  -13.8109   32.7881 C.3     1  UNL1        0.0439
     16 C          -9.0942  -13.6505   28.4191 C.2     1  UNL1        0.2525
     17 O         -10.2282  -13.8655   27.9112 O.2     1  UNL1       -0.2697
     18 N          -7.9382  -14.3618   27.9396 N.am    1  UNL1       -0.2803
     19 H          -7.0020  -14.1306   28.3390 H       1  UNL1        0.1552
     20 C          -7.9742  -15.3285   26.8767 C.ar    1  UNL1        0.0505
     21 C          -8.6386  -16.5455   27.0809 C.ar    1  UNL1        0.0147
     22 C          -8.7206  -17.4869   26.0532 C.ar    1  UNL1        0.0012
     23 C          -8.1463  -17.2196   24.8086 C.ar    1  UNL1        0.0039
     24 C          -7.4748  -16.0059   24.5816 C.ar    1  UNL1        0.0726
     25 C          -7.4201  -15.0514   25.6136 C.ar    1  UNL1        0.0185
     26 C          -6.9162  -15.6855   23.2179 C.3     1  UNL1        0.4186
     27 F          -6.8192  -16.8506   22.4805 F       1  UNL1       -0.1659
     28 F          -7.7408  -14.7963   22.5505 F       1  UNL1       -0.1659
     29 F          -5.6602  -15.1133   23.3244 F       1  UNL1       -0.1659
     30 C         -12.5353   -9.2517   32.8334 C.3     1  UNL1        0.0005
     31 C         -12.0924  -10.1033   31.6327 C.3     1  UNL1        0.0076
     32 C         -11.3802   -9.1968   30.6065 C.3     1  UNL1        0.0005
     33 N          -6.0653   -9.0686   33.1534 N.pl3   1  UNL1       -0.2814
     34 H          -6.0813   -9.2496   34.1820 H       1  UNL1        0.1551
     35 C          -5.2839   -7.9629   32.6690 C.ar    1  UNL1        0.0889
     36 C          -4.1014   -7.5663   33.3279 C.ar    1  UNL1        0.1543
     37 F          -3.6588   -8.2303   34.4253 F       1  UNL1       -0.2028
     38 C          -3.3492   -6.4944   32.8388 C.ar    1  UNL1        0.0310
     39 C          -3.7570   -5.8168   31.6888 C.ar    1  UNL1        0.0033
     40 C          -4.9162   -6.2119   31.0190 C.ar    1  UNL1        0.0128
     41 C          -5.6780   -7.2836   31.4988 C.ar    1  UNL1        0.0733
     42 CL         -7.1462   -7.7289   30.6387 Cl      1  UNL1       -0.0809
@<TRIPOS>BOND
     1    30    31    1
     2    31    32    1
     3    31     1    1
     4     1     2    1
     5     2     3   ar
     6     3     4   ar
     7     4    16    1
     8    16    17    2
     9    16    18   am
    10    18    20    1
    11    20    21   ar
    12    21    22   ar
    13    22    23   ar
    14    23    24   ar
    15    24    26    1
    16    26    27    1
    17    26    28    1
    18    26    29    1
    19    24    25   ar
    20     4     5   ar
    21     5     6   ar
    22     6     7   ar
    23     7     8   ar
    24     8    33    1
    25    33    35    1
    26    35    36   ar
    27    36    37    1
    28    36    38   ar
    29    38    39   ar
    30    39    40   ar
    31    40    41   ar
    32    41    42    1
    33     8     9   ar
    34     9    10    1
    35     9    11   ar
    36     3    12    1
    37    12    13    1
    38    13    14    1
    39    13    15    1
    40    13     1    1
    41    11     2   ar
    42    25    20   ar
    43    11     6   ar
    44    41    35   ar
    45    18    19    1
    46    33    34    1
@<TRIPOS>MOLECULE
*****
 42 46 0 0 0
SMALL
GASTEIGER

@<TRIPOS>ATOM
      1 C          -5.9731  -10.3843   29.8153 C.3     1  UNL1        0.0634
      2 C          -7.0476  -11.3842   29.4757 C.ar    1  UNL1        0.0323
      3 C          -6.5098  -12.3757   28.6818 C.ar    1  UNL1        0.1401
      4 C          -7.2358  -13.5324   28.3138 C.ar    1  UNL1        0.0888
      5 C          -8.5922  -13.6181   28.7111 C.ar    1  UNL1        0.0282
      6 C          -9.1451  -12.5542   29.4345 C.ar    1  UNL1        0.0999
      7 N         -10.4343  -12.4034   29.7794 N.ar    1  UNL1       -0.2135
      8 C         -10.4592  -11.1631   30.3269 C.ar    1  UNL1        0.2018
      9 N          -9.2419  -10.5493   30.3678 N.ar    1  UNL1       -0.2977
     10 C          -8.9727   -9.1579   30.7356 C.3     1  UNL1        0.1332
     11 C          -8.4138  -11.4501   29.7952 C.ar    1  UNL1        0.0789
     12 O          -5.2458  -12.0272   28.2520 O.3     1  UNL1       -0.4824
     13 C          -4.9363  -10.6921   28.6516 C.3     1  UNL1        0.1370
     14 C          -3.4334  -10.6028   28.9885 C.3     1  UNL1        0.0439
     15 C          -5.2196   -9.7571   27.4570 C.3     1  UNL1        0.0439
     16 C          -6.6343  -14.6013   27.4882 C.2     1  UNL1        0.2525
     17 O          -6.7835  -15.8022   27.8427 O.2     1  UNL1       -0.2697
     18 N          -5.8912  -14.2840   26.2968 N.am    1  UNL1       -0.2803
     19 H          -5.8242  -13.2872   25.9945 H       1  UNL1        0.1552
     20 C          -5.2914  -15.2686   25.4386 C.ar    1  UNL1        0.0505
     21 C          -4.6051  -16.3481   26.0109 C.ar    1  UNL1        0.0147
     22 C          -4.0450  -17.3383   25.2017 C.ar    1  UNL1        0.0012
     23 C          -4.1708  -17.2645   23.8129 C.ar    1  UNL1        0.0039
     24 C          -4.8545  -16.1906   23.2172 C.ar    1  UNL1        0.0726
     25 C          -5.4394  -15.2114   24.0408 C.ar    1  UNL1        0.0185
     26 C          -5.0530  -16.1461   21.7229 C.3     1  UNL1        0.4186
     27 F          -5.2625  -17.4292   21.2532 F       1  UNL1       -0.1659
     28 F          -6.1478  -15.3630   21.4001 F       1  UNL1       -0.1659
     29 F          -3.9402  -15.6124   21.0960 F       1  UNL1       -0.1659
     30 C          -4.9658   -9.2551   31.8871 C.3     1  UNL1        0.0005
     31 C          -5.4017  -10.5958   31.2745 C.3     1  UNL1        0.0076
     32 C          -6.3363  -11.3228   32.2645 C.3     1  UNL1        0.0005
     33 N         -11.6832  -10.5638   30.7727 N.pl3   1  UNL1       -0.2814
     34 H         -12.5205  -11.1834   30.8501 H       1  UNL1        0.1551
     35 C         -11.8677   -9.1469   30.9349 C.ar    1  UNL1        0.0889
     36 C         -11.4990   -8.2458   29.9142 C.ar    1  UNL1        0.1543
     37 F         -10.9785   -8.6934   28.7439 F       1  UNL1       -0.2028
     38 C         -11.6929   -6.8720   30.0849 C.ar    1  UNL1        0.0310
     39 C         -12.2632   -6.3838   31.2614 C.ar    1  UNL1        0.0033
     40 C         -12.6477   -7.2679   32.2708 C.ar    1  UNL1        0.0128
     41 C         -12.4587   -8.6457   32.1119 C.ar    1  UNL1        0.0733
     42 CL        -12.9325   -9.7203   33.4213 Cl      1  UNL1       -0.0809
@<TRIPOS>BOND
     1    30    31    1
     2    31    32    1
     3    31     1    1
     4     1     2    1
     5     2     3   ar
     6     3     4   ar
     7     4    16    1
     8    16    17    2
     9    16    18   am
    10    18    20    1
    11    20    21   ar
    12    21    22   ar
    13    22    23   ar
    14    23    24   ar
    15    24    26    1
    16    26    27    1
    17    26    28    1
    18    26    29    1
    19    24    25   ar
    20     4     5   ar
    21     5     6   ar
    22     6     7   ar
    23     7     8   ar
    24     8    33    1
    25    33    35    1
    26    35    36   ar
    27    36    37    1
    28    36    38   ar
    29    38    39   ar
    30    39    40   ar
    31    40    41   ar
    32    41    42    1
    33     8     9   ar
    34     9    10    1
    35     9    11   ar
    36     3    12    1
    37    12    13    1
    38    13    14    1
    39    13    15    1
    40    13     1    1
    41    11     2   ar
    42    25    20   ar
    43    11     6   ar
    44    41    35   ar
    45    18    19    1
    46    33    34    1
@<TRIPOS>MOLECULE
*****
 42 46 0 0 0
SMALL
GASTEIGER

@<TRIPOS>ATOM
      1 C          -7.5998   -9.1024   31.2366 C.3     1  UNL1        0.0634
      2 C          -8.1210  -10.4880   30.9578 C.ar    1  UNL1        0.0323
      3 C          -7.4836  -10.9971   29.8455 C.ar    1  UNL1        0.1401
      4 C          -7.6563  -12.3332   29.4152 C.ar    1  UNL1        0.0888
      5 C          -8.5889  -13.1389   30.1124 C.ar    1  UNL1        0.0282
      6 C          -9.2965  -12.5712   31.1791 C.ar    1  UNL1        0.0999
      7 N         -10.3032  -13.1369   31.8650 N.ar    1  UNL1       -0.2135
      8 C         -10.7219  -12.1322   32.6737 C.ar    1  UNL1        0.2018
      9 N         -10.0034  -10.9800   32.5460 N.ar    1  UNL1       -0.2977
     10 C         -10.3138   -9.6812   33.1465 C.3     1  UNL1        0.1332
     11 C          -9.0972  -11.2765   31.5890 C.ar    1  UNL1        0.0789
     12 O          -6.7607  -10.0133   29.2024 O.3     1  UNL1       -0.4824
     13 C          -7.0011   -8.7437   29.8094 C.3     1  UNL1        0.1370
     14 C          -5.7033   -7.9107   29.7653 C.3     1  UNL1        0.0439
     15 C          -8.0739   -8.0105   28.9769 C.3     1  UNL1        0.0439
     16 C          -6.9412  -12.8728   28.2390 C.2     1  UNL1        0.2525
     17 O          -5.9400  -12.2479   27.7948 O.2     1  UNL1       -0.2697
     18 N          -7.3737  -14.0918   27.6073 N.am    1  UNL1       -0.2803
     19 H          -8.1729  -14.6193   28.0229 H       1  UNL1        0.1552
     20 C          -6.7210  -14.6830   26.4716 C.ar    1  UNL1        0.0505
     21 C          -5.3958  -15.1218   26.5958 C.ar    1  UNL1        0.0147
     22 C          -4.7501  -15.7332   25.5196 C.ar    1  UNL1        0.0012
     23 C          -5.4235  -15.9195   24.3105 C.ar    1  UNL1        0.0039
     24 C          -6.7527  -15.4869   24.1632 C.ar    1  UNL1        0.0726
     25 C          -7.4050  -14.8964   25.2609 C.ar    1  UNL1        0.0185
     26 C          -7.5045  -15.7509   22.8828 C.3     1  UNL1        0.4186
     27 F          -7.1073  -14.8367   21.9250 F       1  UNL1       -0.1659
     28 F          -7.2456  -17.0298   22.4209 F       1  UNL1       -0.1659
     29 F          -8.8691  -15.6314   23.0818 F       1  UNL1       -0.1659
     30 C          -5.1850   -9.6226   31.9295 C.3     1  UNL1        0.0005
     31 C          -6.5429   -9.0884   32.4126 C.3     1  UNL1        0.0076
     32 C          -6.3307   -7.7284   33.1107 C.3     1  UNL1        0.0005
     33 N         -11.8522  -12.2892   33.5420 N.pl3   1  UNL1       -0.2814
     34 H         -11.9807  -11.5774   34.2957 H       1  UNL1        0.1551
     35 C         -12.6964  -13.4532   33.5542 C.ar    1  UNL1        0.0889
     36 C         -12.5618  -14.4367   34.5564 C.ar    1  UNL1        0.1543
     37 F         -11.6450  -14.3009   35.5474 F       1  UNL1       -0.2028
     38 C         -13.3962  -15.5582   34.5580 C.ar    1  UNL1        0.0310
     39 C         -14.3757  -15.7066   33.5750 C.ar    1  UNL1        0.0033
     40 C         -14.5292  -14.7309   32.5886 C.ar    1  UNL1        0.0128
     41 C         -13.6997  -13.6034   32.5760 C.ar    1  UNL1        0.0733
     42 CL        -13.9105  -12.4134   31.2982 Cl      1  UNL1       -0.0809
@<TRIPOS>BOND
     1    30    31    1
     2    31    32    1
     3    31     1    1
     4     1     2    1
     5     2     3   ar
     6     3     4   ar
     7     4    16    1
     8    16    17    2
     9    16    18   am
    10    18    20    1
    11    20    21   ar
    12    21    22   ar
    13    22    23   ar
    14    23    24   ar
    15    24    26    1
    16    26    27    1
    17    26    28    1
    18    26    29    1
    19    24    25   ar
    20     4     5   ar
    21     5     6   ar
    22     6     7   ar
    23     7     8   ar
    24     8    33    1
    25    33    35    1
    26    35    36   ar
    27    36    37    1
    28    36    38   ar
    29    38    39   ar
    30    39    40   ar
    31    40    41   ar
    32    41    42    1
    33     8     9   ar
    34     9    10    1
    35     9    11   ar
    36     3    12    1
    37    12    13    1
    38    13    14    1
    39    13    15    1
    40    13     1    1
    41    11     2   ar
    42    25    20   ar
    43    11     6   ar
    44    41    35   ar
    45    18    19    1
    46    33    34    1
