@<TRIPOS>MOLECULE
*****
 52 57 0 0 0
SMALL
GASTEIGER

@<TRIPOS>ATOM
      1 N          61.6523   85.5244   11.6440 N.am    1  UNL1       -0.2945
      2 C          60.5447   86.4029   11.3828 C.2     1  UNL1        0.2483
      3 O          59.6917   86.6202   12.2865 O.2     1  UNL1       -0.2701
      4 H          62.1847   85.1493   10.8279 H       1  UNL1        0.1501
      5 C          60.3853   87.0478   10.0559 C.ar    1  UNL1        0.0808
      6 C          59.6143   86.4319    9.0537 C.ar    1  UNL1        0.0080
      7 C          59.4645   87.0316    7.8012 C.ar    1  UNL1        0.0148
      8 C          60.0854   88.2566    7.5206 C.ar    1  UNL1        0.0502
      9 C          60.8601   88.8739    8.5149 C.ar    1  UNL1        0.0443
     10 C          61.0141   88.2764    9.7699 C.ar    1  UNL1        0.1457
     11 F          61.7600   88.9133   10.7083 F       1  UNL1       -0.2040
     12 N          59.9222   88.8710    6.2283 N.pl3   1  UNL1       -0.3040
     13 C          60.9903   88.7970    5.2256 C.3     1  UNL1        0.1123
     14 C          61.0922   90.1197    4.4610 C.3     1  UNL1        0.1136
     15 N          59.7605   90.5728    4.0338 N.pl3   1  UNL1       -0.2897
     16 C          58.6953   90.6297    5.0437 C.3     1  UNL1        0.1136
     17 C          58.5926   89.2941    5.7769 C.3     1  UNL1        0.1123
     18 C          59.5640   91.2148    2.7575 C.ar    1  UNL1        0.1318
     19 C          60.4537   92.1948    2.2878 C.ar    1  UNL1        0.0343
     20 C          60.2273   92.7946    1.0481 C.ar    1  UNL1        0.0083
     21 C          59.1051   92.4390    0.2850 C.ar    1  UNL1        0.0906
     22 C          58.2499   91.4432    0.7817 C.ar    1  UNL1        0.1041
     23 N          58.4924   90.8712    1.9906 N.ar    1  UNL1       -0.2292
     24 C          58.8763   93.0428   -1.0772 C.3     1  UNL1        0.4200
     25 F          57.7462   93.8422   -1.0734 F       1  UNL1       -0.1658
     26 F          58.7082   92.0292   -2.0018 F       1  UNL1       -0.1658
     27 F          59.9567   93.8221   -1.4533 F       1  UNL1       -0.1658
     28 C          61.8933   84.9221   12.9616 C.3     1  UNL1        0.1535
     29 C          62.4630   85.9393   13.9201 C.2     1  UNL1        0.2443
     30 O          62.9796   85.5608   15.0072 O.2     1  UNL1       -0.2730
     31 N          62.4031   87.3364   13.5913 N.am    1  UNL1       -0.2825
     32 H          61.7456   87.6278   12.8326 H       1  UNL1        0.1549
     33 C          63.1140   88.3676   14.2985 C.ar    1  UNL1        0.0535
     34 C          64.2206   88.9785   13.6927 C.ar    1  UNL1        0.0353
     35 C          64.9320   89.9630   14.3826 C.ar    1  UNL1        0.1002
     36 N          64.5626   90.3145   15.6423 N.ar    1  UNL1       -0.2422
     37 C          63.5066   89.7269   16.2643 C.ar    1  UNL1        0.1002
     38 C          62.7670   88.7390   15.6094 C.ar    1  UNL1        0.0353
     39 C          60.6060   84.2783   13.5152 C.3     1  UNL1        0.0569
     40 C          58.9721   80.0991   11.3876 C.ar    1  UNL1        0.0228
     41 C          58.0325   80.7043   10.5232 C.ar    1  UNL1       -0.0004
     42 C          57.8626   82.1052   10.5118 C.ar    1  UNL1       -0.0002
     43 C          58.6327   82.9240   11.3536 C.ar    1  UNL1        0.0011
     44 C          59.5598   82.3080   12.1932 C.ar    1  UNL1        0.0129
     45 C          60.4415   82.8366   13.1164 C.ar    1  UNL1       -0.0017
     46 C          61.1203   81.7484   13.6534 C.ar    1  UNL1        0.0681
     47 N          60.6842   80.5971   13.0952 N.ar    1  UNL1       -0.3524
     48 C          59.7310   80.9458   12.2094 C.ar    1  UNL1        0.0546
     49 H          61.0250   79.6357   13.3178 H       1  UNL1        0.1660
     50 C          59.1741   78.6103   11.3927 C.3     1  UNL1        0.1701
     51 C          61.1755   78.0150   10.4232 C.3     1  UNL1        0.1746
     52 O          60.5363   78.3342   11.6385 O.3     1  UNL1       -0.3463
@<TRIPOS>BOND
     1    51    52    1
     2    52    50    1
     3    50    40    1
     4    40    41   ar
     5    41    42   ar
     6    42    43   ar
     7    43    44   ar
     8    44    45   ar
     9    45    39    1
    10    39    28    1
    11    28     1    1
    12     1     2   am
    13     2     3    2
    14     2     5    1
    15     5     6   ar
    16     6     7   ar
    17     7     8   ar
    18     8    12    1
    19    12    13    1
    20    13    14    1
    21    14    15    1
    22    15    18    1
    23    18    19   ar
    24    19    20   ar
    25    20    21   ar
    26    21    24    1
    27    24    25    1
    28    24    26    1
    29    24    27    1
    30    21    22   ar
    31    22    23   ar
    32    15    16    1
    33    16    17    1
    34     8     9   ar
    35     9    10   ar
    36    10    11    1
    37    28    29    1
    38    29    30    2
    39    29    31   am
    40    31    33    1
    41    33    34   ar
    42    34    35   ar
    43    35    36   ar
    44    36    37   ar
    45    37    38   ar
    46    45    46   ar
    47    46    47   ar
    48    47    48   ar
    49    48    40   ar
    50    48    44   ar
    51    10     5   ar
    52    38    33   ar
    53    17    12    1
    54    23    18   ar
    55     1     4    1
    56    31    32    1
    57    47    49    1
@<TRIPOS>MOLECULE
*****
 52 57 0 0 0
SMALL
GASTEIGER

@<TRIPOS>ATOM
      1 N          60.4008   84.8978   11.9371 N.am    1  UNL1       -0.2945
      2 C          59.2778   85.6225   11.4077 C.2     1  UNL1        0.2483
      3 O          58.1927   85.6517   12.0503 O.2     1  UNL1       -0.2701
      4 H          61.1828   84.6605   11.2872 H       1  UNL1        0.1501
      5 C          59.3762   86.3270   10.1054 C.ar    1  UNL1        0.0808
      6 C          60.0364   87.5656   10.0148 C.ar    1  UNL1        0.0080
      7 C          60.1281   88.2358    8.7928 C.ar    1  UNL1        0.0148
      8 C          59.5584   87.6863    7.6359 C.ar    1  UNL1        0.0502
      9 C          58.8941   86.4529    7.7208 C.ar    1  UNL1        0.0443
     10 C          58.7984   85.7789    8.9424 C.ar    1  UNL1        0.1457
     11 F          58.1598   84.5817    8.9786 F       1  UNL1       -0.2040
     12 N          59.6614   88.3811    6.3787 N.pl3   1  UNL1       -0.3040
     13 C          60.8434   88.2125    5.5266 C.3     1  UNL1        0.1123
     14 C          61.2220   89.5455    4.8752 C.3     1  UNL1        0.1136
     15 N          60.0340   90.1967    4.3043 N.pl3   1  UNL1       -0.2897
     16 C          58.8517   90.3478    5.1628 C.3     1  UNL1        0.1136
     17 C          58.4751   89.0036    5.7821 C.3     1  UNL1        0.1123
     18 C          60.1057   90.9226    3.0603 C.ar    1  UNL1        0.1318
     19 C          61.3140   91.4755    2.6054 C.ar    1  UNL1        0.0343
     20 C          61.3413   92.1733    1.3970 C.ar    1  UNL1        0.0083
     21 C          60.1650   92.3428    0.6516 C.ar    1  UNL1        0.0906
     22 C          58.9821   91.7602    1.1319 C.ar    1  UNL1        0.1041
     23 N          58.9804   91.0826    2.3102 N.ar    1  UNL1       -0.2292
     24 C          60.1908   93.0511   -0.6789 C.3     1  UNL1        0.4200
     25 F          61.3190   93.8458   -0.7874 F       1  UNL1       -0.1658
     26 F          59.0663   93.8470   -0.7925 F       1  UNL1       -0.1658
     27 F          60.2035   92.1370   -1.7183 F       1  UNL1       -0.1658
     28 C          60.3759   84.2478   13.2539 C.3     1  UNL1        0.1535
     29 C          60.3246   82.7463   13.1099 C.2     1  UNL1        0.2443
     30 O          61.2132   82.0308   13.6487 O.2     1  UNL1       -0.2730
     31 N          59.2668   82.1416   12.3489 N.am    1  UNL1       -0.2825
     32 H          58.7174   82.7582   11.7081 H       1  UNL1        0.1549
     33 C          58.9775   80.7326   12.3392 C.ar    1  UNL1        0.0535
     34 C          58.5209   80.1332   11.1572 C.ar    1  UNL1        0.0353
     35 C          58.2136   78.7706   11.1458 C.ar    1  UNL1        0.1002
     36 N          58.3408   78.0334   12.2804 N.ar    1  UNL1       -0.2422
     37 C          58.7621   78.5895   13.4468 C.ar    1  UNL1        0.1002
     38 C          59.0815   79.9485   13.5016 C.ar    1  UNL1        0.0353
     39 C          61.5774   84.6957   14.1106 C.3     1  UNL1        0.0569
     40 C          63.6750   89.1873   13.8135 C.ar    1  UNL1        0.0228
     41 C          63.6665   89.4709   15.1976 C.ar    1  UNL1       -0.0004
     42 C          63.1509   88.5365   16.1209 C.ar    1  UNL1       -0.0002
     43 C          62.6456   87.3026   15.6803 C.ar    1  UNL1        0.0011
     44 C          62.6701   87.0389   14.3114 C.ar    1  UNL1        0.0129
     45 C          62.2502   85.9374   13.5906 C.ar    1  UNL1       -0.0017
     46 C          62.5268   86.2315   12.2601 C.ar    1  UNL1        0.0681
     47 N          63.0902   87.4556   12.1539 N.ar    1  UNL1       -0.3524
     48 C          63.1708   87.9428   13.4073 C.ar    1  UNL1        0.0546
     49 H          63.3946   87.9201   11.2699 H       1  UNL1        0.1660
     50 C          64.2399   90.1675   12.8248 C.3     1  UNL1        0.1701
     51 C          64.3146   90.4950   10.5473 C.3     1  UNL1        0.1746
     52 O          64.3725   89.5294   11.5728 O.3     1  UNL1       -0.3463
@<TRIPOS>BOND
     1    51    52    1
     2    52    50    1
     3    50    40    1
     4    40    41   ar
     5    41    42   ar
     6    42    43   ar
     7    43    44   ar
     8    44    45   ar
     9    45    39    1
    10    39    28    1
    11    28     1    1
    12     1     2   am
    13     2     3    2
    14     2     5    1
    15     5     6   ar
    16     6     7   ar
    17     7     8   ar
    18     8    12    1
    19    12    13    1
    20    13    14    1
    21    14    15    1
    22    15    18    1
    23    18    19   ar
    24    19    20   ar
    25    20    21   ar
    26    21    24    1
    27    24    25    1
    28    24    26    1
    29    24    27    1
    30    21    22   ar
    31    22    23   ar
    32    15    16    1
    33    16    17    1
    34     8     9   ar
    35     9    10   ar
    36    10    11    1
    37    28    29    1
    38    29    30    2
    39    29    31   am
    40    31    33    1
    41    33    34   ar
    42    34    35   ar
    43    35    36   ar
    44    36    37   ar
    45    37    38   ar
    46    45    46   ar
    47    46    47   ar
    48    47    48   ar
    49    48    40   ar
    50    48    44   ar
    51    10     5   ar
    52    38    33   ar
    53    17    12    1
    54    23    18   ar
    55     1     4    1
    56    31    32    1
    57    47    49    1
@<TRIPOS>MOLECULE
*****
 52 57 0 0 0
SMALL
GASTEIGER

@<TRIPOS>ATOM
      1 N          61.8935   85.5952   11.6345 N.am    1  UNL1       -0.2945
      2 C          60.7471   86.4229   11.3750 C.2     1  UNL1        0.2483
      3 O          59.8957   86.6159   12.2856 O.2     1  UNL1       -0.2701
      4 H          62.4323   85.2322   10.8171 H       1  UNL1        0.1501
      5 C          60.5462   87.0433   10.0420 C.ar    1  UNL1        0.0808
      6 C          61.1379   88.2825    9.7378 C.ar    1  UNL1        0.0080
      7 C          60.9486   88.8737    8.4866 C.ar    1  UNL1        0.0148
      8 C          60.1604   88.2430    7.5141 C.ar    1  UNL1        0.0502
      9 C          59.5634   87.0086    7.8133 C.ar    1  UNL1        0.0443
     10 C          59.7488   86.4135    9.0652 C.ar    1  UNL1        0.1457
     11 F          59.1654   85.2124    9.3093 F       1  UNL1       -0.2040
     12 N          59.9740   88.8567    6.2246 N.pl3   1  UNL1       -0.3040
     13 C          61.0068   88.7473    5.1887 C.3     1  UNL1        0.1123
     14 C          61.1229   90.0633    4.4147 C.3     1  UNL1        0.1136
     15 N          59.7920   90.5537    4.0279 N.pl3   1  UNL1       -0.2897
     16 C          58.7618   90.6460    5.0709 C.3     1  UNL1        0.1136
     17 C          58.6435   89.3169    5.8137 C.3     1  UNL1        0.1123
     18 C          59.5736   91.1960    2.7553 C.ar    1  UNL1        0.1318
     19 C          60.5958   91.9156    2.1151 C.ar    1  UNL1        0.0343
     20 C          60.3438   92.5252    0.8851 C.ar    1  UNL1        0.0083
     21 C          59.0708   92.4407    0.3017 C.ar    1  UNL1        0.0906
     22 C          58.0819   91.6979    0.9649 C.ar    1  UNL1        0.1041
     23 N          58.3515   91.1106    2.1607 N.ar    1  UNL1       -0.2292
     24 C          58.7998   93.0521   -1.0493 C.3     1  UNL1        0.4200
     25 F          58.6021   92.0664   -2.0007 F       1  UNL1       -0.1658
     26 F          59.8808   93.8285   -1.4225 F       1  UNL1       -0.1658
     27 F          57.6670   93.8465   -1.0071 F       1  UNL1       -0.1658
     28 C          62.1741   85.0207   12.9567 C.3     1  UNL1        0.1535
     29 C          62.7878   86.0531   13.8706 C.2     1  UNL1        0.2443
     30 O          63.5987   85.6968   14.7692 O.2     1  UNL1       -0.2730
     31 N          62.4349   87.4371   13.7170 N.am    1  UNL1       -0.2825
     32 H          61.5800   87.6599   13.1583 H       1  UNL1        0.1549
     33 C          63.1228   88.5257   14.3578 C.ar    1  UNL1        0.0535
     34 C          62.6384   89.0226   15.5757 C.ar    1  UNL1        0.0353
     35 C          63.2857   90.0960   16.1922 C.ar    1  UNL1        0.1002
     36 N          64.3703   90.6667   15.6047 N.ar    1  UNL1       -0.2422
     37 C          64.8521   90.2206   14.4148 C.ar    1  UNL1        0.1002
     38 C          64.2355   89.1482   13.7653 C.ar    1  UNL1        0.0353
     39 C          60.9001   84.4047   13.5696 C.3     1  UNL1        0.0569
     40 C          60.3889   80.5535   10.4763 C.ar    1  UNL1        0.0228
     41 C          61.7665   80.3102   10.2783 C.ar    1  UNL1       -0.0004
     42 C          62.7380   81.1049   10.9235 C.ar    1  UNL1       -0.0002
     43 C          62.3517   82.1465   11.7825 C.ar    1  UNL1        0.0011
     44 C          60.9876   82.3652   11.9705 C.ar    1  UNL1        0.0129
     45 C          60.3139   83.2966   12.7371 C.ar    1  UNL1       -0.0017
     46 C          58.9620   83.0378   12.5404 C.ar    1  UNL1        0.0681
     47 N          58.7984   81.9978   11.6925 N.ar    1  UNL1       -0.3524
     48 C          60.0367   81.5958   11.3467 C.ar    1  UNL1        0.0546
     49 H          57.8877   81.5980   11.3750 H       1  UNL1        0.1660
     50 C          59.3474   79.7003    9.8093 C.3     1  UNL1        0.1701
     51 C          58.1967   78.2811   11.2100 C.3     1  UNL1        0.1746
     52 O          58.2339   79.5822   10.6686 O.3     1  UNL1       -0.3463
@<TRIPOS>BOND
     1    51    52    1
     2    52    50    1
     3    50    40    1
     4    40    41   ar
     5    41    42   ar
     6    42    43   ar
     7    43    44   ar
     8    44    45   ar
     9    45    39    1
    10    39    28    1
    11    28     1    1
    12     1     2   am
    13     2     3    2
    14     2     5    1
    15     5     6   ar
    16     6     7   ar
    17     7     8   ar
    18     8    12    1
    19    12    13    1
    20    13    14    1
    21    14    15    1
    22    15    18    1
    23    18    19   ar
    24    19    20   ar
    25    20    21   ar
    26    21    24    1
    27    24    25    1
    28    24    26    1
    29    24    27    1
    30    21    22   ar
    31    22    23   ar
    32    15    16    1
    33    16    17    1
    34     8     9   ar
    35     9    10   ar
    36    10    11    1
    37    28    29    1
    38    29    30    2
    39    29    31   am
    40    31    33    1
    41    33    34   ar
    42    34    35   ar
    43    35    36   ar
    44    36    37   ar
    45    37    38   ar
    46    45    46   ar
    47    46    47   ar
    48    47    48   ar
    49    48    40   ar
    50    48    44   ar
    51    10     5   ar
    52    38    33   ar
    53    17    12    1
    54    23    18   ar
    55     1     4    1
    56    31    32    1
    57    47    49    1
@<TRIPOS>MOLECULE
*****
 52 57 0 0 0
SMALL
GASTEIGER

@<TRIPOS>ATOM
      1 N          61.0847   84.9857   11.7947 N.am    1  UNL1       -0.2945
      2 C          60.1045   86.0020   11.5240 C.2     1  UNL1        0.2483
      3 O          59.2633   86.3121   12.4113 O.2     1  UNL1       -0.2701
      4 H          61.5859   84.5585   10.9845 H       1  UNL1        0.1501
      5 C          60.0622   86.6823   10.2059 C.ar    1  UNL1        0.0808
      6 C          59.3676   86.1033    9.1286 C.ar    1  UNL1        0.0080
      7 C          59.3282   86.7364    7.8842 C.ar    1  UNL1        0.0148
      8 C          59.9857   87.9586    7.6872 C.ar    1  UNL1        0.0502
      9 C          60.6845   88.5391    8.7570 C.ar    1  UNL1        0.0443
     10 C          60.7280   87.9082   10.0042 C.ar    1  UNL1        0.1457
     11 F          61.4031   88.5100   11.0165 F       1  UNL1       -0.2040
     12 N          59.9363   88.6077    6.4025 N.pl3   1  UNL1       -0.3040
     13 C          61.0980   88.5819    5.5073 C.3     1  UNL1        0.1123
     14 C          61.2468   89.9280    4.7928 C.3     1  UNL1        0.1136
     15 N          59.9539   90.3699    4.2501 N.pl3   1  UNL1       -0.2897
     16 C          58.7947   90.3784    5.1523 C.3     1  UNL1        0.1136
     17 C          58.6485   89.0203    5.8351 C.3     1  UNL1        0.1123
     18 C          59.8693   91.0454    2.9789 C.ar    1  UNL1        0.1318
     19 C          61.0234   91.3944    2.2585 C.ar    1  UNL1        0.0343
     20 C          60.8993   92.0499    1.0327 C.ar    1  UNL1        0.0083
     21 C          59.6309   92.3803    0.5327 C.ar    1  UNL1        0.0906
     22 C          58.5023   91.9987    1.2744 C.ar    1  UNL1        0.1041
     23 N          58.6478   91.3585    2.4645 N.ar    1  UNL1       -0.2292
     24 C          59.4813   93.0434   -0.8128 C.3     1  UNL1        0.4200
     25 F          60.5745   93.8478   -1.0850 F       1  UNL1       -0.1658
     26 F          58.3386   93.8211   -0.8123 F       1  UNL1       -0.1658
     27 F          59.3811   92.0949   -1.8159 F       1  UNL1       -0.1658
     28 C          61.2136   84.3374   13.1062 C.3     1  UNL1        0.1535
     29 C          61.0887   82.8388   12.9781 C.2     1  UNL1        0.2443
     30 O          61.6627   82.0850   13.8114 O.2     1  UNL1       -0.2730
     31 N          60.3234   82.2796   11.8987 N.am    1  UNL1       -0.2825
     32 H          60.0929   82.9050   11.0934 H       1  UNL1        0.1549
     33 C          59.9371   80.8970   11.8092 C.ar    1  UNL1        0.0535
     34 C          58.7136   80.4886   12.3578 C.ar    1  UNL1        0.0353
     35 C          58.3423   79.1433   12.2975 C.ar    1  UNL1        0.1002
     36 N          59.1718   78.2320   11.7243 N.ar    1  UNL1       -0.2422
     37 C          60.3730   78.5934   11.2012 C.ar    1  UNL1        0.1002
     38 C          60.7822   79.9287   11.2391 C.ar    1  UNL1        0.0353
     39 C          62.5350   84.7410   13.7911 C.3     1  UNL1        0.0569
     40 C          63.0921   89.3333   15.5975 C.ar    1  UNL1        0.0228
     41 C          63.8990   89.8314   14.5502 C.ar    1  UNL1       -0.0004
     42 C          64.2517   89.0086   13.4593 C.ar    1  UNL1       -0.0002
     43 C          63.7980   87.6814   13.3909 C.ar    1  UNL1        0.0011
     44 C          62.9965   87.2114   14.4305 C.ar    1  UNL1        0.0129
     45 C          62.4126   85.9770   14.6409 C.ar    1  UNL1       -0.0017
     46 C          61.7223   86.0880   15.8428 C.ar    1  UNL1        0.0681
     47 N          61.8682   87.3289   16.3587 N.ar    1  UNL1       -0.3524
     48 C          62.6487   88.0063   15.4946 C.ar    1  UNL1        0.0546
     49 H          61.4551   87.6783   17.2516 H       1  UNL1        0.1660
     50 C          62.6950   90.2076   16.7531 C.3     1  UNL1        0.1701
     51 C          61.4134   92.0806   17.1395 C.3     1  UNL1        0.1746
     52 O          62.3399   91.4822   16.2616 O.3     1  UNL1       -0.3463
@<TRIPOS>BOND
     1    51    52    1
     2    52    50    1
     3    50    40    1
     4    40    41   ar
     5    41    42   ar
     6    42    43   ar
     7    43    44   ar
     8    44    45   ar
     9    45    39    1
    10    39    28    1
    11    28     1    1
    12     1     2   am
    13     2     3    2
    14     2     5    1
    15     5     6   ar
    16     6     7   ar
    17     7     8   ar
    18     8    12    1
    19    12    13    1
    20    13    14    1
    21    14    15    1
    22    15    18    1
    23    18    19   ar
    24    19    20   ar
    25    20    21   ar
    26    21    24    1
    27    24    25    1
    28    24    26    1
    29    24    27    1
    30    21    22   ar
    31    22    23   ar
    32    15    16    1
    33    16    17    1
    34     8     9   ar
    35     9    10   ar
    36    10    11    1
    37    28    29    1
    38    29    30    2
    39    29    31   am
    40    31    33    1
    41    33    34   ar
    42    34    35   ar
    43    35    36   ar
    44    36    37   ar
    45    37    38   ar
    46    45    46   ar
    47    46    47   ar
    48    47    48   ar
    49    48    40   ar
    50    48    44   ar
    51    10     5   ar
    52    38    33   ar
    53    17    12    1
    54    23    18   ar
    55     1     4    1
    56    31    32    1
    57    47    49    1
