@<TRIPOS>MOLECULE
*****
 52 58 0 0 0
SMALL
GASTEIGER

@<TRIPOS>ATOM
      1 C          60.0818   87.1942   10.2803 C.ar    1  UNL1        0.0504
      2 C          61.2683   86.8734   10.9542 C.ar    1  UNL1        0.0178
      3 C          61.2360   86.0803   12.1032 C.ar    1  UNL1        0.0405
      4 C          60.0232   85.5910   12.6029 C.ar    1  UNL1        0.1660
      5 C          58.8239   85.9181   11.9299 C.ar    1  UNL1        0.1750
      6 F          57.6166   85.4867   12.3694 F       1  UNL1       -0.2009
      7 C          58.8610   86.7131   10.7794 C.ar    1  UNL1        0.0473
      8 N          59.6973   89.7774    6.9934 N.pl3   1  UNL1       -0.3041
      9 C          59.0059   88.4830    6.9552 C.3     1  UNL1        0.1122
     10 C          59.7697   87.4506    7.7881 C.3     1  UNL1        0.1122
     11 N          60.1208   88.0143    9.0973 N.pl3   1  UNL1       -0.3040
     12 C          60.8179   89.3058    9.1228 C.3     1  UNL1        0.1122
     13 C          60.0363   90.3346    8.3082 C.3     1  UNL1        0.1122
     14 C          59.8392   92.2642    3.5344 C.ar    1  UNL1        0.0699
     15 C          60.9912   91.5905    3.9746 C.ar    1  UNL1        0.0190
     16 C          60.9476   90.7764    5.1098 C.ar    1  UNL1        0.0160
     17 C          59.7486   90.6133    5.8219 C.ar    1  UNL1        0.0480
     18 C          58.5958   91.2799    5.3805 C.ar    1  UNL1        0.0160
     19 C          58.6392   92.0961    4.2467 C.ar    1  UNL1        0.0190
     20 N          59.8205   93.8406    0.2667 N.ar    1  UNL1       -0.2024
     21 N          60.0756   94.8903    1.0345 N.ar    1  UNL1       -0.1442
     22 C          60.1196   94.4309    2.3042 C.ar    1  UNL1        0.2073
     23 N          59.8897   93.0990    2.3610 N.ar    1  UNL1       -0.2398
     24 C          59.6951   92.7684    1.0689 C.ar    1  UNL1        0.3522
     25 O          59.3905   91.6137    0.6644 O.2     1  UNL1       -0.2444
     26 C          59.6157   93.8996   -1.1841 C.3     1  UNL1        0.1099
     27 C          60.6978   94.7792   -1.8243 C.3     1  UNL1        0.0265
     28 C          57.1572   93.2962   -1.5528 C.3     1  UNL1        0.0021
     29 C          58.1940   94.4172   -1.4785 C.3     1  UNL1        0.0245
     30 O          60.0739   84.7929   13.7576 O.3     1  UNL1       -0.4705
     31 C          60.1030   83.3684   13.7787 C.3     1  UNL1        0.2375
     32 C          59.4351   82.8159   12.5176 C.3     1  UNL1        0.1909
     33 C          58.9093   81.4116   12.7038 C.3     1  UNL1        0.1783
     34 O          59.6257   80.5969   11.8324 O.3     1  UNL1       -0.3271
     35 C          60.2818   81.4645   10.9308 C.3     1  UNL1        0.2232
     36 O          60.3732   82.7574   11.4879 O.3     1  UNL1       -0.3258
     37 C          59.5284   81.5230    9.5967 C.ar    1  UNL1        0.0404
     38 C          58.4613   80.6294    9.3571 C.ar    1  UNL1        0.0021
     39 C          57.7693   80.6449    8.1449 C.ar    1  UNL1        0.0113
     40 C          58.1367   81.5372    7.1392 C.ar    1  UNL1        0.0585
     41 CL         57.2659   81.5515    5.6164 Cl      1  UNL1       -0.0822
     42 C          59.2074   82.4090    7.3403 C.ar    1  UNL1        0.0226
     43 C          59.9126   82.4053    8.5504 C.ar    1  UNL1        0.0591
     44 CL         61.2816   83.5085    8.6808 Cl      1  UNL1       -0.0824
     45 C          61.6978   80.9090   10.6896 C.3     1  UNL1        0.1338
     46 N          62.6940   81.7001   11.4492 N.3     1  UNL1       -0.2659
     47 C          63.1259   80.9972   12.6751 C.3     1  UNL1        0.0898
     48 C          64.3723   81.6500   13.3169 C.3     1  UNL1        0.0897
     49 N          64.6101   83.0245   12.8347 N.3     1  UNL1       -0.2691
     50 C          63.6128   83.9747   13.3590 C.3     1  UNL1        0.0897
     51 C          64.7371   83.0878   11.3595 C.3     1  UNL1        0.0897
     52 C          63.8611   82.0537   10.6245 C.3     1  UNL1        0.0898
@<TRIPOS>BOND
     1    28    29    1
     2    29    26    1
     3    26    27    1
     4    26    20    1
     5    20    21   ar
     6    21    22   ar
     7    22    23   ar
     8    23    14    1
     9    14    15   ar
    10    15    16   ar
    11    16    17   ar
    12    17     8    1
    13     8     9    1
    14     9    10    1
    15    10    11    1
    16    11     1    1
    17     1     2   ar
    18     2     3   ar
    19     3     4   ar
    20     4    30    1
    21    30    31    1
    22    31    32    1
    23    32    33    1
    24    33    34    1
    25    34    35    1
    26    35    45    1
    27    45    46    1
    28    46    47    1
    29    47    48    1
    30    48    49    1
    31    49    50    1
    32    49    51    1
    33    51    52    1
    34    35    37    1
    35    37    38   ar
    36    38    39   ar
    37    39    40   ar
    38    40    41    1
    39    40    42   ar
    40    42    43   ar
    41    43    44    1
    42    35    36    1
    43     4     5   ar
    44     5     6    1
    45     5     7   ar
    46    11    12    1
    47    12    13    1
    48    17    18   ar
    49    18    19   ar
    50    23    24   ar
    51    24    25    2
    52    24    20   ar
    53    19    14   ar
    54    13     8    1
    55     7     1   ar
    56    36    32    1
    57    52    46    1
    58    43    37   ar
@<TRIPOS>MOLECULE
*****
 52 58 0 0 0
SMALL
GASTEIGER

@<TRIPOS>ATOM
      1 C          60.7750   87.5776   11.0693 C.ar    1  UNL1        0.0504
      2 C          62.0327   87.3219   11.6330 C.ar    1  UNL1        0.0178
      3 C          62.1364   86.6587   12.8576 C.ar    1  UNL1        0.0405
      4 C          60.9914   86.2367   13.5438 C.ar    1  UNL1        0.1660
      5 C          59.7211   86.4989   12.9818 C.ar    1  UNL1        0.1750
      6 F          58.5744   86.1280   13.6017 F       1  UNL1       -0.2009
      7 C          59.6220   87.1639   11.7550 C.ar    1  UNL1        0.0473
      8 N          59.9581   89.7038    7.5428 N.pl3   1  UNL1       -0.3041
      9 C          59.4870   88.3179    7.6534 C.3     1  UNL1        0.1122
     10 C          60.4131   87.5162    8.5714 C.3     1  UNL1        0.1122
     11 N          60.6739   88.2640    9.8074 N.pl3   1  UNL1       -0.3040
     12 C          61.1509   89.6467    9.6844 C.3     1  UNL1        0.1122
     13 C          60.2079   90.4439    8.7854 C.3     1  UNL1        0.1122
     14 C          59.6978   91.7782    3.8282 C.ar    1  UNL1        0.0699
     15 C          58.5522   91.5891    4.6198 C.ar    1  UNL1        0.0190
     16 C          58.6348   90.9073    5.8370 C.ar    1  UNL1        0.0160
     17 C          59.8665   90.4089    6.2905 C.ar    1  UNL1        0.0480
     18 C          61.0126   90.6021    5.5048 C.ar    1  UNL1        0.0160
     19 C          60.9304   91.2818    4.2863 C.ar    1  UNL1        0.0190
     20 N          60.0453   93.7689    0.8148 N.ar    1  UNL1       -0.2024
     21 N          58.8550   93.2256    0.6038 N.ar    1  UNL1       -0.1442
     22 C          58.5946   92.4508    1.6794 C.ar    1  UNL1        0.2073
     23 N          59.6069   92.4855    2.5760 N.ar    1  UNL1       -0.2398
     24 C          60.5004   93.3103    1.9946 C.ar    1  UNL1        0.3522
     25 O          61.6357   93.5841    2.4698 O.2     1  UNL1       -0.2444
     26 C          60.7500   94.6289   -0.1411 C.3     1  UNL1        0.1099
     27 C          59.8566   94.8868   -1.3617 C.3     1  UNL1        0.0265
     28 C          62.1080   93.4636   -1.9693 C.3     1  UNL1        0.0021
     29 C          62.0899   93.9719   -0.5277 C.3     1  UNL1        0.0245
     30 O          61.1783   85.5684   14.7650 O.3     1  UNL1       -0.4705
     31 C          62.1713   84.5798   15.0241 C.3     1  UNL1        0.2375
     32 C          61.7872   83.2654   14.3411 C.3     1  UNL1        0.1909
     33 C          62.9835   82.5194   13.7976 C.3     1  UNL1        0.1783
     34 O          62.8294   82.4680   12.4156 O.3     1  UNL1       -0.3271
     35 C          61.4886   82.8286   12.1545 C.3     1  UNL1        0.2232
     36 O          60.9584   83.5370   13.2534 O.3     1  UNL1       -0.3258
     37 C          60.6405   81.5813   11.8793 C.ar    1  UNL1        0.0404
     38 C          59.4041   81.4169   12.5419 C.ar    1  UNL1        0.0021
     39 C          58.6189   80.2828   12.3273 C.ar    1  UNL1        0.0113
     40 C          59.0564   79.2804   11.4633 C.ar    1  UNL1        0.0585
     41 CL         58.0676   77.8558   11.1987 Cl      1  UNL1       -0.0822
     42 C          60.2885   79.4054   10.8207 C.ar    1  UNL1        0.0226
     43 C          61.0886   80.5365   11.0260 C.ar    1  UNL1        0.0591
     44 CL         62.6501   80.5698   10.2081 Cl      1  UNL1       -0.0824
     45 C          61.4789   83.7335   10.9084 C.3     1  UNL1        0.1338
     46 N          60.3701   83.3477   10.0045 N.3     1  UNL1       -0.2659
     47 C          59.1725   84.1846   10.2254 C.3     1  UNL1        0.0898
     48 C          58.1213   84.0113    9.1044 C.3     1  UNL1        0.0897
     49 N          58.3343   82.7891    8.3048 N.3     1  UNL1       -0.2691
     50 C          58.0014   81.5686    9.0611 C.3     1  UNL1        0.0897
     51 C          59.6899   82.7378    7.7081 C.3     1  UNL1        0.0897
     52 C          60.7719   83.3936    8.5891 C.3     1  UNL1        0.0898
@<TRIPOS>BOND
     1    28    29    1
     2    29    26    1
     3    26    27    1
     4    26    20    1
     5    20    21   ar
     6    21    22   ar
     7    22    23   ar
     8    23    14    1
     9    14    15   ar
    10    15    16   ar
    11    16    17   ar
    12    17     8    1
    13     8     9    1
    14     9    10    1
    15    10    11    1
    16    11     1    1
    17     1     2   ar
    18     2     3   ar
    19     3     4   ar
    20     4    30    1
    21    30    31    1
    22    31    32    1
    23    32    33    1
    24    33    34    1
    25    34    35    1
    26    35    45    1
    27    45    46    1
    28    46    47    1
    29    47    48    1
    30    48    49    1
    31    49    50    1
    32    49    51    1
    33    51    52    1
    34    35    37    1
    35    37    38   ar
    36    38    39   ar
    37    39    40   ar
    38    40    41    1
    39    40    42   ar
    40    42    43   ar
    41    43    44    1
    42    35    36    1
    43     4     5   ar
    44     5     6    1
    45     5     7   ar
    46    11    12    1
    47    12    13    1
    48    17    18   ar
    49    18    19   ar
    50    23    24   ar
    51    24    25    2
    52    24    20   ar
    53    19    14   ar
    54    13     8    1
    55     7     1   ar
    56    36    32    1
    57    52    46    1
    58    43    37   ar
@<TRIPOS>MOLECULE
*****
 52 58 0 0 0
SMALL
GASTEIGER

@<TRIPOS>ATOM
      1 C          60.6389   87.7294   10.7459 C.ar    1  UNL1        0.0504
      2 C          61.8752   87.4184   11.3288 C.ar    1  UNL1        0.0178
      3 C          61.9305   86.7499   12.5537 C.ar    1  UNL1        0.0405
      4 C          60.7576   86.3776   13.2211 C.ar    1  UNL1        0.1660
      5 C          59.5090   86.6956   12.6396 C.ar    1  UNL1        0.1750
      6 F          58.3375   86.3744   13.2409 F       1  UNL1       -0.2009
      7 C          59.4583   87.3656   11.4127 C.ar    1  UNL1        0.0473
      8 N          59.9887   89.9294    7.2300 N.pl3   1  UNL1       -0.3041
      9 C          59.3658   88.6062    7.3568 C.3     1  UNL1        0.1122
     10 C          60.2155   87.7058    8.2570 C.3     1  UNL1        0.1122
     11 N          60.5877   88.4210    9.4838 N.pl3   1  UNL1       -0.3040
     12 C          61.2158   89.7403    9.3444 C.3     1  UNL1        0.1122
     13 C          60.3492   90.6382    8.4636 C.3     1  UNL1        0.1122
     14 C          59.8616   92.0409    3.5293 C.ar    1  UNL1        0.0699
     15 C          61.0703   91.4993    3.9989 C.ar    1  UNL1        0.0190
     16 C          61.1148   90.8085    5.2130 C.ar    1  UNL1        0.0160
     17 C          59.9493   90.6384    5.9771 C.ar    1  UNL1        0.0480
     18 C          58.7403   91.1729    5.5073 C.ar    1  UNL1        0.0160
     19 C          58.6955   91.8657    4.2942 C.ar    1  UNL1        0.0190
     20 N          59.8287   93.2544    0.1103 N.ar    1  UNL1       -0.2024
     21 N          59.6384   94.3900    0.7665 N.ar    1  UNL1       -0.1442
     22 C          59.6390   94.0748    2.0801 C.ar    1  UNL1        0.2073
     23 N          59.8215   92.7486    2.2748 N.ar    1  UNL1       -0.2398
     24 C          59.9238   92.2680    1.0197 C.ar    1  UNL1        0.3522
     25 O          60.0477   91.0473    0.7294 O.2     1  UNL1       -0.2444
     26 C          59.8249   93.1252   -1.3504 C.3     1  UNL1        0.1099
     27 C          60.9514   93.9785   -1.9483 C.3     1  UNL1        0.0265
     28 C          57.3187   92.6142   -1.3926 C.3     1  UNL1        0.0021
     29 C          58.4393   93.5247   -1.8948 C.3     1  UNL1        0.0245
     30 O          60.8959   85.7004   14.4438 O.3     1  UNL1       -0.4705
     31 C          61.9254   84.7679   14.7618 C.3     1  UNL1        0.2375
     32 C          61.5956   83.4023   14.1552 C.3     1  UNL1        0.1909
     33 C          62.8288   82.6415   13.7267 C.3     1  UNL1        0.1783
     34 O          62.7467   82.4908   12.3458 O.3     1  UNL1       -0.3271
     35 C          61.4161   82.8083   11.9927 C.3     1  UNL1        0.2232
     36 O          60.8201   83.5824   13.0106 O.3     1  UNL1       -0.3258
     37 C          60.6010   81.5299   11.7642 C.ar    1  UNL1        0.0404
     38 C          59.3672   81.3595   12.4300 C.ar    1  UNL1        0.0021
     39 C          58.6120   80.1982   12.2579 C.ar    1  UNL1        0.0113
     40 C          59.0777   79.1747   11.4343 C.ar    1  UNL1        0.0585
     41 CL         58.1266   77.7160   11.2229 Cl      1  UNL1       -0.0822
     42 C          60.3082   79.3064   10.7899 C.ar    1  UNL1        0.0226
     43 C          61.0784   80.4647   10.9530 C.ar    1  UNL1        0.0591
     44 CL         62.6412   80.5065   10.1378 Cl      1  UNL1       -0.0824
     45 C          61.4577   83.6234   10.6867 C.3     1  UNL1        0.1338
     46 N          60.3117   83.2606    9.8205 N.3     1  UNL1       -0.2659
     47 C          59.1401   84.1230   10.0795 C.3     1  UNL1        0.0898
     48 C          58.0490   83.9712    8.9940 C.3     1  UNL1        0.0897
     49 N          58.2096   82.7442    8.1896 N.3     1  UNL1       -0.2691
     50 C          57.8759   81.5316    8.9582 C.3     1  UNL1        0.0897
     51 C          59.5433   82.6637    7.5486 C.3     1  UNL1        0.0897
     52 C          60.6675   83.2969    8.3925 C.3     1  UNL1        0.0898
@<TRIPOS>BOND
     1    28    29    1
     2    29    26    1
     3    26    27    1
     4    26    20    1
     5    20    21   ar
     6    21    22   ar
     7    22    23   ar
     8    23    14    1
     9    14    15   ar
    10    15    16   ar
    11    16    17   ar
    12    17     8    1
    13     8     9    1
    14     9    10    1
    15    10    11    1
    16    11     1    1
    17     1     2   ar
    18     2     3   ar
    19     3     4   ar
    20     4    30    1
    21    30    31    1
    22    31    32    1
    23    32    33    1
    24    33    34    1
    25    34    35    1
    26    35    45    1
    27    45    46    1
    28    46    47    1
    29    47    48    1
    30    48    49    1
    31    49    50    1
    32    49    51    1
    33    51    52    1
    34    35    37    1
    35    37    38   ar
    36    38    39   ar
    37    39    40   ar
    38    40    41    1
    39    40    42   ar
    40    42    43   ar
    41    43    44    1
    42    35    36    1
    43     4     5   ar
    44     5     6    1
    45     5     7   ar
    46    11    12    1
    47    12    13    1
    48    17    18   ar
    49    18    19   ar
    50    23    24   ar
    51    24    25    2
    52    24    20   ar
    53    19    14   ar
    54    13     8    1
    55     7     1   ar
    56    36    32    1
    57    52    46    1
    58    43    37   ar
@<TRIPOS>MOLECULE
*****
 52 58 0 0 0
SMALL
GASTEIGER

@<TRIPOS>ATOM
      1 C          59.7730   87.8428   10.7879 C.ar    1  UNL1        0.0504
      2 C          60.8749   87.9492   11.6479 C.ar    1  UNL1        0.0178
      3 C          60.9340   87.1890   12.8179 C.ar    1  UNL1        0.0405
      4 C          59.8989   86.3083   13.1538 C.ar    1  UNL1        0.1660
      5 C          58.7829   86.2034   12.2925 C.ar    1  UNL1        0.1750
      6 F          57.7426   85.3791   12.5670 F       1  UNL1       -0.2009
      7 C          58.7278   86.9671   11.1217 C.ar    1  UNL1        0.0473
      8 N          60.0836   89.8874    7.1345 N.pl3   1  UNL1       -0.3041
      9 C          60.8707   90.3662    8.2774 C.3     1  UNL1        0.1122
     10 C          60.1561   90.0314    9.5890 C.3     1  UNL1        0.1122
     11 N          59.7162   88.6309    9.5840 N.pl3   1  UNL1       -0.3040
     12 C          58.9242   88.1652    8.4393 C.3     1  UNL1        0.1122
     13 C          59.6562   88.4833    7.1369 C.3     1  UNL1        0.1122
     14 C          59.8849   92.1608    3.5343 C.ar    1  UNL1        0.0699
     15 C          58.7360   91.9713    4.3211 C.ar    1  UNL1        0.0190
     16 C          58.7983   91.2244    5.5006 C.ar    1  UNL1        0.0160
     17 C          60.0130   90.6597    5.9211 C.ar    1  UNL1        0.0480
     18 C          61.1626   90.8529    5.1405 C.ar    1  UNL1        0.0160
     19 C          61.1006   91.5978    3.9595 C.ar    1  UNL1        0.0190
     20 N          59.6761   93.5534    0.1906 N.ar    1  UNL1       -0.2024
     21 N          59.7018   94.6665    0.9095 N.ar    1  UNL1       -0.1442
     22 C          59.7899   94.2826    2.2017 C.ar    1  UNL1        0.2073
     23 N          59.8150   92.9353    2.3212 N.ar    1  UNL1       -0.2398
     24 C          59.7298   92.5148    1.0435 C.ar    1  UNL1        0.3522
     25 O          59.6634   91.3059    0.6915 O.2     1  UNL1       -0.2444
     26 C          59.5122   93.5056   -1.2658 C.3     1  UNL1        0.1099
     27 C          60.5641   94.4004   -1.9347 C.3     1  UNL1        0.0265
     28 C          57.0634   92.7899   -1.4532 C.3     1  UNL1        0.0021
     29 C          58.0741   93.9228   -1.6318 C.3     1  UNL1        0.0245
     30 O          60.0358   85.5720   14.3421 O.3     1  UNL1       -0.4705
     31 C          61.2696   85.1529   14.9188 C.3     1  UNL1        0.2375
     32 C          61.8325   83.9646   14.1361 C.3     1  UNL1        0.1909
     33 C          63.2885   84.1423   13.7734 C.3     1  UNL1        0.1783
     34 O          63.3526   84.1868   12.3841 O.3     1  UNL1       -0.3271
     35 C          62.1042   83.7190   11.9164 C.3     1  UNL1        0.2232
     36 O          61.1355   83.8325   12.9358 O.3     1  UNL1       -0.3258
     37 C          62.2138   82.2592   11.4607 C.ar    1  UNL1        0.0404
     38 C          61.3425   81.2900   12.0050 C.ar    1  UNL1        0.0021
     39 C          61.4310   79.9497   11.6250 C.ar    1  UNL1        0.0113
     40 C          62.4001   79.5430   10.7095 C.ar    1  UNL1        0.0585
     41 CL         62.5093   77.8573   10.2367 Cl      1  UNL1       -0.0822
     42 C          63.2924   80.4764   10.1810 C.ar    1  UNL1        0.0226
     43 C          63.2176   81.8247   10.5527 C.ar    1  UNL1        0.0591
     44 CL         64.4260   82.9106    9.8680 Cl      1  UNL1       -0.0824
     45 C          61.6926   84.5947   10.7183 C.3     1  UNL1        0.1338
     46 N          60.8897   83.8025    9.7575 N.3     1  UNL1       -0.2659
     47 C          59.4707   83.7314   10.1636 C.3     1  UNL1        0.0898
     48 C          58.5656   83.1797    9.0375 C.3     1  UNL1        0.0897
     49 N          59.3255   82.4742    7.9872 N.3     1  UNL1       -0.2691
     50 C          59.8463   81.1781    8.4577 C.3     1  UNL1        0.0897
     51 C          60.3780   83.3273    7.3868 C.3     1  UNL1        0.0897
     52 C          61.0032   84.3222    8.3848 C.3     1  UNL1        0.0898
@<TRIPOS>BOND
     1    28    29    1
     2    29    26    1
     3    26    27    1
     4    26    20    1
     5    20    21   ar
     6    21    22   ar
     7    22    23   ar
     8    23    14    1
     9    14    15   ar
    10    15    16   ar
    11    16    17   ar
    12    17     8    1
    13     8     9    1
    14     9    10    1
    15    10    11    1
    16    11     1    1
    17     1     2   ar
    18     2     3   ar
    19     3     4   ar
    20     4    30    1
    21    30    31    1
    22    31    32    1
    23    32    33    1
    24    33    34    1
    25    34    35    1
    26    35    45    1
    27    45    46    1
    28    46    47    1
    29    47    48    1
    30    48    49    1
    31    49    50    1
    32    49    51    1
    33    51    52    1
    34    35    37    1
    35    37    38   ar
    36    38    39   ar
    37    39    40   ar
    38    40    41    1
    39    40    42   ar
    40    42    43   ar
    41    43    44    1
    42    35    36    1
    43     4     5   ar
    44     5     6    1
    45     5     7   ar
    46    11    12    1
    47    12    13    1
    48    17    18   ar
    49    18    19   ar
    50    23    24   ar
    51    24    25    2
    52    24    20   ar
    53    19    14   ar
    54    13     8    1
    55     7     1   ar
    56    36    32    1
    57    52    46    1
    58    43    37   ar
