@<TRIPOS>MOLECULE
*****
 36 40 0 0 0
SMALL
GASTEIGER

@<TRIPOS>ATOM
      1 C         -29.3447   50.7817   -8.3004 C.ar    1  UNL1        0.0673
      2 C         -30.5599   50.4848   -8.9574 C.ar    1  UNL1        0.0170
      3 C         -30.6214   50.4373  -10.3681 C.ar    1  UNL1        0.0142
      4 C         -29.4699   50.6745  -11.1418 C.ar    1  UNL1        0.0748
      5 CL        -29.5368   50.6045  -12.8943 Cl      1  UNL1       -0.0807
      6 C         -28.2830   50.9548  -10.4640 C.ar    1  UNL1        0.0875
      7 N         -27.0631   51.1785  -10.9721 N.ar    1  UNL1       -0.3366
      8 C         -26.2755   51.3568   -9.8782 C.ar    1  UNL1        0.1406
      9 N         -26.9589   51.2501   -8.7072 N.ar    1  UNL1       -0.2258
     10 C         -28.2204   51.0055   -9.1034 C.ar    1  UNL1        0.1125
     11 H         -26.7975   51.1878  -11.9809 H       1  UNL1        0.1674
     12 N         -29.0837   49.3991   -4.5545 N.3     1  UNL1       -0.2647
     13 C         -30.1547   50.4128   -4.5982 C.3     1  UNL1        0.0941
     14 C         -30.4865   50.7334   -6.0593 C.3     1  UNL1        0.1082
     15 N         -29.2622   50.8173   -6.8646 N.pl3   1  UNL1       -0.3034
     16 C         -27.9700   50.9667   -6.1869 C.3     1  UNL1        0.1082
     17 C         -27.7945   49.8742   -5.1156 C.3     1  UNL1        0.0941
     18 C         -28.9330   48.7540   -3.2310 C.3     1  UNL1        0.1200
     19 N         -26.3659   46.1169   -3.2660 N.ar    1  UNL1       -0.3128
     20 C         -25.7316   47.1863   -2.7467 C.ar    1  UNL1        0.1780
     21 N         -26.5287   48.2706   -2.6585 N.ar    1  UNL1       -0.2273
     22 C         -27.7220   47.8550   -3.1324 C.ar    1  UNL1        0.0885
     23 C         -27.6328   46.5182   -3.4933 C.ar    1  UNL1        0.0537
     24 C         -28.6896   45.6809   -4.1548 C.3     1  UNL1        0.0514
     25 C         -25.5166   44.1191   -2.1260 C.3     1  UNL1        0.0265
     26 C         -25.7855   44.7891   -3.4682 C.3     1  UNL1        0.1073
     27 C         -24.8163   51.6286   -9.9274 C.ar    1  UNL1        0.0339
     28 C         -24.2300   52.0764  -11.1211 C.ar    1  UNL1        0.0027
     29 C         -22.8599   52.3373  -11.1898 C.ar    1  UNL1       -0.0042
     30 C         -22.0238   52.1583  -10.0671 C.ar    1  UNL1       -0.0228
     31 C         -22.6234   51.7035   -8.8703 C.ar    1  UNL1       -0.0042
     32 C         -23.9953   51.4433   -8.8039 C.ar    1  UNL1        0.0027
     33 C         -20.5149   52.4577  -10.1849 C.3     1  UNL1        0.0189
     34 C         -20.3148   53.8867  -10.7354 C.3     1  UNL1        0.0044
     35 C         -19.8618   51.4416  -11.1469 C.3     1  UNL1        0.0044
     36 C         -19.7705   52.3679   -8.8308 C.3     1  UNL1        0.0044
@<TRIPOS>BOND
     1    25    26    1
     2    26    19    1
     3    19    20   ar
     4    20    21   ar
     5    21    22   ar
     6    22    18    1
     7    18    12    1
     8    12    13    1
     9    13    14    1
    10    14    15    1
    11    15     1    1
    12     1     2   ar
    13     2     3   ar
    14     3     4   ar
    15     4     5    1
    16     4     6   ar
    17     6     7   ar
    18     7     8   ar
    19     8    27    1
    20    27    28   ar
    21    28    29   ar
    22    29    30   ar
    23    30    33    1
    24    33    34    1
    25    33    35    1
    26    33    36    1
    27    30    31   ar
    28    31    32   ar
    29     8     9   ar
    30     9    10   ar
    31    15    16    1
    32    16    17    1
    33    22    23   ar
    34    23    24    1
    35    23    19   ar
    36    17    12    1
    37    10     1   ar
    38    10     6   ar
    39    32    27   ar
    40     7    11    1
@<TRIPOS>MOLECULE
*****
 36 40 0 0 0
SMALL
GASTEIGER

@<TRIPOS>ATOM
      1 C         -28.7823   49.0579   -9.0910 C.ar    1  UNL1        0.0673
      2 C         -30.1160   49.2722   -9.5053 C.ar    1  UNL1        0.0170
      3 C         -30.4503   50.3892  -10.3031 C.ar    1  UNL1        0.0142
      4 C         -29.4575   51.3012  -10.7073 C.ar    1  UNL1        0.0748
      5 CL        -29.8641   52.6839  -11.7090 Cl      1  UNL1       -0.0807
      6 C         -28.1484   51.0571  -10.2910 C.ar    1  UNL1        0.0875
      7 N         -27.0382   51.7533  -10.5724 N.ar    1  UNL1       -0.3366
      8 C         -26.0461   51.0611   -9.9517 C.ar    1  UNL1        0.1406
      9 N         -26.4965   49.9579   -9.2961 N.ar    1  UNL1       -0.2258
     10 C         -27.8225   49.9829   -9.5180 C.ar    1  UNL1        0.1125
     11 H         -26.9715   52.6159  -11.1552 H       1  UNL1        0.1674
     12 N         -29.2049   46.0972   -6.4327 N.3     1  UNL1       -0.2647
     13 C         -27.9382   46.7970   -6.1458 C.3     1  UNL1        0.0941
     14 C         -27.8966   48.1090   -6.9361 C.3     1  UNL1        0.1082
     15 N         -28.4233   47.9164   -8.2926 N.pl3   1  UNL1       -0.3034
     16 C         -28.5471   46.5550   -8.8243 C.3     1  UNL1        0.1082
     17 C         -29.3364   45.6648   -7.8463 C.3     1  UNL1        0.0941
     18 C         -29.5163   45.0180   -5.4688 C.3     1  UNL1        0.1200
     19 N         -29.5369   46.3007   -2.0193 N.ar    1  UNL1       -0.3128
     20 C         -28.4205   45.5488   -2.0837 C.ar    1  UNL1        0.1780
     21 N         -28.2445   44.9835   -3.2954 N.ar    1  UNL1       -0.2273
     22 C         -29.2936   45.4139   -4.0272 C.ar    1  UNL1        0.0885
     23 C         -30.0875   46.2437   -3.2486 C.ar    1  UNL1        0.0537
     24 C         -31.4022   46.8635   -3.6265 C.3     1  UNL1        0.0514
     25 C         -30.3021   46.1209    0.3032 C.3     1  UNL1        0.0265
     26 C         -29.9936   47.0613   -0.8557 C.3     1  UNL1        0.1073
     27 C         -24.6105   51.4404   -9.9806 C.ar    1  UNL1        0.0339
     28 C         -24.0103   51.8075  -11.1946 C.ar    1  UNL1        0.0027
     29 C         -22.6618   52.1669  -11.2447 C.ar    1  UNL1       -0.0042
     30 C         -21.8620   52.1709  -10.0820 C.ar    1  UNL1       -0.0228
     31 C         -22.4751   51.7960   -8.8644 C.ar    1  UNL1       -0.0042
     32 C         -23.8253   51.4369   -8.8168 C.ar    1  UNL1        0.0027
     33 C         -20.3761   52.5744  -10.1802 C.3     1  UNL1        0.0189
     34 C         -20.2720   54.0671  -10.5620 C.3     1  UNL1        0.0044
     35 C         -19.6806   51.7189  -11.2614 C.3     1  UNL1        0.0044
     36 C         -19.6036   52.3742   -8.8540 C.3     1  UNL1        0.0044
@<TRIPOS>BOND
     1    25    26    1
     2    26    19    1
     3    19    20   ar
     4    20    21   ar
     5    21    22   ar
     6    22    18    1
     7    18    12    1
     8    12    13    1
     9    13    14    1
    10    14    15    1
    11    15     1    1
    12     1     2   ar
    13     2     3   ar
    14     3     4   ar
    15     4     5    1
    16     4     6   ar
    17     6     7   ar
    18     7     8   ar
    19     8    27    1
    20    27    28   ar
    21    28    29   ar
    22    29    30   ar
    23    30    33    1
    24    33    34    1
    25    33    35    1
    26    33    36    1
    27    30    31   ar
    28    31    32   ar
    29     8     9   ar
    30     9    10   ar
    31    15    16    1
    32    16    17    1
    33    22    23   ar
    34    23    24    1
    35    23    19   ar
    36    17    12    1
    37    10     1   ar
    38    10     6   ar
    39    32    27   ar
    40     7    11    1
@<TRIPOS>MOLECULE
*****
 36 40 0 0 0
SMALL
GASTEIGER

@<TRIPOS>ATOM
      1 C         -29.9024   48.3654  -10.2096 C.ar    1  UNL1        0.0673
      2 C         -30.6679   47.5134   -9.3822 C.ar    1  UNL1        0.0170
      3 C         -30.1358   47.0205   -8.1698 C.ar    1  UNL1        0.0142
      4 C         -28.8377   47.3793   -7.7612 C.ar    1  UNL1        0.0748
      5 CL        -28.1755   46.7806   -6.2500 Cl      1  UNL1       -0.0807
      6 C         -28.1105   48.2301   -8.5944 C.ar    1  UNL1        0.0875
      7 N         -26.8830   48.7348   -8.4074 N.ar    1  UNL1       -0.3366
      8 C         -26.6797   49.5246   -9.4953 C.ar    1  UNL1        0.1406
      9 N         -27.7359   49.5328  -10.3520 N.ar    1  UNL1       -0.2258
     10 C         -28.6188   48.7045   -9.7666 C.ar    1  UNL1        0.1125
     11 H         -26.2532   48.5633   -7.5936 H       1  UNL1        0.1674
     12 N         -30.2288   49.0157  -14.1443 N.3     1  UNL1       -0.2647
     13 C         -30.3336   50.3144  -13.4521 C.3     1  UNL1        0.0941
     14 C         -29.9084   50.1425  -11.9902 C.3     1  UNL1        0.1082
     15 N         -30.4363   48.8888  -11.4387 N.pl3   1  UNL1       -0.3034
     16 C         -31.5266   48.2029  -12.1400 C.3     1  UNL1        0.1082
     17 C         -31.1630   47.9880  -13.6211 C.3     1  UNL1        0.0941
     18 C         -30.2626   49.1271  -15.6198 C.3     1  UNL1        0.1200
     19 N         -27.1958   49.5840  -17.6026 N.ar    1  UNL1       -0.3128
     20 C         -26.9916   50.3360  -16.5033 C.ar    1  UNL1        0.1780
     21 N         -28.0314   50.2946  -15.6453 N.ar    1  UNL1       -0.2273
     22 C         -28.9221   49.4662  -16.2300 C.ar    1  UNL1        0.0885
     23 C         -28.4035   49.0090  -17.4330 C.ar    1  UNL1        0.0537
     24 C         -29.0919   48.1484  -18.4532 C.3     1  UNL1        0.0514
     25 C         -24.8197   49.4140  -18.1833 C.3     1  UNL1        0.0265
     26 C         -26.2515   49.4011  -18.7052 C.3     1  UNL1        0.1073
     27 C         -25.4476   50.3164   -9.7416 C.ar    1  UNL1        0.0339
     28 C         -24.6370   50.6993   -8.6620 C.ar    1  UNL1        0.0027
     29 C         -23.4747   51.4446   -8.8708 C.ar    1  UNL1       -0.0042
     30 C         -23.0801   51.8368  -10.1677 C.ar    1  UNL1       -0.0228
     31 C         -23.9053   51.4492  -11.2483 C.ar    1  UNL1       -0.0042
     32 C         -25.0683   50.7029  -11.0368 C.ar    1  UNL1        0.0027
     33 C         -21.7888   52.6599  -10.3554 C.3     1  UNL1        0.0189
     34 C         -21.0277   52.7371   -9.0139 C.3     1  UNL1        0.0044
     35 C         -22.1509   54.0867  -10.8222 C.3     1  UNL1        0.0044
     36 C         -20.8282   52.0517  -11.4057 C.3     1  UNL1        0.0044
@<TRIPOS>BOND
     1    25    26    1
     2    26    19    1
     3    19    20   ar
     4    20    21   ar
     5    21    22   ar
     6    22    18    1
     7    18    12    1
     8    12    13    1
     9    13    14    1
    10    14    15    1
    11    15     1    1
    12     1     2   ar
    13     2     3   ar
    14     3     4   ar
    15     4     5    1
    16     4     6   ar
    17     6     7   ar
    18     7     8   ar
    19     8    27    1
    20    27    28   ar
    21    28    29   ar
    22    29    30   ar
    23    30    33    1
    24    33    34    1
    25    33    35    1
    26    33    36    1
    27    30    31   ar
    28    31    32   ar
    29     8     9   ar
    30     9    10   ar
    31    15    16    1
    32    16    17    1
    33    22    23   ar
    34    23    24    1
    35    23    19   ar
    36    17    12    1
    37    10     1   ar
    38    10     6   ar
    39    32    27   ar
    40     7    11    1
@<TRIPOS>MOLECULE
*****
 36 40 0 0 0
SMALL
GASTEIGER

@<TRIPOS>ATOM
      1 C         -28.5891   49.6910   -8.0930 C.ar    1  UNL1        0.0673
      2 C         -29.9341   49.7782   -8.5169 C.ar    1  UNL1        0.0170
      3 C         -30.2900   50.5907   -9.6165 C.ar    1  UNL1        0.0142
      4 C         -29.3082   51.3181  -10.3146 C.ar    1  UNL1        0.0748
      5 CL        -29.7419   52.3194  -11.6895 Cl      1  UNL1       -0.0807
      6 C         -27.9877   51.2035   -9.8788 C.ar    1  UNL1        0.0875
      7 N         -26.8852   51.7636  -10.3956 N.ar    1  UNL1       -0.3366
      8 C         -25.8763   51.2915   -9.6160 C.ar    1  UNL1        0.1406
      9 N         -26.3089   50.4558   -8.6340 N.ar    1  UNL1       -0.2258
     10 C         -27.6409   50.4239   -8.8159 C.ar    1  UNL1        0.1125
     11 H         -26.8344   52.3980  -11.2222 H       1  UNL1        0.1674
     12 N         -28.9853   47.5890   -4.7112 N.3     1  UNL1       -0.2647
     13 C         -27.7826   48.4348   -4.5901 C.3     1  UNL1        0.0941
     14 C         -27.7748   49.4660   -5.7234 C.3     1  UNL1        0.1082
     15 N         -28.2085   48.8551   -6.9857 N.pl3   1  UNL1       -0.3034
     16 C         -28.2178   47.3934   -7.1059 C.3     1  UNL1        0.1082
     17 C         -29.0072   46.7626   -5.9437 C.3     1  UNL1        0.0941
     18 C         -29.2861   46.8096   -3.4895 C.3     1  UNL1        0.1200
     19 N         -30.8075   48.2664   -0.4716 N.ar    1  UNL1       -0.3128
     20 C         -30.8623   49.2603   -1.3798 C.ar    1  UNL1        0.1780
     21 N         -30.3368   48.9056   -2.5701 N.ar    1  UNL1       -0.2273
     22 C         -29.9476   47.6243   -2.4018 C.ar    1  UNL1        0.0885
     23 C         -30.2524   47.2172   -1.1109 C.ar    1  UNL1        0.0537
     24 C         -29.9093   45.9058   -0.4644 C.3     1  UNL1        0.0514
     25 C         -30.2226   48.8113    1.8464 C.3     1  UNL1        0.0265
     26 C         -31.3145   48.3276    0.8996 C.3     1  UNL1        0.1073
     27 C         -24.4416   51.6268   -9.8023 C.ar    1  UNL1        0.0339
     28 C         -23.5580   51.5395   -8.7157 C.ar    1  UNL1        0.0027
     29 C         -22.2053   51.8509   -8.8684 C.ar    1  UNL1       -0.0042
     30 C         -21.6855   52.2633  -10.1139 C.ar    1  UNL1       -0.0228
     31 C         -22.5845   52.3516  -11.2016 C.ar    1  UNL1       -0.0042
     32 C         -23.9382   52.0391  -11.0463 C.ar    1  UNL1        0.0027
     33 C         -20.1848   52.5983  -10.2405 C.3     1  UNL1        0.0189
     34 C         -19.4659   52.2487   -8.9192 C.3     1  UNL1        0.0044
     35 C         -20.0165   54.1053  -10.5325 C.3     1  UNL1        0.0044
     36 C         -19.4823   51.8181  -11.3778 C.3     1  UNL1        0.0044
@<TRIPOS>BOND
     1    25    26    1
     2    26    19    1
     3    19    20   ar
     4    20    21   ar
     5    21    22   ar
     6    22    18    1
     7    18    12    1
     8    12    13    1
     9    13    14    1
    10    14    15    1
    11    15     1    1
    12     1     2   ar
    13     2     3   ar
    14     3     4   ar
    15     4     5    1
    16     4     6   ar
    17     6     7   ar
    18     7     8   ar
    19     8    27    1
    20    27    28   ar
    21    28    29   ar
    22    29    30   ar
    23    30    33    1
    24    33    34    1
    25    33    35    1
    26    33    36    1
    27    30    31   ar
    28    31    32   ar
    29     8     9   ar
    30     9    10   ar
    31    15    16    1
    32    16    17    1
    33    22    23   ar
    34    23    24    1
    35    23    19   ar
    36    17    12    1
    37    10     1   ar
    38    10     6   ar
    39    32    27   ar
    40     7    11    1
@<TRIPOS>MOLECULE
*****
 36 40 0 0 0
SMALL
GASTEIGER

@<TRIPOS>ATOM
      1 C         -29.5044   50.6612   -8.8892 C.ar    1  UNL1        0.0673
      2 C         -30.3493   50.3264   -7.8073 C.ar    1  UNL1        0.0170
      3 C         -29.8156   50.1201   -6.5155 C.ar    1  UNL1        0.0142
      4 C         -28.4342   50.2558   -6.2833 C.ar    1  UNL1        0.0748
      5 CL        -27.7664   50.0134   -4.6783 Cl      1  UNL1       -0.0807
      6 C         -27.6272   50.5973   -7.3692 C.ar    1  UNL1        0.0875
      7 N         -26.3050   50.8152   -7.3921 N.ar    1  UNL1       -0.3366
      8 C         -26.0463   51.1508   -8.6841 C.ar    1  UNL1        0.1406
      9 N         -27.1588   51.1526   -9.4665 N.ar    1  UNL1       -0.2258
     10 C         -28.1377   50.7931   -8.6177 C.ar    1  UNL1        0.1125
     11 H         -25.6469   50.7556   -6.5849 H       1  UNL1        0.1674
     12 N         -30.2831   49.9835  -12.7552 N.3     1  UNL1       -0.2647
     13 C         -29.8068   51.3730  -12.6175 C.3     1  UNL1        0.0941
     14 C         -29.2134   51.5665  -11.2182 C.3     1  UNL1        0.1082
     15 N         -30.0347   50.8907  -10.2067 N.pl3   1  UNL1       -0.3034
     16 C         -31.4016   50.4851  -10.5507 C.3     1  UNL1        0.1082
     17 C         -31.4056   49.6486  -11.8438 C.3     1  UNL1        0.0941
     18 C         -30.5393   49.5817  -14.1564 C.3     1  UNL1        0.1200
     19 N         -30.7001   46.0737  -15.2577 N.ar    1  UNL1       -0.3128
     20 C         -30.0912   46.0137  -14.0572 C.ar    1  UNL1        0.1780
     21 N         -29.9386   47.2283  -13.4911 N.ar    1  UNL1       -0.2273
     22 C         -30.4911   48.0868  -14.3738 C.ar    1  UNL1        0.0885
     23 C         -30.9801   47.3767  -15.4609 C.ar    1  UNL1        0.0537
     24 C         -31.5839   47.9360  -16.7171 C.3     1  UNL1        0.0514
     25 C         -30.0218   44.8082  -17.2453 C.3     1  UNL1        0.0265
     26 C         -31.0313   44.9316  -16.1103 C.3     1  UNL1        0.1073
     27 C         -24.7013   51.4962   -9.2104 C.ar    1  UNL1        0.0339
     28 C         -23.5796   51.4046   -8.3723 C.ar    1  UNL1        0.0027
     29 C         -22.3058   51.7252   -8.8463 C.ar    1  UNL1       -0.0042
     30 C         -22.1060   52.1515  -10.1767 C.ar    1  UNL1       -0.0228
     31 C         -23.2429   52.2440  -11.0121 C.ar    1  UNL1       -0.0042
     32 C         -24.5170   51.9222  -10.5353 C.ar    1  UNL1        0.0027
     33 C         -20.6824   52.4964  -10.6611 C.3     1  UNL1        0.0189
     34 C         -20.7616   53.5637  -11.7744 C.3     1  UNL1        0.0044
     35 C         -20.0056   51.2247  -11.2173 C.3     1  UNL1        0.0044
     36 C         -19.7776   53.0567   -9.5373 C.3     1  UNL1        0.0044
@<TRIPOS>BOND
     1    25    26    1
     2    26    19    1
     3    19    20   ar
     4    20    21   ar
     5    21    22   ar
     6    22    18    1
     7    18    12    1
     8    12    13    1
     9    13    14    1
    10    14    15    1
    11    15     1    1
    12     1     2   ar
    13     2     3   ar
    14     3     4   ar
    15     4     5    1
    16     4     6   ar
    17     6     7   ar
    18     7     8   ar
    19     8    27    1
    20    27    28   ar
    21    28    29   ar
    22    29    30   ar
    23    30    33    1
    24    33    34    1
    25    33    35    1
    26    33    36    1
    27    30    31   ar
    28    31    32   ar
    29     8     9   ar
    30     9    10   ar
    31    15    16    1
    32    16    17    1
    33    22    23   ar
    34    23    24    1
    35    23    19   ar
    36    17    12    1
    37    10     1   ar
    38    10     6   ar
    39    32    27   ar
    40     7    11    1
@<TRIPOS>MOLECULE
*****
 36 40 0 0 0
SMALL
GASTEIGER

@<TRIPOS>ATOM
      1 C         -29.7058   50.6788   -9.4898 C.ar    1  UNL1        0.0673
      2 C         -30.6433   50.4541   -8.4569 C.ar    1  UNL1        0.0170
      3 C         -30.2248   50.3826   -7.1093 C.ar    1  UNL1        0.0142
      4 C         -28.8679   50.5450   -6.7731 C.ar    1  UNL1        0.0748
      5 CL        -28.3433   50.4700   -5.0998 Cl      1  UNL1       -0.0807
      6 C         -27.9678   50.7758   -7.8140 C.ar    1  UNL1        0.0875
      7 N         -26.6473   50.9938   -7.7442 N.ar    1  UNL1       -0.3366
      8 C         -26.2755   51.1962   -9.0363 C.ar    1  UNL1        0.1406
      9 N         -27.3159   51.1149   -9.9084 N.ar    1  UNL1       -0.2258
     10 C         -28.3670   50.8414   -9.1155 C.ar    1  UNL1        0.1125
     11 H         -26.0620   51.0189   -6.8810 H       1  UNL1        0.1674
     12 N         -30.3604   49.5164  -13.2624 N.3     1  UNL1       -0.2647
     13 C         -29.6821   50.8262  -13.2946 C.3     1  UNL1        0.0941
     14 C         -29.1460   51.1511  -11.8965 C.3     1  UNL1        0.1082
     15 N         -30.1184   50.7708  -10.8649 N.pl3   1  UNL1       -0.3034
     16 C         -31.5101   50.5184  -11.2533 C.3     1  UNL1        0.1082
     17 C         -31.5711   49.4968  -12.4042 C.3     1  UNL1        0.0941
     18 C         -30.5963   48.9389  -14.6045 C.3     1  UNL1        0.1200
     19 N         -28.1355   49.0927  -17.3369 N.ar    1  UNL1       -0.3128
     20 C         -27.6963   50.0045  -16.4473 C.ar    1  UNL1        0.1780
     21 N         -28.4893   50.0931  -15.3600 N.ar    1  UNL1       -0.2273
     22 C         -29.4629   49.1832  -15.5741 C.ar    1  UNL1        0.0885
     23 C         -29.2397   48.5482  -16.7874 C.ar    1  UNL1        0.0537
     24 C         -30.1237   47.5402  -17.4641 C.3     1  UNL1        0.0514
     25 C         -25.9910   49.0288  -18.5240 C.3     1  UNL1        0.0265
     26 C         -27.4864   48.7450  -18.6013 C.3     1  UNL1        0.1073
     27 C         -24.8878   51.4896   -9.4763 C.ar    1  UNL1        0.0339
     28 C         -23.8480   51.5154   -8.5344 C.ar    1  UNL1        0.0027
     29 C         -22.5361   51.7899   -8.9261 C.ar    1  UNL1       -0.0042
     30 C         -22.2147   52.0507  -10.2753 C.ar    1  UNL1       -0.0228
     31 C         -23.2698   52.0258  -11.2161 C.ar    1  UNL1       -0.0042
     32 C         -24.5823   51.7506  -10.8215 C.ar    1  UNL1        0.0027
     33 C         -20.7526   52.3496  -10.6667 C.3     1  UNL1        0.0189
     34 C         -19.9536   52.7490   -9.4070 C.3     1  UNL1        0.0044
     35 C         -20.7191   53.5105  -11.6845 C.3     1  UNL1        0.0044
     36 C         -20.0370   51.1384  -11.3120 C.3     1  UNL1        0.0044
@<TRIPOS>BOND
     1    25    26    1
     2    26    19    1
     3    19    20   ar
     4    20    21   ar
     5    21    22   ar
     6    22    18    1
     7    18    12    1
     8    12    13    1
     9    13    14    1
    10    14    15    1
    11    15     1    1
    12     1     2   ar
    13     2     3   ar
    14     3     4   ar
    15     4     5    1
    16     4     6   ar
    17     6     7   ar
    18     7     8   ar
    19     8    27    1
    20    27    28   ar
    21    28    29   ar
    22    29    30   ar
    23    30    33    1
    24    33    34    1
    25    33    35    1
    26    33    36    1
    27    30    31   ar
    28    31    32   ar
    29     8     9   ar
    30     9    10   ar
    31    15    16    1
    32    16    17    1
    33    22    23   ar
    34    23    24    1
    35    23    19   ar
    36    17    12    1
    37    10     1   ar
    38    10     6   ar
    39    32    27   ar
    40     7    11    1
@<TRIPOS>MOLECULE
*****
 36 40 0 0 0
SMALL
GASTEIGER

@<TRIPOS>ATOM
      1 C         -28.0408   48.6793   -8.2224 C.ar    1  UNL1        0.0673
      2 C         -28.7804   48.3825   -7.0557 C.ar    1  UNL1        0.0170
      3 C         -28.3311   48.8187   -5.7892 C.ar    1  UNL1        0.0142
      4 C         -27.1443   49.5658   -5.6708 C.ar    1  UNL1        0.0748
      5 CL        -26.5872   50.1216   -4.1018 Cl      1  UNL1       -0.0807
      6 C         -26.4415   49.8517   -6.8418 C.ar    1  UNL1        0.0875
      7 N         -25.3177   50.5671   -6.9886 N.ar    1  UNL1       -0.3366
      8 C         -25.0944   50.5627   -8.3298 C.ar    1  UNL1        0.1406
      9 N         -26.0388   49.8733   -9.0244 N.ar    1  UNL1       -0.2258
     10 C         -26.8696   49.4292   -8.0648 C.ar    1  UNL1        0.1125
     11 H         -24.7678   51.0306   -6.2330 H       1  UNL1        0.1674
     12 N         -30.5419   47.2820  -11.0159 N.3     1  UNL1       -0.2647
     13 C         -29.2633   46.5559  -11.1370 C.3     1  UNL1        0.0941
     14 C         -28.4017   46.8423   -9.9028 C.3     1  UNL1        0.1082
     15 N         -28.4938   48.2565   -9.5207 N.pl3   1  UNL1       -0.3034
     16 C         -29.0226   49.2248  -10.4872 C.3     1  UNL1        0.1082
     17 C         -30.3883   48.7582  -11.0246 C.3     1  UNL1        0.0941
     18 C         -31.5840   46.8058  -11.9527 C.3     1  UNL1        0.1200
     19 N         -30.5422   46.9506  -15.4796 N.ar    1  UNL1       -0.3128
     20 C         -30.2015   45.7074  -15.0870 C.ar    1  UNL1        0.1780
     21 N         -30.5093   45.4680  -13.7960 N.ar    1  UNL1       -0.2273
     22 C         -31.0823   46.6114  -13.3652 C.ar    1  UNL1        0.0885
     23 C         -31.1219   47.5266  -14.4072 C.ar    1  UNL1        0.0537
     24 C         -31.5836   48.9545  -14.3485 C.3     1  UNL1        0.0514
     25 C         -30.2759   46.3864  -17.8508 C.3     1  UNL1        0.0265
     26 C         -30.3629   47.5066  -16.8211 C.3     1  UNL1        0.1073
     27 C         -23.9535   51.2420   -8.9949 C.ar    1  UNL1        0.0339
     28 C         -24.0570   51.6225  -10.3416 C.ar    1  UNL1        0.0027
     29 C         -22.9962   52.2616  -10.9868 C.ar    1  UNL1       -0.0042
     30 C         -21.7905   52.5428  -10.3095 C.ar    1  UNL1       -0.0228
     31 C         -21.6947   52.1523   -8.9540 C.ar    1  UNL1       -0.0042
     32 C         -22.7582   51.5129   -8.3103 C.ar    1  UNL1        0.0027
     33 C         -20.6424   53.2505  -11.0586 C.3     1  UNL1        0.0189
     34 C         -20.0512   54.3615  -10.1637 C.3     1  UNL1        0.0044
     35 C         -21.1864   53.8767  -12.3612 C.3     1  UNL1        0.0044
     36 C         -19.4881   52.2940  -11.4437 C.3     1  UNL1        0.0044
@<TRIPOS>BOND
     1    25    26    1
     2    26    19    1
     3    19    20   ar
     4    20    21   ar
     5    21    22   ar
     6    22    18    1
     7    18    12    1
     8    12    13    1
     9    13    14    1
    10    14    15    1
    11    15     1    1
    12     1     2   ar
    13     2     3   ar
    14     3     4   ar
    15     4     5    1
    16     4     6   ar
    17     6     7   ar
    18     7     8   ar
    19     8    27    1
    20    27    28   ar
    21    28    29   ar
    22    29    30   ar
    23    30    33    1
    24    33    34    1
    25    33    35    1
    26    33    36    1
    27    30    31   ar
    28    31    32   ar
    29     8     9   ar
    30     9    10   ar
    31    15    16    1
    32    16    17    1
    33    22    23   ar
    34    23    24    1
    35    23    19   ar
    36    17    12    1
    37    10     1   ar
    38    10     6   ar
    39    32    27   ar
    40     7    11    1
@<TRIPOS>MOLECULE
*****
 36 40 0 0 0
SMALL
GASTEIGER

@<TRIPOS>ATOM
      1 C         -29.2774   50.3743   -8.2777 C.ar    1  UNL1        0.0673
      2 C         -30.5313   50.3948   -8.9288 C.ar    1  UNL1        0.0170
      3 C         -30.6673   50.9780  -10.2084 C.ar    1  UNL1        0.0142
      4 C         -29.5530   51.5384  -10.8602 C.ar    1  UNL1        0.0748
      5 CL        -29.7127   52.2531  -12.4554 Cl      1  UNL1       -0.0807
      6 C         -28.3266   51.4938  -10.1963 C.ar    1  UNL1        0.0875
      7 N         -27.1304   51.9246  -10.6203 N.ar    1  UNL1       -0.3366
      8 C         -26.2832   51.6022   -9.6069 C.ar    1  UNL1        0.1406
      9 N         -26.9067   50.9842   -8.5681 N.ar    1  UNL1       -0.2258
     10 C         -28.1921   50.9358   -8.9601 C.ar    1  UNL1        0.1125
     11 H         -26.9177   52.3816  -11.5336 H       1  UNL1        0.1674
     12 N         -27.5912   48.2133   -5.3625 N.3     1  UNL1       -0.2647
     13 C         -29.0131   47.8310   -5.4564 C.3     1  UNL1        0.0941
     14 C         -29.6055   48.4044   -6.7478 C.3     1  UNL1        0.1082
     15 N         -29.1194   49.7695   -6.9820 N.pl3   1  UNL1       -0.3034
     16 C         -28.5035   50.5084   -5.8748 C.3     1  UNL1        0.1082
     17 C         -27.3781   49.6762   -5.2322 C.3     1  UNL1        0.0941
     18 C         -26.8323   47.4292   -4.3626 C.3     1  UNL1        0.1200
     19 N         -29.0722   45.8330   -1.9172 N.ar    1  UNL1       -0.3128
     20 C         -28.7437   44.8359   -2.7619 C.ar    1  UNL1        0.1780
     21 N         -27.9153   45.2408   -3.7461 N.ar    1  UNL1       -0.2273
     22 C         -27.7050   46.5504   -3.4964 C.ar    1  UNL1        0.0885
     23 C         -28.4039   46.9187   -2.3558 C.ar    1  UNL1        0.0537
     24 C         -28.5333   48.2963   -1.7720 C.3     1  UNL1        0.0514
     25 C         -31.2554   45.0584   -1.1134 C.3     1  UNL1        0.0265
     26 C         -29.9305   45.7117   -0.7384 C.3     1  UNL1        0.1073
     27 C         -24.8231   51.8736   -9.6125 C.ar    1  UNL1        0.0339
     28 C         -23.9963   51.2624   -8.6575 C.ar    1  UNL1        0.0027
     29 C         -22.6211   51.5041   -8.6441 C.ar    1  UNL1       -0.0042
     30 C         -22.0208   52.3680   -9.5847 C.ar    1  UNL1       -0.0228
     31 C         -22.8627   52.9817  -10.5405 C.ar    1  UNL1       -0.0042
     32 C         -24.2392   52.7379  -10.5521 C.ar    1  UNL1        0.0027
     33 C         -20.4976   52.6084   -9.5357 C.3     1  UNL1        0.0189
     34 C         -19.7897   51.6235  -10.4916 C.3     1  UNL1        0.0044
     35 C         -19.9867   52.3821   -8.0961 C.3     1  UNL1        0.0044
     36 C         -20.0952   54.0424   -9.9569 C.3     1  UNL1        0.0044
@<TRIPOS>BOND
     1    25    26    1
     2    26    19    1
     3    19    20   ar
     4    20    21   ar
     5    21    22   ar
     6    22    18    1
     7    18    12    1
     8    12    13    1
     9    13    14    1
    10    14    15    1
    11    15     1    1
    12     1     2   ar
    13     2     3   ar
    14     3     4   ar
    15     4     5    1
    16     4     6   ar
    17     6     7   ar
    18     7     8   ar
    19     8    27    1
    20    27    28   ar
    21    28    29   ar
    22    29    30   ar
    23    30    33    1
    24    33    34    1
    25    33    35    1
    26    33    36    1
    27    30    31   ar
    28    31    32   ar
    29     8     9   ar
    30     9    10   ar
    31    15    16    1
    32    16    17    1
    33    22    23   ar
    34    23    24    1
    35    23    19   ar
    36    17    12    1
    37    10     1   ar
    38    10     6   ar
    39    32    27   ar
    40     7    11    1
@<TRIPOS>MOLECULE
*****
 36 40 0 0 0
SMALL
GASTEIGER

@<TRIPOS>ATOM
      1 C         -29.5059   49.1758  -10.0470 C.ar    1  UNL1        0.0673
      2 C         -30.7878   49.5223  -10.5297 C.ar    1  UNL1        0.0170
      3 C         -31.0057   50.7669  -11.1619 C.ar    1  UNL1        0.0142
      4 C         -29.9460   51.6775  -11.3308 C.ar    1  UNL1        0.0748
      5 CL        -30.2072   53.2200  -12.1267 Cl      1  UNL1       -0.0807
      6 C         -28.6899   51.3025  -10.8530 C.ar    1  UNL1        0.0875
      7 N         -27.5328   51.9749  -10.9262 N.ar    1  UNL1       -0.3366
      8 C         -26.6279   51.1426  -10.3457 C.ar    1  UNL1        0.1406
      9 N         -27.1777   49.9753   -9.9157 N.ar    1  UNL1       -0.2258
     10 C         -28.4766   50.1045  -10.2390 C.ar    1  UNL1        0.1125
     11 H         -27.3808   52.9137  -11.3550 H       1  UNL1        0.1674
     12 N         -29.7322   46.2948   -7.2792 N.3     1  UNL1       -0.2647
     13 C         -28.3137   46.4746   -7.6427 C.3     1  UNL1        0.0941
     14 C         -28.1613   47.7626   -8.4585 C.3     1  UNL1        0.1082
     15 N         -29.2644   47.9056   -9.4161 N.pl3   1  UNL1       -0.3034
     16 C         -30.0882   46.7353   -9.7372 C.3     1  UNL1        0.1082
     17 C         -30.6214   46.0823   -8.4483 C.3     1  UNL1        0.0941
     18 C         -29.9463   45.3003   -6.2043 C.3     1  UNL1        0.1200
     19 N         -27.3406   45.6892   -3.6344 N.ar    1  UNL1       -0.3128
     20 C         -27.1395   44.4489   -4.1214 C.ar    1  UNL1        0.1780
     21 N         -28.0198   44.1222   -5.0894 N.ar    1  UNL1       -0.2273
     22 C         -28.7994   45.2156   -5.2236 C.ar    1  UNL1        0.0885
     23 C         -28.3729   46.1954   -4.3385 C.ar    1  UNL1        0.0537
     24 C         -29.0107   47.5305   -4.0812 C.3     1  UNL1        0.0514
     25 C         -25.0696   45.9860   -2.7588 C.3     1  UNL1        0.0265
     26 C         -26.5422   46.3444   -2.5980 C.3     1  UNL1        0.1073
     27 C         -25.1819   51.4456  -10.1948 C.ar    1  UNL1        0.0339
     28 C         -24.4470   51.9066  -11.2978 C.ar    1  UNL1        0.0027
     29 C         -23.0863   52.1968  -11.1784 C.ar    1  UNL1       -0.0042
     30 C         -22.4086   52.0350   -9.9513 C.ar    1  UNL1       -0.0228
     31 C         -23.1569   51.5667   -8.8469 C.ar    1  UNL1       -0.0042
     32 C         -24.5191   51.2771   -8.9688 C.ar    1  UNL1        0.0027
     33 C         -20.9045   52.3668   -9.8615 C.3     1  UNL1        0.0189
     34 C         -20.0888   51.2493  -10.5476 C.3     1  UNL1        0.0044
     35 C         -20.4874   52.4690   -8.3782 C.3     1  UNL1        0.0044
     36 C         -20.5359   53.7050  -10.5464 C.3     1  UNL1        0.0044
@<TRIPOS>BOND
     1    25    26    1
     2    26    19    1
     3    19    20   ar
     4    20    21   ar
     5    21    22   ar
     6    22    18    1
     7    18    12    1
     8    12    13    1
     9    13    14    1
    10    14    15    1
    11    15     1    1
    12     1     2   ar
    13     2     3   ar
    14     3     4   ar
    15     4     5    1
    16     4     6   ar
    17     6     7   ar
    18     7     8   ar
    19     8    27    1
    20    27    28   ar
    21    28    29   ar
    22    29    30   ar
    23    30    33    1
    24    33    34    1
    25    33    35    1
    26    33    36    1
    27    30    31   ar
    28    31    32   ar
    29     8     9   ar
    30     9    10   ar
    31    15    16    1
    32    16    17    1
    33    22    23   ar
    34    23    24    1
    35    23    19   ar
    36    17    12    1
    37    10     1   ar
    38    10     6   ar
    39    32    27   ar
    40     7    11    1
