@<TRIPOS>MOLECULE
*****
 47 52 0 0 0
SMALL
GASTEIGER

@<TRIPOS>ATOM
      1 C          58.1290   83.6852    9.0711 C.ar    1  UNL1        0.0702
      2 C          58.3102   82.4188    8.5034 C.ar    1  UNL1        0.0191
      3 C          58.3367   81.2805    9.3107 C.ar    1  UNL1        0.0356
      4 C          58.1909   81.4113   10.7030 C.ar    1  UNL1        0.1318
      5 N          58.0416   82.6585   11.2322 N.ar    1  UNL1       -0.2279
      6 C          58.0151   83.7806   10.4666 C.ar    1  UNL1        0.1149
      7 N          58.2034   80.2565   11.5750 N.pl3   1  UNL1       -0.2932
      8 C          58.1575   78.8972   11.0196 C.3     1  UNL1        0.0923
      9 C          59.4161   78.1162   11.4212 C.3     1  UNL1        0.0252
     10 C          59.8972   78.4094   12.8731 C.3     1  UNL1        0.0472
     11 C          58.7987   79.1075   13.7075 C.3     1  UNL1        0.0252
     12 C          58.3169   80.4079   13.0363 C.3     1  UNL1        0.0923
     13 C          61.2159   79.2137   12.9308 C.3     1  UNL1        0.2054
     14 O          61.5418   79.7769   11.6569 O.3     1  UNL1       -0.4755
     15 C          61.6214   81.1473   11.3462 C.ar    1  UNL1        0.1388
     16 C          61.4173   82.0622   12.3847 C.ar    1  UNL1        0.0369
     17 C          61.4830   83.4356   12.1457 C.ar    1  UNL1        0.0033
     18 C          61.7465   83.9124   10.8607 C.ar    1  UNL1        0.0066
     19 C          61.9482   83.0166    9.7975 C.ar    1  UNL1        0.0785
     20 C          61.9044   81.6335   10.0508 C.ar    1  UNL1        0.0433
     21 C          62.2174   83.5330    8.4346 C.2     1  UNL1        0.3381
     22 O          63.3100   84.1092    8.1874 O.2     1  UNL1       -0.2451
     23 O          61.2766   83.4197    7.4119 O.3     1  UNL1       -0.4771
     24 H          60.3464   83.0517    7.5652 H       1  UNL1        0.2954
     25 C          58.7503   86.0999    8.5772 C.2     1  UNL1        0.2839
     26 O          59.1126   86.3196    9.7639 O.2     1  UNL1       -0.2665
     27 N          58.1325   84.8503    8.2275 N.am    1  UNL1       -0.2766
     28 H          57.5829   84.8086    7.3394 H       1  UNL1        0.1553
     29 C          61.4918   86.9830    7.1731 C.3     1  UNL1        0.0345
     30 C          60.1176   87.5333    6.9346 C.ar    1  UNL1        0.0202
     31 C          58.9227   87.1451    7.5506 C.ar    1  UNL1        0.1946
     32 O          57.9171   87.8599    7.0778 O.2     1  UNL1       -0.4492
     33 C          58.3986   88.6926    6.1875 C.ar    1  UNL1        0.1452
     34 C          57.6941   89.6315    5.4423 C.ar    1  UNL1        0.0375
     35 C          58.4137   90.4304    4.5369 C.ar    1  UNL1        0.0031
     36 C          59.8191   90.2800    4.3901 C.ar    1  UNL1        0.0002
     37 C          60.4983   89.3115    5.1677 C.ar    1  UNL1        0.0028
     38 C          59.7524   88.5356    6.0564 C.ar    1  UNL1        0.0337
     39 C          60.5687   91.1299    3.4305 C.ar    1  UNL1       -0.0000
     40 C          59.9140   92.1454    2.7125 C.ar    1  UNL1       -0.0003
     41 C          60.6196   92.9459    1.8104 C.ar    1  UNL1       -0.0043
     42 C          61.9972   92.7481    1.6049 C.ar    1  UNL1       -0.0225
     43 C          62.6510   91.7328    2.3224 C.ar    1  UNL1       -0.0043
     44 C          61.9453   90.9330    3.2254 C.ar    1  UNL1       -0.0003
     45 C          62.7757   93.6096    0.6282 C.3     1  UNL1        0.0224
     46 C          62.4651   93.2197   -0.8217 C.3     1  UNL1        0.0047
     47 C          64.2816   93.5396    0.9080 C.3     1  UNL1        0.0047
@<TRIPOS>BOND
     1    29    30    1
     2    30    31   ar
     3    31    25    1
     4    25    26    2
     5    25    27   am
     6    27     1    1
     7     1     2   ar
     8     2     3   ar
     9     3     4   ar
    10     4     7    1
    11     7     8    1
    12     8     9    1
    13     9    10    1
    14    10    13    1
    15    13    14    1
    16    14    15    1
    17    15    16   ar
    18    16    17   ar
    19    17    18   ar
    20    18    19   ar
    21    19    21    1
    22    21    22    2
    23    21    23    1
    24    19    20   ar
    25    10    11    1
    26    11    12    1
    27     4     5   ar
    28     5     6   ar
    29    31    32   ar
    30    32    33   ar
    31    33    34   ar
    32    34    35   ar
    33    35    36   ar
    34    36    39    1
    35    39    40   ar
    36    40    41   ar
    37    41    42   ar
    38    42    45    1
    39    45    46    1
    40    45    47    1
    41    42    43   ar
    42    43    44   ar
    43    36    37   ar
    44    37    38   ar
    45    38    30   ar
    46     6     1   ar
    47    38    33   ar
    48    12     7    1
    49    44    39   ar
    50    20    15   ar
    51    27    28    1
    52    23    24    1
@<TRIPOS>MOLECULE
*****
 47 52 0 0 0
SMALL
GASTEIGER

@<TRIPOS>ATOM
      1 C          58.2178   83.6509    9.0298 C.ar    1  UNL1        0.0702
      2 C          58.9000   82.4967    8.6287 C.ar    1  UNL1        0.0191
      3 C          58.9325   81.3725    9.4553 C.ar    1  UNL1        0.0356
      4 C          58.2841   81.4069   10.7025 C.ar    1  UNL1        0.1318
      5 N          57.6488   82.5524   11.0797 N.ar    1  UNL1       -0.2279
      6 C          57.6060   83.6592   10.2928 C.ar    1  UNL1        0.1149
      7 N          58.2856   80.2608   11.5858 N.pl3   1  UNL1       -0.2932
      8 C          58.2772   78.8957   11.0427 C.3     1  UNL1        0.0923
      9 C          59.5336   78.1374   11.4917 C.3     1  UNL1        0.0252
     10 C          59.9639   78.4513   12.9552 C.3     1  UNL1        0.0472
     11 C          58.8293   79.1409   13.7474 C.3     1  UNL1        0.0252
     12 C          58.3503   80.4275   13.0484 C.3     1  UNL1        0.0923
     13 C          61.2683   79.2756   13.0467 C.3     1  UNL1        0.2054
     14 O          61.7959   79.5664   11.7492 O.3     1  UNL1       -0.4755
     15 C          62.1693   80.8341   11.2652 C.ar    1  UNL1        0.1388
     16 C          63.2824   80.9053   10.4206 C.ar    1  UNL1        0.0369
     17 C          63.7062   82.1308    9.9046 C.ar    1  UNL1        0.0033
     18 C          63.0254   83.3040   10.2337 C.ar    1  UNL1        0.0066
     19 C          61.9089   83.2629   11.0853 C.ar    1  UNL1        0.0785
     20 C          61.4730   82.0212   11.5823 C.ar    1  UNL1        0.0433
     21 C          61.1988   84.5155   11.4368 C.2     1  UNL1        0.3381
     22 O          60.2555   84.4879   12.2714 O.2     1  UNL1       -0.2451
     23 O          61.5320   85.7339   10.8466 O.3     1  UNL1       -0.4771
     24 H          62.2151   85.8111   10.1040 H       1  UNL1        0.2954
     25 C          58.7528   86.0900    8.5546 C.2     1  UNL1        0.2839
     26 O          59.0297   86.3335    9.7595 O.2     1  UNL1       -0.2665
     27 N          58.2182   84.8101    8.1780 N.am    1  UNL1       -0.2766
     28 H          57.7276   84.7370    7.2580 H       1  UNL1        0.1553
     29 C          61.4998   86.9190    7.1284 C.3     1  UNL1        0.0345
     30 C          60.1361   87.5010    6.9061 C.ar    1  UNL1        0.0202
     31 C          58.9387   87.1364    7.5316 C.ar    1  UNL1        0.1946
     32 O          57.9449   87.8760    7.0721 O.2     1  UNL1       -0.4492
     33 C          58.4364   88.7023    6.1814 C.ar    1  UNL1        0.1452
     34 C          57.7459   89.6607    5.4479 C.ar    1  UNL1        0.0375
     35 C          58.4745   90.4481    4.5396 C.ar    1  UNL1        0.0031
     36 C          59.8747   90.2670    4.3784 C.ar    1  UNL1        0.0002
     37 C          60.5395   89.2796    5.1445 C.ar    1  UNL1        0.0028
     38 C          59.7850   88.5159    6.0365 C.ar    1  UNL1        0.0337
     39 C          60.6339   91.1050    3.4158 C.ar    1  UNL1       -0.0000
     40 C          59.9791   92.0844    2.6494 C.ar    1  UNL1       -0.0003
     41 C          60.6937   92.8737    1.7445 C.ar    1  UNL1       -0.0043
     42 C          62.0806   92.7007    1.5847 C.ar    1  UNL1       -0.0225
     43 C          62.7345   91.7215    2.3507 C.ar    1  UNL1       -0.0043
     44 C          62.0198   90.9329    3.2564 C.ar    1  UNL1       -0.0003
     45 C          62.8690   93.5504    0.6056 C.3     1  UNL1        0.0224
     46 C          62.9318   92.8874   -0.7754 C.3     1  UNL1        0.0047
     47 C          64.2753   93.8478    1.1394 C.3     1  UNL1        0.0047
@<TRIPOS>BOND
     1    29    30    1
     2    30    31   ar
     3    31    25    1
     4    25    26    2
     5    25    27   am
     6    27     1    1
     7     1     2   ar
     8     2     3   ar
     9     3     4   ar
    10     4     7    1
    11     7     8    1
    12     8     9    1
    13     9    10    1
    14    10    13    1
    15    13    14    1
    16    14    15    1
    17    15    16   ar
    18    16    17   ar
    19    17    18   ar
    20    18    19   ar
    21    19    21    1
    22    21    22    2
    23    21    23    1
    24    19    20   ar
    25    10    11    1
    26    11    12    1
    27     4     5   ar
    28     5     6   ar
    29    31    32   ar
    30    32    33   ar
    31    33    34   ar
    32    34    35   ar
    33    35    36   ar
    34    36    39    1
    35    39    40   ar
    36    40    41   ar
    37    41    42   ar
    38    42    45    1
    39    45    46    1
    40    45    47    1
    41    42    43   ar
    42    43    44   ar
    43    36    37   ar
    44    37    38   ar
    45    38    30   ar
    46     6     1   ar
    47    38    33   ar
    48    12     7    1
    49    44    39   ar
    50    20    15   ar
    51    27    28    1
    52    23    24    1
