@<TRIPOS>MOLECULE
*****
 35 38 0 0 0
SMALL
GASTEIGER

@<TRIPOS>ATOM
      1 N         -10.8982  -11.7378   32.3706 N.am    1  UNL1       -0.2685
      2 C         -11.9286  -11.0016   31.6894 C.2     1  UNL1        0.2672
      3 O         -12.9703  -11.6007   31.3064 O.2     1  UNL1       -0.2682
      4 C         -11.7580   -9.5594   31.4266 C.ar    1  UNL1        0.1347
      5 C         -10.7159   -9.0875   30.6124 C.ar    1  UNL1        0.0238
      6 C         -10.5841   -7.7109   30.3884 C.ar    1  UNL1        0.0031
      7 C          -9.5507   -7.2081   29.5824 C.ar    1  UNL1        0.0001
      8 C          -9.4342   -5.8310   29.3701 C.ar    1  UNL1        0.0000
      9 C         -10.3452   -4.9486   29.9585 C.ar    1  UNL1        0.0000
     10 C         -11.3786   -5.4375   30.7633 C.ar    1  UNL1        0.0015
     11 C         -11.5038   -6.8176   30.9826 C.ar    1  UNL1        0.0192
     12 C         -12.5290   -7.3328   31.7846 C.ar    1  UNL1        0.0989
     13 N         -12.6288   -8.6731   31.9836 N.ar    1  UNL1       -0.2393
     14 C          -9.9154  -12.7381   34.4655 C.3     1  UNL1        0.0265
     15 C         -11.1835  -12.4532   33.6388 C.3     1  UNL1        0.1007
     16 C         -11.8850  -13.7727   33.3695 C.ar    1  UNL1        0.0234
     17 C         -11.7315  -14.4116   32.1240 C.ar    1  UNL1        0.0019
     18 C         -12.3645  -15.6309   31.8703 C.ar    1  UNL1        0.0295
     19 C         -13.1481  -16.2319   32.8578 C.ar    1  UNL1        0.1424
     20 F         -13.7608  -17.4157   32.6099 F       1  UNL1       -0.2041
     21 C         -13.2955  -15.6162   34.1031 C.ar    1  UNL1        0.0590
     22 C         -12.6651  -14.3951   34.3648 C.ar    1  UNL1        0.1399
     23 F         -12.8146  -13.8278   35.5887 F       1  UNL1       -0.2044
     24 C          -9.6885  -12.0637   31.5939 C.3     1  UNL1        0.1216
     25 C          -8.6226  -11.0078   31.7900 C.ar    1  UNL1        0.0085
     26 C          -8.6854  -10.2093   32.9419 C.ar    1  UNL1       -0.0018
     27 C          -7.7045   -9.2576   33.2006 C.ar    1  UNL1       -0.0000
     28 C          -6.6499   -9.0794   32.3098 C.ar    1  UNL1        0.0073
     29 C          -6.5618   -9.8465   31.1348 C.ar    1  UNL1        0.0857
     30 C          -7.5519  -10.8311   30.8762 C.ar    1  UNL1        0.0615
     31 CL         -7.4340  -11.8722   29.4498 Cl      1  UNL1       -0.0823
     32 C          -5.4291   -9.5882   30.2104 C.2     1  UNL1        0.3388
     33 O          -5.3810   -8.5088   29.5601 O.2     1  UNL1       -0.2451
     34 O          -4.4322  -10.5393   30.0138 O.3     1  UNL1       -0.4771
     35 H          -3.6668  -10.3669   29.3729 H       1  UNL1        0.2954
@<TRIPOS>BOND
     1    14    15    1
     2    15    16    1
     3    16    17   ar
     4    17    18   ar
     5    18    19   ar
     6    19    20    1
     7    19    21   ar
     8    21    22   ar
     9    22    23    1
    10    15     1    1
    11     1    24    1
    12    24    25    1
    13    25    26   ar
    14    26    27   ar
    15    27    28   ar
    16    28    29   ar
    17    29    32    1
    18    32    33    2
    19    32    34    1
    20    29    30   ar
    21    30    31    1
    22     1     2   am
    23     2     3    2
    24     2     4    1
    25     4     5   ar
    26     5     6   ar
    27     6     7   ar
    28     7     8   ar
    29     8     9   ar
    30     9    10   ar
    31    10    11   ar
    32    11    12   ar
    33    12    13   ar
    34    22    16   ar
    35    30    25   ar
    36    13     4   ar
    37    11     6   ar
    38    34    35    1
@<TRIPOS>MOLECULE
*****
 35 38 0 0 0
SMALL
GASTEIGER

@<TRIPOS>ATOM
      1 N         -10.5802   -9.0884   31.4215 N.am    1  UNL1       -0.2685
      2 C         -11.8042   -9.4475   32.0855 C.2     1  UNL1        0.2672
      3 O         -12.5304   -8.5432   32.5811 O.2     1  UNL1       -0.2682
      4 C         -12.1963  -10.8657   32.1995 C.ar    1  UNL1        0.1347
      5 C         -11.7095  -11.6727   33.2403 C.ar    1  UNL1        0.0238
      6 C         -12.1018  -13.0156   33.3140 C.ar    1  UNL1        0.0031
      7 C         -11.6293  -13.8486   34.3402 C.ar    1  UNL1        0.0001
      8 C         -12.0312  -15.1867   34.3978 C.ar    1  UNL1        0.0000
      9 C         -12.9047  -15.7013   33.4351 C.ar    1  UNL1        0.0000
     10 C         -13.3819  -14.8813   32.4081 C.ar    1  UNL1        0.0015
     11 C         -12.9843  -13.5374   32.3415 C.ar    1  UNL1        0.0192
     12 C         -13.4471  -12.6955   31.3233 C.ar    1  UNL1        0.0989
     13 N         -13.0466  -11.3980   31.2788 N.ar    1  UNL1       -0.2393
     14 C         -10.6692   -8.9418   28.9065 C.3     1  UNL1        0.0265
     15 C         -10.5877   -8.1842   30.2452 C.3     1  UNL1        0.1007
     16 C          -9.3451   -7.3116   30.2257 C.ar    1  UNL1        0.0234
     17 C          -8.1795   -7.7591   29.5746 C.ar    1  UNL1        0.0019
     18 C          -7.0344   -6.9592   29.5423 C.ar    1  UNL1        0.0295
     19 C          -7.0418   -5.7011   30.1486 C.ar    1  UNL1        0.1424
     20 F          -5.9299   -4.9260   30.1154 F       1  UNL1       -0.2041
     21 C          -8.1969   -5.2390   30.7841 C.ar    1  UNL1        0.0590
     22 C          -9.3474   -6.0340   30.8209 C.ar    1  UNL1        0.1399
     23 F         -10.4591   -5.5525   31.4327 F       1  UNL1       -0.2044
     24 C          -9.3269   -9.3338   32.1574 C.3     1  UNL1        0.1216
     25 C          -8.4180  -10.2594   31.3784 C.ar    1  UNL1        0.0085
     26 C          -9.0089  -11.2167   30.5400 C.ar    1  UNL1       -0.0018
     27 C          -8.2235  -12.0601   29.7612 C.ar    1  UNL1       -0.0000
     28 C          -6.8355  -11.9696   29.8127 C.ar    1  UNL1        0.0073
     29 C          -6.2051  -11.0365   30.6545 C.ar    1  UNL1        0.0857
     30 C          -7.0039  -10.1620   31.4379 C.ar    1  UNL1        0.0615
     31 CL         -6.2511   -8.9200   32.4495 Cl      1  UNL1       -0.0823
     32 C          -4.7210  -11.0095   30.6867 C.2     1  UNL1        0.3388
     33 O          -4.0822  -10.4225   29.7714 O.2     1  UNL1       -0.2451
     34 O          -4.0132  -11.6600   31.6930 O.3     1  UNL1       -0.4771
     35 H          -3.0002  -11.6516   31.7064 H       1  UNL1        0.2954
@<TRIPOS>BOND
     1    14    15    1
     2    15    16    1
     3    16    17   ar
     4    17    18   ar
     5    18    19   ar
     6    19    20    1
     7    19    21   ar
     8    21    22   ar
     9    22    23    1
    10    15     1    1
    11     1    24    1
    12    24    25    1
    13    25    26   ar
    14    26    27   ar
    15    27    28   ar
    16    28    29   ar
    17    29    32    1
    18    32    33    2
    19    32    34    1
    20    29    30   ar
    21    30    31    1
    22     1     2   am
    23     2     3    2
    24     2     4    1
    25     4     5   ar
    26     5     6   ar
    27     6     7   ar
    28     7     8   ar
    29     8     9   ar
    30     9    10   ar
    31    10    11   ar
    32    11    12   ar
    33    12    13   ar
    34    22    16   ar
    35    30    25   ar
    36    13     4   ar
    37    11     6   ar
    38    34    35    1
@<TRIPOS>MOLECULE
*****
 35 38 0 0 0
SMALL
GASTEIGER

@<TRIPOS>ATOM
      1 N          -8.5325  -10.0335   31.2927 N.am    1  UNL1       -0.2685
      2 C          -9.5946  -10.9249   30.9116 C.2     1  UNL1        0.2672
      3 O         -10.0543  -10.8776   29.7381 O.2     1  UNL1       -0.2682
      4 C         -10.1522  -11.8751   31.8936 C.ar    1  UNL1        0.1347
      5 C         -11.2230  -12.7200   31.5601 C.ar    1  UNL1        0.0238
      6 C         -11.7276  -13.6068   32.5201 C.ar    1  UNL1        0.0031
      7 C         -12.7996  -14.4612   32.2183 C.ar    1  UNL1        0.0001
      8 C         -13.2905  -15.3397   33.1892 C.ar    1  UNL1        0.0000
      9 C         -12.7170  -15.3718   34.4638 C.ar    1  UNL1        0.0000
     10 C         -11.6490  -14.5255   34.7762 C.ar    1  UNL1        0.0015
     11 C         -11.1494  -13.6403   33.8091 C.ar    1  UNL1        0.0192
     12 C         -10.0813  -12.7822   34.0965 C.ar    1  UNL1        0.0989
     13 N          -9.6159  -11.9325   33.1439 N.ar    1  UNL1       -0.2393
     14 C          -6.5279  -11.4158   30.6404 C.3     1  UNL1        0.0265
     15 C          -7.2322  -10.0473   30.5782 C.3     1  UNL1        0.1007
     16 C          -6.2916   -8.9994   31.1466 C.ar    1  UNL1        0.0234
     17 C          -5.9834   -8.9996   32.5206 C.ar    1  UNL1        0.0019
     18 C          -5.1111   -8.0459   33.0513 C.ar    1  UNL1        0.0295
     19 C          -4.5283   -7.0891   32.2174 C.ar    1  UNL1        0.1424
     20 F          -3.6813   -6.1652   32.7341 F       1  UNL1       -0.2041
     21 C          -4.8135   -7.0881   30.8498 C.ar    1  UNL1        0.0590
     22 C          -5.6861   -8.0395   30.3109 C.ar    1  UNL1        0.1399
     23 F          -5.9329   -8.0229   28.9764 F       1  UNL1       -0.2044
     24 C          -8.9001   -8.8826   32.1371 C.3     1  UNL1        0.1216
     25 C          -9.9767   -8.0512   31.4744 C.ar    1  UNL1        0.0085
     26 C         -11.2725   -8.5840   31.3989 C.ar    1  UNL1       -0.0018
     27 C         -12.3133   -7.8445   30.8471 C.ar    1  UNL1       -0.0000
     28 C         -12.0773   -6.5652   30.3521 C.ar    1  UNL1        0.0073
     29 C         -10.7890   -6.0035   30.3919 C.ar    1  UNL1        0.0857
     30 C          -9.7276   -6.7487   30.9705 C.ar    1  UNL1        0.0615
     31 CL         -8.1090   -6.0468   31.1126 Cl      1  UNL1       -0.0823
     32 C         -10.5961   -4.6466   29.8209 C.2     1  UNL1        0.3388
     33 O          -9.4959   -4.3392   29.2867 O.2     1  UNL1       -0.2451
     34 O         -11.5991   -3.6851   29.9011 O.3     1  UNL1       -0.4771
     35 H         -11.4612   -2.7556   29.5225 H       1  UNL1        0.2954
@<TRIPOS>BOND
     1    14    15    1
     2    15    16    1
     3    16    17   ar
     4    17    18   ar
     5    18    19   ar
     6    19    20    1
     7    19    21   ar
     8    21    22   ar
     9    22    23    1
    10    15     1    1
    11     1    24    1
    12    24    25    1
    13    25    26   ar
    14    26    27   ar
    15    27    28   ar
    16    28    29   ar
    17    29    32    1
    18    32    33    2
    19    32    34    1
    20    29    30   ar
    21    30    31    1
    22     1     2   am
    23     2     3    2
    24     2     4    1
    25     4     5   ar
    26     5     6   ar
    27     6     7   ar
    28     7     8   ar
    29     8     9   ar
    30     9    10   ar
    31    10    11   ar
    32    11    12   ar
    33    12    13   ar
    34    22    16   ar
    35    30    25   ar
    36    13     4   ar
    37    11     6   ar
    38    34    35    1
@<TRIPOS>MOLECULE
*****
 35 38 0 0 0
SMALL
GASTEIGER

@<TRIPOS>ATOM
      1 N         -10.6493  -11.9438   32.1309 N.am    1  UNL1       -0.2685
      2 C         -11.5109  -11.2906   31.1828 C.2     1  UNL1        0.2672
      3 O         -12.5086  -11.9090   30.7214 O.2     1  UNL1       -0.2682
      4 C         -11.2175   -9.9131   30.7419 C.ar    1  UNL1        0.1347
      5 C         -11.6058   -8.8053   31.5123 C.ar    1  UNL1        0.0238
      6 C         -11.3124   -7.5124   31.0595 C.ar    1  UNL1        0.0031
      7 C         -11.6907   -6.3850   31.8052 C.ar    1  UNL1        0.0001
      8 C         -11.3898   -5.1021   31.3376 C.ar    1  UNL1        0.0000
      9 C         -10.7114   -4.9355   30.1265 C.ar    1  UNL1        0.0000
     10 C         -10.3295   -6.0508   29.3750 C.ar    1  UNL1        0.0015
     11 C         -10.6271   -7.3423   29.8355 C.ar    1  UNL1        0.0192
     12 C         -10.2564   -8.4754   29.1018 C.ar    1  UNL1        0.0989
     13 N         -10.5571   -9.7158   29.5675 N.ar    1  UNL1       -0.2393
     14 C         -10.0803  -12.6377   34.4867 C.3     1  UNL1        0.0265
     15 C         -11.1783  -12.4433   33.4240 C.3     1  UNL1        0.1007
     16 C         -11.9025  -13.7650   33.2378 C.ar    1  UNL1        0.0234
     17 C         -11.7773  -14.4731   32.0271 C.ar    1  UNL1        0.0019
     18 C         -12.4314  -15.6949   31.8499 C.ar    1  UNL1        0.0295
     19 C         -13.2081  -16.2292   32.8802 C.ar    1  UNL1        0.1424
     20 F         -13.8412  -17.4155   32.7066 F       1  UNL1       -0.2041
     21 C         -13.3275  -15.5442   34.0919 C.ar    1  UNL1        0.0590
     22 C         -12.6759  -14.3202   34.2771 C.ar    1  UNL1        0.1399
     23 F         -12.7984  -13.6848   35.4700 F       1  UNL1       -0.2044
     24 C          -9.3497  -12.4246   31.6284 C.3     1  UNL1        0.1216
     25 C          -8.4278  -11.2640   31.3239 C.ar    1  UNL1        0.0085
     26 C          -7.8950  -11.1633   30.0299 C.ar    1  UNL1       -0.0018
     27 C          -7.0831  -10.0902   29.6778 C.ar    1  UNL1       -0.0000
     28 C          -6.7807   -9.1048   30.6131 C.ar    1  UNL1        0.0073
     29 C          -7.2795   -9.1798   31.9255 C.ar    1  UNL1        0.0857
     30 C          -8.1230  -10.2646   32.2835 C.ar    1  UNL1        0.0615
     31 CL         -8.8361  -10.3537   33.9010 Cl      1  UNL1       -0.0823
     32 C          -6.8966   -8.1131   32.8848 C.2     1  UNL1        0.3388
     33 O          -7.6546   -7.1202   33.0573 O.2     1  UNL1       -0.2451
     34 O          -5.6879   -8.1666   33.5725 O.3     1  UNL1       -0.4771
     35 H          -5.4221   -7.4316   34.2169 H       1  UNL1        0.2954
@<TRIPOS>BOND
     1    14    15    1
     2    15    16    1
     3    16    17   ar
     4    17    18   ar
     5    18    19   ar
     6    19    20    1
     7    19    21   ar
     8    21    22   ar
     9    22    23    1
    10    15     1    1
    11     1    24    1
    12    24    25    1
    13    25    26   ar
    14    26    27   ar
    15    27    28   ar
    16    28    29   ar
    17    29    32    1
    18    32    33    2
    19    32    34    1
    20    29    30   ar
    21    30    31    1
    22     1     2   am
    23     2     3    2
    24     2     4    1
    25     4     5   ar
    26     5     6   ar
    27     6     7   ar
    28     7     8   ar
    29     8     9   ar
    30     9    10   ar
    31    10    11   ar
    32    11    12   ar
    33    12    13   ar
    34    22    16   ar
    35    30    25   ar
    36    13     4   ar
    37    11     6   ar
    38    34    35    1
@<TRIPOS>MOLECULE
*****
 35 38 0 0 0
SMALL
GASTEIGER

@<TRIPOS>ATOM
      1 N         -10.9370  -11.6947   33.4206 N.am    1  UNL1       -0.2685
      2 C          -9.8439  -10.7712   33.5631 C.2     1  UNL1        0.2672
      3 O          -9.7453  -10.0830   34.6154 O.2     1  UNL1       -0.2682
      4 C          -8.8561  -10.6196   32.4771 C.ar    1  UNL1        0.1347
      5 C          -8.3904   -9.3528   32.0902 C.ar    1  UNL1        0.0238
      6 C          -7.4547   -9.2484   31.0527 C.ar    1  UNL1        0.0031
      7 C          -6.9730   -7.9961   30.6407 C.ar    1  UNL1        0.0001
      8 C          -6.0395   -7.9109   29.6031 C.ar    1  UNL1        0.0000
      9 C          -5.5816   -9.0710   28.9714 C.ar    1  UNL1        0.0000
     10 C          -6.0542  -10.3240   29.3730 C.ar    1  UNL1        0.0015
     11 C          -6.9910  -10.4199   30.4129 C.ar    1  UNL1        0.0192
     12 C          -7.4805  -11.6622   30.8336 C.ar    1  UNL1        0.0989
     13 N          -8.3887  -11.7296   31.8418 N.ar    1  UNL1       -0.2393
     14 C          -9.8130  -13.2869   35.0194 C.3     1  UNL1        0.0265
     15 C         -11.1322  -12.8006   34.3903 C.3     1  UNL1        0.1007
     16 C         -11.8118  -13.9865   33.7286 C.ar    1  UNL1        0.0234
     17 C         -11.4867  -14.3366   32.4040 C.ar    1  UNL1        0.0019
     18 C         -12.0989  -15.4321   31.7899 C.ar    1  UNL1        0.0295
     19 C         -13.0331  -16.1966   32.4922 C.ar    1  UNL1        0.1424
     20 F         -13.6254  -17.2599   31.8949 F       1  UNL1       -0.2041
     21 C         -13.3526  -15.8693   33.8123 C.ar    1  UNL1        0.0590
     22 C         -12.7441  -14.7737   34.4340 C.ar    1  UNL1        0.1399
     23 F         -13.0634  -14.4887   35.7219 F       1  UNL1       -0.2044
     24 C         -12.0390  -11.2894   32.5296 C.3     1  UNL1        0.1216
     25 C         -11.5053  -10.5991   31.2934 C.ar    1  UNL1        0.0085
     26 C         -11.0090  -11.3970   30.2515 C.ar    1  UNL1       -0.0018
     27 C         -10.5531  -10.8203   29.0708 C.ar    1  UNL1       -0.0000
     28 C         -10.5751   -9.4375   28.9131 C.ar    1  UNL1        0.0073
     29 C         -11.0469   -8.6026   29.9412 C.ar    1  UNL1        0.0857
     30 C         -11.5295   -9.1889   31.1412 C.ar    1  UNL1        0.0615
     31 CL        -12.2059   -8.1784   32.4272 Cl      1  UNL1       -0.0823
     32 C         -11.0171   -7.1342   29.7234 C.2     1  UNL1        0.3388
     33 O          -9.9329   -6.5646   29.4226 O.2     1  UNL1       -0.2451
     34 O         -12.1627   -6.3612   29.8865 O.3     1  UNL1       -0.4771
     35 H         -12.1378   -5.3576   29.7502 H       1  UNL1        0.2954
@<TRIPOS>BOND
     1    14    15    1
     2    15    16    1
     3    16    17   ar
     4    17    18   ar
     5    18    19   ar
     6    19    20    1
     7    19    21   ar
     8    21    22   ar
     9    22    23    1
    10    15     1    1
    11     1    24    1
    12    24    25    1
    13    25    26   ar
    14    26    27   ar
    15    27    28   ar
    16    28    29   ar
    17    29    32    1
    18    32    33    2
    19    32    34    1
    20    29    30   ar
    21    30    31    1
    22     1     2   am
    23     2     3    2
    24     2     4    1
    25     4     5   ar
    26     5     6   ar
    27     6     7   ar
    28     7     8   ar
    29     8     9   ar
    30     9    10   ar
    31    10    11   ar
    32    11    12   ar
    33    12    13   ar
    34    22    16   ar
    35    30    25   ar
    36    13     4   ar
    37    11     6   ar
    38    34    35    1
@<TRIPOS>MOLECULE
*****
 35 38 0 0 0
SMALL
GASTEIGER

@<TRIPOS>ATOM
      1 N         -10.9074  -11.8299   33.2637 N.am    1  UNL1       -0.2685
      2 C          -9.9466  -10.7798   33.4684 C.2     1  UNL1        0.2672
      3 O         -10.0925   -9.9843   34.4362 O.2     1  UNL1       -0.2682
      4 C          -8.8088  -10.6259   32.5412 C.ar    1  UNL1        0.1347
      5 C          -8.2201   -9.3713   32.3152 C.ar    1  UNL1        0.0238
      6 C          -7.1434   -9.2641   31.4253 C.ar    1  UNL1        0.0031
      7 C          -6.5363   -8.0234   31.1757 C.ar    1  UNL1        0.0001
      8 C          -5.4628   -7.9351   30.2840 C.ar    1  UNL1        0.0000
      9 C          -4.9891   -9.0805   29.6373 C.ar    1  UNL1        0.0000
     10 C          -5.5858  -10.3217   29.8777 C.ar    1  UNL1        0.0015
     11 C          -6.6635  -10.4207   30.7705 C.ar    1  UNL1        0.0192
     12 C          -7.2789  -11.6514   31.0283 C.ar    1  UNL1        0.0989
     13 N          -8.3223  -11.7218   31.8958 N.ar    1  UNL1       -0.2393
     14 C          -9.8686  -13.3167   35.0145 C.3     1  UNL1        0.0265
     15 C         -11.1574  -12.8497   34.3121 C.3     1  UNL1        0.1007
     16 C         -11.8514  -14.0674   33.7276 C.ar    1  UNL1        0.0234
     17 C         -11.5240  -14.5113   32.4320 C.ar    1  UNL1        0.0019
     18 C         -12.1495  -15.6367   31.8895 C.ar    1  UNL1        0.0295
     19 C         -13.0993  -16.3378   32.6356 C.ar    1  UNL1        0.1424
     20 F         -13.7044  -17.4302   32.1077 F       1  UNL1       -0.2041
     21 C         -13.4214  -15.9169   33.9282 C.ar    1  UNL1        0.0590
     22 C         -12.7997  -14.7909   34.4784 C.ar    1  UNL1        0.1399
     23 F         -13.1221  -14.4144   35.7419 F       1  UNL1       -0.2044
     24 C         -11.8768  -11.6413   32.1695 C.3     1  UNL1        0.1216
     25 C         -11.8090  -10.2300   31.6279 C.ar    1  UNL1        0.0085
     26 C         -12.4656   -9.2151   32.3402 C.ar    1  UNL1       -0.0018
     27 C         -12.3949   -7.8916   31.9182 C.ar    1  UNL1       -0.0000
     28 C         -11.6765   -7.5594   30.7732 C.ar    1  UNL1        0.0073
     29 C         -11.0207   -8.5501   30.0214 C.ar    1  UNL1        0.0857
     30 C         -11.0762   -9.8999   30.4590 C.ar    1  UNL1        0.0615
     31 CL        -10.1984  -11.1650   29.5863 Cl      1  UNL1       -0.0823
     32 C         -10.2960   -8.1358   28.7936 C.2     1  UNL1        0.3388
     33 O          -9.5880   -7.0921   28.8026 O.2     1  UNL1       -0.2451
     34 O         -10.4162   -8.8591   27.6108 O.3     1  UNL1       -0.4771
     35 H          -9.9313   -8.5678   26.7703 H       1  UNL1        0.2954
@<TRIPOS>BOND
     1    14    15    1
     2    15    16    1
     3    16    17   ar
     4    17    18   ar
     5    18    19   ar
     6    19    20    1
     7    19    21   ar
     8    21    22   ar
     9    22    23    1
    10    15     1    1
    11     1    24    1
    12    24    25    1
    13    25    26   ar
    14    26    27   ar
    15    27    28   ar
    16    28    29   ar
    17    29    32    1
    18    32    33    2
    19    32    34    1
    20    29    30   ar
    21    30    31    1
    22     1     2   am
    23     2     3    2
    24     2     4    1
    25     4     5   ar
    26     5     6   ar
    27     6     7   ar
    28     7     8   ar
    29     8     9   ar
    30     9    10   ar
    31    10    11   ar
    32    11    12   ar
    33    12    13   ar
    34    22    16   ar
    35    30    25   ar
    36    13     4   ar
    37    11     6   ar
    38    34    35    1
@<TRIPOS>MOLECULE
*****
 35 38 0 0 0
SMALL
GASTEIGER

@<TRIPOS>ATOM
      1 N          -8.7544  -10.3679   29.7241 N.am    1  UNL1       -0.2685
      2 C          -8.7469  -11.7621   30.0762 C.2     1  UNL1        0.2672
      3 O          -8.1087  -12.5804   29.3595 O.2     1  UNL1       -0.2682
      4 C          -9.4956  -12.2314   31.2583 C.ar    1  UNL1        0.1347
      5 C         -10.6236  -13.0566   31.1235 C.ar    1  UNL1        0.0238
      6 C         -11.3105  -13.4796   32.2688 C.ar    1  UNL1        0.0031
      7 C         -12.4436  -14.3018   32.1665 C.ar    1  UNL1        0.0001
      8 C         -13.1170  -14.7140   33.3206 C.ar    1  UNL1        0.0000
      9 C         -12.6660  -14.3101   34.5808 C.ar    1  UNL1        0.0000
     10 C         -11.5387  -13.4912   34.6953 C.ar    1  UNL1        0.0015
     11 C         -10.8563  -13.0721   33.5433 C.ar    1  UNL1        0.0192
     12 C          -9.7254  -12.2515   33.6305 C.ar    1  UNL1        0.0989
     13 N          -9.0822  -11.8572   32.5006 N.ar    1  UNL1       -0.2393
     14 C          -6.2367  -10.4814   29.7783 C.3     1  UNL1        0.0265
     15 C          -7.4897   -9.5971   29.6353 C.3     1  UNL1        0.1007
     16 C          -7.4377   -8.5182   30.7027 C.ar    1  UNL1        0.0234
     17 C          -7.8111   -8.8180   32.0269 C.ar    1  UNL1        0.0019
     18 C          -7.7569   -7.8350   33.0183 C.ar    1  UNL1        0.0295
     19 C          -7.3201   -6.5464   32.7034 C.ar    1  UNL1        0.1424
     20 F          -7.2672   -5.5941   33.6670 F       1  UNL1       -0.2041
     21 C          -6.9318   -6.2405   31.3967 C.ar    1  UNL1        0.0590
     22 C          -6.9834   -7.2192   30.3985 C.ar    1  UNL1        0.1399
     23 F          -6.5861   -6.8967   29.1415 F       1  UNL1       -0.2044
     24 C          -9.9843   -9.8448   29.1025 C.3     1  UNL1        0.1216
     25 C         -10.7847   -9.0306   30.0955 C.ar    1  UNL1        0.0085
     26 C         -11.5467   -9.7168   31.0531 C.ar    1  UNL1       -0.0018
     27 C         -12.2616   -9.0217   32.0227 C.ar    1  UNL1       -0.0000
     28 C         -12.2366   -7.6302   32.0477 C.ar    1  UNL1        0.0073
     29 C         -11.5006   -6.9056   31.0938 C.ar    1  UNL1        0.0857
     30 C         -10.7554   -7.6124   30.1130 C.ar    1  UNL1        0.0615
     31 CL         -9.7523   -6.7403   28.9444 Cl      1  UNL1       -0.0823
     32 C         -11.5381   -5.4227   31.1556 C.2     1  UNL1        0.3388
     33 O         -11.6908   -4.8427   32.2650 O.2     1  UNL1       -0.2451
     34 O         -11.4491   -4.6538   29.9990 O.3     1  UNL1       -0.4771
     35 H         -11.4878   -3.6424   30.0415 H       1  UNL1        0.2954
@<TRIPOS>BOND
     1    14    15    1
     2    15    16    1
     3    16    17   ar
     4    17    18   ar
     5    18    19   ar
     6    19    20    1
     7    19    21   ar
     8    21    22   ar
     9    22    23    1
    10    15     1    1
    11     1    24    1
    12    24    25    1
    13    25    26   ar
    14    26    27   ar
    15    27    28   ar
    16    28    29   ar
    17    29    32    1
    18    32    33    2
    19    32    34    1
    20    29    30   ar
    21    30    31    1
    22     1     2   am
    23     2     3    2
    24     2     4    1
    25     4     5   ar
    26     5     6   ar
    27     6     7   ar
    28     7     8   ar
    29     8     9   ar
    30     9    10   ar
    31    10    11   ar
    32    11    12   ar
    33    12    13   ar
    34    22    16   ar
    35    30    25   ar
    36    13     4   ar
    37    11     6   ar
    38    34    35    1
@<TRIPOS>MOLECULE
*****
 35 38 0 0 0
SMALL
GASTEIGER

@<TRIPOS>ATOM
      1 N         -10.3617  -11.0953   32.2687 N.am    1  UNL1       -0.2685
      2 C         -11.1613  -10.0140   31.7595 C.2     1  UNL1        0.2672
      3 O         -12.4115  -10.1545   31.6701 O.2     1  UNL1       -0.2682
      4 C         -10.5191   -8.7569   31.3291 C.ar    1  UNL1        0.1347
      5 C          -9.2694   -8.3682   31.8376 C.ar    1  UNL1        0.0238
      6 C          -8.6925   -7.1661   31.4076 C.ar    1  UNL1        0.0031
      7 C          -7.4462   -6.7486   31.9002 C.ar    1  UNL1        0.0001
      8 C          -6.8858   -5.5455   31.4600 C.ar    1  UNL1        0.0000
      9 C          -7.5628   -4.7532   30.5281 C.ar    1  UNL1        0.0000
     10 C          -8.8048   -5.1585   30.0304 C.ar    1  UNL1        0.0015
     11 C          -9.3755   -6.3638   30.4660 C.ar    1  UNL1        0.0192
     12 C         -10.6180   -6.7920   29.9836 C.ar    1  UNL1        0.0989
     13 N         -11.1513   -7.9624   30.4217 N.ar    1  UNL1       -0.2393
     14 C          -9.2808  -11.9326   34.3866 C.3     1  UNL1        0.0265
     15 C         -10.5902  -11.6366   33.6311 C.3     1  UNL1        0.1007
     16 C         -11.4090  -12.9143   33.5753 C.ar    1  UNL1        0.0234
     17 C         -12.3578  -13.0994   32.5513 C.ar    1  UNL1        0.0019
     18 C         -13.1087  -14.2757   32.4854 C.ar    1  UNL1        0.0295
     19 C         -12.9150  -15.2841   33.4319 C.ar    1  UNL1        0.1424
     20 F         -13.6440  -16.4253   33.3656 F       1  UNL1       -0.2041
     21 C         -11.9655  -15.1194   34.4434 C.ar    1  UNL1        0.0590
     22 C         -11.2098  -13.9444   34.5164 C.ar    1  UNL1        0.1399
     23 F         -10.2846  -13.8187   35.5013 F       1  UNL1       -0.2044
     24 C          -9.5899  -11.8740   31.2835 C.3     1  UNL1        0.1216
     25 C          -8.2185  -11.2695   31.0751 C.ar    1  UNL1        0.0085
     26 C          -7.2116  -11.5764   32.0027 C.ar    1  UNL1       -0.0018
     27 C          -5.9190  -11.0912   31.8341 C.ar    1  UNL1       -0.0000
     28 C          -5.6112  -10.2836   30.7430 C.ar    1  UNL1        0.0073
     29 C          -6.5968   -9.9378   29.8018 C.ar    1  UNL1        0.0857
     30 C          -7.9133  -10.4457   29.9612 C.ar    1  UNL1        0.0615
     31 CL         -9.1628  -10.0999   28.7562 Cl      1  UNL1       -0.0823
     32 C          -6.2126   -9.0490   28.6763 C.2     1  UNL1        0.3388
     33 O          -5.7155   -9.5412   27.6270 O.2     1  UNL1       -0.2451
     34 O          -6.3525   -7.6677   28.7729 O.3     1  UNL1       -0.4771
     35 H          -6.0778   -7.0616   28.0090 H       1  UNL1        0.2954
@<TRIPOS>BOND
     1    14    15    1
     2    15    16    1
     3    16    17   ar
     4    17    18   ar
     5    18    19   ar
     6    19    20    1
     7    19    21   ar
     8    21    22   ar
     9    22    23    1
    10    15     1    1
    11     1    24    1
    12    24    25    1
    13    25    26   ar
    14    26    27   ar
    15    27    28   ar
    16    28    29   ar
    17    29    32    1
    18    32    33    2
    19    32    34    1
    20    29    30   ar
    21    30    31    1
    22     1     2   am
    23     2     3    2
    24     2     4    1
    25     4     5   ar
    26     5     6   ar
    27     6     7   ar
    28     7     8   ar
    29     8     9   ar
    30     9    10   ar
    31    10    11   ar
    32    11    12   ar
    33    12    13   ar
    34    22    16   ar
    35    30    25   ar
    36    13     4   ar
    37    11     6   ar
    38    34    35    1
@<TRIPOS>MOLECULE
*****
 35 38 0 0 0
SMALL
GASTEIGER

@<TRIPOS>ATOM
      1 N          -7.6098  -10.0425   31.6682 N.am    1  UNL1       -0.2685
      2 C          -8.6187  -10.5175   30.7602 C.2     1  UNL1        0.2672
      3 O          -8.5340  -10.2344   29.5341 O.2     1  UNL1       -0.2682
      4 C          -9.7529  -11.3155   31.2651 C.ar    1  UNL1        0.1347
      5 C          -9.6611  -12.0254   32.4731 C.ar    1  UNL1        0.0238
      6 C         -10.7579  -12.7746   32.9187 C.ar    1  UNL1        0.0031
      7 C         -10.6957  -13.4979   34.1200 C.ar    1  UNL1        0.0001
      8 C         -11.8001  -14.2405   34.5491 C.ar    1  UNL1        0.0000
      9 C         -12.9706  -14.2664   33.7850 C.ar    1  UNL1        0.0000
     10 C         -13.0444  -13.5501   32.5866 C.ar    1  UNL1        0.0015
     11 C         -11.9416  -12.8022   32.1474 C.ar    1  UNL1        0.0192
     12 C         -11.9895  -12.0768   30.9511 C.ar    1  UNL1        0.0989
     13 N         -10.9080  -11.3612   30.5456 N.ar    1  UNL1       -0.2393
     14 C          -5.2469   -9.6953   32.4752 C.3     1  UNL1        0.0265
     15 C          -6.1845  -10.4123   31.4855 C.3     1  UNL1        0.1007
     16 C          -5.7207  -10.0977   30.0742 C.ar    1  UNL1        0.0234
     17 C          -5.2024   -8.8243   29.7698 C.ar    1  UNL1        0.0019
     18 C          -4.7635   -8.5284   28.4768 C.ar    1  UNL1        0.0295
     19 C          -4.8261   -9.5009   27.4764 C.ar    1  UNL1        0.1424
     20 F          -4.3988   -9.2122   26.2225 F       1  UNL1       -0.2041
     21 C          -5.3234  -10.7732   27.7694 C.ar    1  UNL1        0.0590
     22 C          -5.7651  -11.0771   29.0616 C.ar    1  UNL1        0.1399
     23 F          -6.2295  -12.3258   29.3201 F       1  UNL1       -0.2044
     24 C          -7.9736   -8.9047   32.5316 C.3     1  UNL1        0.1216
     25 C          -8.1684   -7.6478   31.7118 C.ar    1  UNL1        0.0085
     26 C          -7.0281   -6.9355   31.3106 C.ar    1  UNL1       -0.0018
     27 C          -7.1433   -5.8019   30.5129 C.ar    1  UNL1       -0.0000
     28 C          -8.3980   -5.3540   30.1100 C.ar    1  UNL1        0.0073
     29 C          -9.5657   -6.0291   30.5069 C.ar    1  UNL1        0.0857
     30 C          -9.4510   -7.1968   31.3068 C.ar    1  UNL1        0.0615
     31 CL        -10.8906   -8.1209   31.7610 Cl      1  UNL1       -0.0823
     32 C         -10.8756   -5.4843   30.0689 C.2     1  UNL1        0.3388
     33 O         -11.0368   -4.2376   29.9682 O.2     1  UNL1       -0.2451
     34 O         -11.9512   -6.3271   29.8050 O.3     1  UNL1       -0.4771
     35 H         -12.8481   -5.9531   29.5187 H       1  UNL1        0.2954
@<TRIPOS>BOND
     1    14    15    1
     2    15    16    1
     3    16    17   ar
     4    17    18   ar
     5    18    19   ar
     6    19    20    1
     7    19    21   ar
     8    21    22   ar
     9    22    23    1
    10    15     1    1
    11     1    24    1
    12    24    25    1
    13    25    26   ar
    14    26    27   ar
    15    27    28   ar
    16    28    29   ar
    17    29    32    1
    18    32    33    2
    19    32    34    1
    20    29    30   ar
    21    30    31    1
    22     1     2   am
    23     2     3    2
    24     2     4    1
    25     4     5   ar
    26     5     6   ar
    27     6     7   ar
    28     7     8   ar
    29     8     9   ar
    30     9    10   ar
    31    10    11   ar
    32    11    12   ar
    33    12    13   ar
    34    22    16   ar
    35    30    25   ar
    36    13     4   ar
    37    11     6   ar
    38    34    35    1
