@<TRIPOS>MOLECULE
*****
 46 51 0 0 0
SMALL
GASTEIGER

@<TRIPOS>ATOM
      1 O         -23.4296   50.9422  -11.3529 O.2     1  UNL1       -0.2701
      2 C         -23.4684   51.6461  -10.3065 C.2     1  UNL1        0.2483
      3 N         -22.3620   52.5041   -9.9837 N.am    1  UNL1       -0.2945
      4 H         -22.3012   52.9043   -9.0200 H       1  UNL1        0.1501
      5 C         -24.6442   51.5514   -9.4124 C.ar    1  UNL1        0.0808
      6 C         -25.8684   52.1104   -9.8150 C.ar    1  UNL1        0.0080
      7 C         -26.9919   52.0308   -8.9888 C.ar    1  UNL1        0.0148
      8 C         -26.9128   51.3966   -7.7393 C.ar    1  UNL1        0.0502
      9 C         -25.6843   50.8602   -7.3232 C.ar    1  UNL1        0.0443
     10 C         -24.5577   50.9357   -8.1484 C.ar    1  UNL1        0.1457
     11 F         -23.3779   50.4496   -7.6863 F       1  UNL1       -0.2040
     12 N         -28.0682   51.3286   -6.8815 N.pl3   1  UNL1       -0.3040
     13 C         -29.3678   50.9241   -7.4429 C.3     1  UNL1        0.1122
     14 C         -30.3981   50.6649   -6.3378 C.3     1  UNL1        0.1122
     15 N         -29.7718   49.9124   -5.2414 N.pl3   1  UNL1       -0.3040
     16 C         -28.5119   50.3961   -4.6527 C.3     1  UNL1        0.1122
     17 C         -27.9475   51.5849   -5.4391 C.3     1  UNL1        0.1122
     18 C         -30.3389   48.6695   -4.7844 C.ar    1  UNL1        0.0502
     19 C         -31.0459   47.8399   -5.6729 C.ar    1  UNL1        0.0147
     20 C         -31.5840   46.6274   -5.2312 C.ar    1  UNL1        0.0036
     21 C         -31.4188   46.2303   -3.9021 C.ar    1  UNL1        0.0297
     22 C         -30.7121   47.0440   -3.0125 C.ar    1  UNL1        0.1414
     23 F         -30.5522   46.6575   -1.7227 F       1  UNL1       -0.2041
     24 C         -30.1712   48.2572   -3.4506 C.ar    1  UNL1        0.0441
     25 C         -21.2837   52.7713  -10.9414 C.3     1  UNL1        0.1535
     26 C         -20.4035   53.8834  -10.4294 C.2     1  UNL1        0.2443
     27 O         -19.8499   54.6685  -11.2470 O.2     1  UNL1       -0.2730
     28 N         -20.2216   54.0560   -9.0150 N.am    1  UNL1       -0.2825
     29 H         -20.4179   53.2385   -8.3941 H       1  UNL1        0.1549
     30 C         -19.7480   55.2672   -8.4022 C.ar    1  UNL1        0.0535
     31 C         -20.1484   56.5044   -8.9250 C.ar    1  UNL1        0.0353
     32 C         -19.6673   57.6852   -8.3547 C.ar    1  UNL1        0.1002
     33 N         -18.8014   57.6336   -7.3085 N.ar    1  UNL1       -0.2422
     34 C         -18.3790   56.4494   -6.7920 C.ar    1  UNL1        0.1002
     35 C         -18.8373   55.2451   -7.3317 C.ar    1  UNL1        0.0353
     36 C         -20.4544   51.4964  -11.1870 C.3     1  UNL1        0.0569
     37 C         -18.9792   51.7632  -11.0783 C.ar    1  UNL1       -0.0017
     38 C         -18.0990   51.9865  -12.1333 C.ar    1  UNL1        0.0681
     39 N         -16.8292   52.0796  -11.6775 N.ar    1  UNL1       -0.3523
     40 C         -16.8990   51.9074  -10.3460 C.ar    1  UNL1        0.0563
     41 C         -15.8401   51.8938   -9.4393 C.ar    1  UNL1        0.0170
     42 C         -16.1390   51.6692   -8.0829 C.ar    1  UNL1        0.0015
     43 C         -17.4736   51.4617   -7.6687 C.ar    1  UNL1        0.0001
     44 C         -18.5218   51.4778   -8.6068 C.ar    1  UNL1        0.0012
     45 C         -18.1948   51.7082   -9.9431 C.ar    1  UNL1        0.0131
     46 H         -15.9696   52.2332  -12.2500 H       1  UNL1        0.1660
@<TRIPOS>BOND
     1     1     2    2
     2     2     3   am
     3     3    25    1
     4    25    36    1
     5    36    37    1
     6    37    38   ar
     7    38    39   ar
     8    39    40   ar
     9    40    41   ar
    10    41    42   ar
    11    42    43   ar
    12    43    44   ar
    13    44    45   ar
    14    25    26    1
    15    26    27    2
    16    26    28   am
    17    28    30    1
    18    30    31   ar
    19    31    32   ar
    20    32    33   ar
    21    33    34   ar
    22    34    35   ar
    23     2     5    1
    24     5     6   ar
    25     6     7   ar
    26     7     8   ar
    27     8    12    1
    28    12    13    1
    29    13    14    1
    30    14    15    1
    31    15    18    1
    32    18    19   ar
    33    19    20   ar
    34    20    21   ar
    35    21    22   ar
    36    22    23    1
    37    22    24   ar
    38    15    16    1
    39    16    17    1
    40     8     9   ar
    41     9    10   ar
    42    10    11    1
    43    45    37   ar
    44    35    30   ar
    45    10     5   ar
    46    45    40   ar
    47    17    12    1
    48    24    18   ar
    49     3     4    1
    50    39    46    1
    51    28    29    1
@<TRIPOS>MOLECULE
*****
 46 51 0 0 0
SMALL
GASTEIGER

@<TRIPOS>ATOM
      1 O         -27.1106   48.7005   -9.0477 O.2     1  UNL1       -0.2701
      2 C         -27.0237   49.9566   -9.1273 C.2     1  UNL1        0.2483
      3 N         -28.2167   50.7567   -9.0960 N.am    1  UNL1       -0.2945
      4 H         -28.1569   51.7594   -9.3854 H       1  UNL1        0.1501
      5 C         -25.6913   50.5827   -9.2824 C.ar    1  UNL1        0.0808
      6 C         -25.2925   51.0612  -10.5414 C.ar    1  UNL1        0.0080
      7 C         -24.0409   51.6580  -10.7109 C.ar    1  UNL1        0.0148
      8 C         -23.1590   51.7822   -9.6261 C.ar    1  UNL1        0.0502
      9 C         -23.5445   51.2814   -8.3729 C.ar    1  UNL1        0.0443
     10 C         -24.7977   50.6853   -8.1985 C.ar    1  UNL1        0.1457
     11 F         -25.1099   50.1690   -6.9830 F       1  UNL1       -0.2040
     12 N         -21.8624   52.3839   -9.8055 N.pl3   1  UNL1       -0.3040
     13 C         -21.7146   53.5366  -10.7095 C.3     1  UNL1        0.1122
     14 C         -20.3333   54.1859  -10.5665 C.3     1  UNL1        0.1122
     15 N         -19.9730   54.2788   -9.1445 N.pl3   1  UNL1       -0.3040
     16 C         -20.0580   53.0814   -8.2919 C.3     1  UNL1        0.1122
     17 C         -20.7021   51.9078   -9.0388 C.3     1  UNL1        0.1122
     18 C         -19.6060   55.5432   -8.5597 C.ar    1  UNL1        0.0502
     19 C         -20.0515   56.7484   -9.1314 C.ar    1  UNL1        0.0147
     20 C         -19.7059   57.9743   -8.5550 C.ar    1  UNL1        0.0036
     21 C         -18.9169   58.0091   -7.4026 C.ar    1  UNL1        0.0297
     22 C         -18.4745   56.8172   -6.8226 C.ar    1  UNL1        0.1414
     23 F         -17.7088   56.8521   -5.7040 F       1  UNL1       -0.2041
     24 C         -18.8189   55.5886   -7.3955 C.ar    1  UNL1        0.0441
     25 C         -29.5218   50.1881   -8.7427 C.3     1  UNL1        0.1535
     26 C         -29.8077   48.9816   -9.6009 C.2     1  UNL1        0.2443
     27 O         -30.3721   47.9739   -9.0936 O.2     1  UNL1       -0.2730
     28 N         -29.4583   48.9978  -10.9941 N.am    1  UNL1       -0.2825
     29 H         -28.7338   49.6826  -11.3079 H       1  UNL1        0.1549
     30 C         -30.0106   48.1058  -11.9770 C.ar    1  UNL1        0.0535
     31 C         -29.5346   46.7899  -12.0558 C.ar    1  UNL1        0.0353
     32 C         -30.0440   45.9268  -13.0289 C.ar    1  UNL1        0.1002
     33 N         -30.9844   46.3669  -13.9058 N.ar    1  UNL1       -0.2422
     34 C         -31.4514   47.6427  -13.8675 C.ar    1  UNL1        0.1002
     35 C         -30.9700   48.5379  -12.9090 C.ar    1  UNL1        0.0353
     36 C         -29.5569   49.8089   -7.2499 C.3     1  UNL1        0.0569
     37 C         -28.6512   50.6864   -6.4319 C.ar    1  UNL1       -0.0017
     38 C         -28.3820   52.0337   -6.6554 C.ar    1  UNL1        0.0681
     39 N         -27.4378   52.4759   -5.7940 N.ar    1  UNL1       -0.3523
     40 C         -27.1020   51.4178   -5.0358 C.ar    1  UNL1        0.0563
     41 C         -26.1466   51.3746   -4.0214 C.ar    1  UNL1        0.0170
     42 C         -25.9356   50.1460   -3.3690 C.ar    1  UNL1        0.0015
     43 C         -26.6728   49.0006   -3.7436 C.ar    1  UNL1        0.0001
     44 C         -27.6286   49.0732   -4.7733 C.ar    1  UNL1        0.0012
     45 C         -27.8192   50.3061   -5.3975 C.ar    1  UNL1        0.0131
     46 H         -27.0386   53.4395   -5.7455 H       1  UNL1        0.1660
@<TRIPOS>BOND
     1     1     2    2
     2     2     3   am
     3     3    25    1
     4    25    36    1
     5    36    37    1
     6    37    38   ar
     7    38    39   ar
     8    39    40   ar
     9    40    41   ar
    10    41    42   ar
    11    42    43   ar
    12    43    44   ar
    13    44    45   ar
    14    25    26    1
    15    26    27    2
    16    26    28   am
    17    28    30    1
    18    30    31   ar
    19    31    32   ar
    20    32    33   ar
    21    33    34   ar
    22    34    35   ar
    23     2     5    1
    24     5     6   ar
    25     6     7   ar
    26     7     8   ar
    27     8    12    1
    28    12    13    1
    29    13    14    1
    30    14    15    1
    31    15    18    1
    32    18    19   ar
    33    19    20   ar
    34    20    21   ar
    35    21    22   ar
    36    22    23    1
    37    22    24   ar
    38    15    16    1
    39    16    17    1
    40     8     9   ar
    41     9    10   ar
    42    10    11    1
    43    45    37   ar
    44    35    30   ar
    45    10     5   ar
    46    45    40   ar
    47    17    12    1
    48    24    18   ar
    49     3     4    1
    50    39    46    1
    51    28    29    1
@<TRIPOS>MOLECULE
*****
 46 51 0 0 0
SMALL
GASTEIGER

@<TRIPOS>ATOM
      1 O         -24.2824   51.8635  -11.8433 O.2     1  UNL1       -0.2701
      2 C         -23.9826   51.8619  -10.6178 C.2     1  UNL1        0.2483
      3 N         -22.7698   52.4959  -10.1802 N.am    1  UNL1       -0.2945
      4 H         -22.4193   52.2982   -9.2154 H       1  UNL1        0.1501
      5 C         -24.8742   51.1778   -9.6543 C.ar    1  UNL1        0.0808
      6 C         -26.1923   50.8684  -10.0285 C.ar    1  UNL1        0.0080
      7 C         -27.0507   50.2208   -9.1367 C.ar    1  UNL1        0.0148
      8 C         -26.6108   49.8755   -7.8494 C.ar    1  UNL1        0.0502
      9 C         -25.3026   50.2069   -7.4639 C.ar    1  UNL1        0.0443
     10 C         -24.4393   50.8531   -8.3545 C.ar    1  UNL1        0.1457
     11 F         -23.2001   51.2005   -7.9241 F       1  UNL1       -0.2040
     12 N         -27.5018   49.2215   -6.9254 N.pl3   1  UNL1       -0.3040
     13 C         -27.8592   47.8089   -7.1363 C.3     1  UNL1        0.1122
     14 C         -28.5964   47.2314   -5.9226 C.3     1  UNL1        0.1122
     15 N         -27.9406   47.6771   -4.6848 N.pl3   1  UNL1       -0.3040
     16 C         -27.6736   49.1101   -4.4776 C.3     1  UNL1        0.1122
     17 C         -27.9966   49.9265   -5.7342 C.3     1  UNL1        0.1122
     18 C         -27.4926   46.7214   -3.7045 C.ar    1  UNL1        0.0502
     19 C         -28.4124   46.1081   -2.8353 C.ar    1  UNL1        0.0147
     20 C         -27.9779   45.1706   -1.8935 C.ar    1  UNL1        0.0036
     21 C         -26.6245   44.8340   -1.8127 C.ar    1  UNL1        0.0297
     22 C         -25.7030   45.4325   -2.6761 C.ar    1  UNL1        0.1414
     23 F         -24.3896   45.1051   -2.5970 F       1  UNL1       -0.2041
     24 C         -26.1336   46.3701   -3.6205 C.ar    1  UNL1        0.0441
     25 C         -21.9763   53.3487  -11.0715 C.3     1  UNL1        0.1535
     26 C         -21.6031   54.6271  -10.3643 C.2     1  UNL1        0.2443
     27 O         -22.5002   55.4651  -10.0739 O.2     1  UNL1       -0.2730
     28 N         -20.2339   54.8702  -10.0045 N.am    1  UNL1       -0.2825
     29 H         -19.4930   54.3391  -10.5157 H       1  UNL1        0.1549
     30 C         -19.8147   55.8261   -9.0158 C.ar    1  UNL1        0.0535
     31 C         -19.9612   57.1952   -9.2776 C.ar    1  UNL1        0.0353
     32 C         -19.5273   58.1304   -8.3352 C.ar    1  UNL1        0.1002
     33 N         -18.9501   57.7141   -7.1773 N.ar    1  UNL1       -0.2422
     34 C         -18.7760   56.3943   -6.9033 C.ar    1  UNL1        0.1002
     35 C         -19.1975   55.4260   -7.8180 C.ar    1  UNL1        0.0353
     36 C         -20.7126   52.6046  -11.5435 C.3     1  UNL1        0.0569
     37 C         -19.8504   52.1836  -10.3866 C.ar    1  UNL1       -0.0017
     38 C         -20.2575   52.0308   -9.0642 C.ar    1  UNL1        0.0681
     39 N         -19.1972   51.7507   -8.2729 N.ar    1  UNL1       -0.3523
     40 C         -18.1238   51.7349   -9.0821 C.ar    1  UNL1        0.0563
     41 C         -16.7957   51.5151   -8.7195 C.ar    1  UNL1        0.0170
     42 C         -15.8202   51.5696   -9.7319 C.ar    1  UNL1        0.0015
     43 C         -16.1894   51.8432  -11.0679 C.ar    1  UNL1        0.0001
     44 C         -17.5375   52.0640  -11.4040 C.ar    1  UNL1        0.0012
     45 C         -18.4820   51.9982  -10.3796 C.ar    1  UNL1        0.0131
     46 H         -19.2114   51.5988   -7.2399 H       1  UNL1        0.1660
@<TRIPOS>BOND
     1     1     2    2
     2     2     3   am
     3     3    25    1
     4    25    36    1
     5    36    37    1
     6    37    38   ar
     7    38    39   ar
     8    39    40   ar
     9    40    41   ar
    10    41    42   ar
    11    42    43   ar
    12    43    44   ar
    13    44    45   ar
    14    25    26    1
    15    26    27    2
    16    26    28   am
    17    28    30    1
    18    30    31   ar
    19    31    32   ar
    20    32    33   ar
    21    33    34   ar
    22    34    35   ar
    23     2     5    1
    24     5     6   ar
    25     6     7   ar
    26     7     8   ar
    27     8    12    1
    28    12    13    1
    29    13    14    1
    30    14    15    1
    31    15    18    1
    32    18    19   ar
    33    19    20   ar
    34    20    21   ar
    35    21    22   ar
    36    22    23    1
    37    22    24   ar
    38    15    16    1
    39    16    17    1
    40     8     9   ar
    41     9    10   ar
    42    10    11    1
    43    45    37   ar
    44    35    30   ar
    45    10     5   ar
    46    45    40   ar
    47    17    12    1
    48    24    18   ar
    49     3     4    1
    50    39    46    1
    51    28    29    1
@<TRIPOS>MOLECULE
*****
 46 51 0 0 0
SMALL
GASTEIGER

@<TRIPOS>ATOM
      1 O         -26.9604   48.3268   -8.8622 O.2     1  UNL1       -0.2701
      2 C         -27.0652   49.4984   -9.3183 C.2     1  UNL1        0.2483
      3 N         -28.3586   50.0094   -9.6792 N.am    1  UNL1       -0.2945
      4 H         -28.4120   50.8786  -10.2574 H       1  UNL1        0.1501
      5 C         -25.8454   50.3165   -9.5022 C.ar    1  UNL1        0.0808
      6 C         -25.4917   50.7546  -10.7892 C.ar    1  UNL1        0.0080
      7 C         -24.3465   51.5298  -10.9862 C.ar    1  UNL1        0.0148
      8 C         -23.5269   51.8771   -9.9010 C.ar    1  UNL1        0.0502
      9 C         -23.8636   51.4188   -8.6179 C.ar    1  UNL1        0.0443
     10 C         -25.0107   50.6445   -8.4160 C.ar    1  UNL1        0.1457
     11 F         -25.2716   50.1798   -7.1680 F       1  UNL1       -0.2040
     12 N         -22.3378   52.6637  -10.1077 N.pl3   1  UNL1       -0.3040
     13 C         -21.5139   53.0535   -8.9514 C.3     1  UNL1        0.1122
     14 C         -20.1753   53.6542   -9.3956 C.3     1  UNL1        0.1122
     15 N         -19.6164   52.8600  -10.4992 N.pl3   1  UNL1       -0.3040
     16 C         -20.4497   52.5603  -11.6754 C.3     1  UNL1        0.1122
     17 C         -21.8982   53.0160  -11.4654 C.3     1  UNL1        0.1122
     18 C         -18.2870   52.3121  -10.4114 C.ar    1  UNL1        0.0502
     19 C         -17.5003   52.1633  -11.5675 C.ar    1  UNL1        0.0147
     20 C         -16.2052   51.6440  -11.4790 C.ar    1  UNL1        0.0036
     21 C         -15.6825   51.2726  -10.2379 C.ar    1  UNL1        0.0297
     22 C         -16.4533   51.4226   -9.0820 C.ar    1  UNL1        0.1414
     23 F         -15.9450   51.0619   -7.8778 F       1  UNL1       -0.2041
     24 C         -17.7490   51.9427   -9.1660 C.ar    1  UNL1        0.0441
     25 C         -29.5961   49.3069   -9.3232 C.3     1  UNL1        0.1535
     26 C         -30.3184   50.0561   -8.2320 C.2     1  UNL1        0.2443
     27 O         -31.5073   50.4354   -8.4164 O.2     1  UNL1       -0.2730
     28 N         -29.6569   50.3105   -6.9826 N.am    1  UNL1       -0.2825
     29 H         -28.6125   50.2748   -6.9669 H       1  UNL1        0.1549
     30 C         -30.3364   50.6513   -5.7623 C.ar    1  UNL1        0.0535
     31 C         -30.7734   51.9680   -5.5633 C.ar    1  UNL1        0.0353
     32 C         -31.4062   52.3138   -4.3670 C.ar    1  UNL1        0.1002
     33 N         -31.5814   51.3813   -3.3939 N.ar    1  UNL1       -0.2422
     34 C         -31.1510   50.1015   -3.5490 C.ar    1  UNL1        0.1002
     35 C         -30.5149   49.7133   -4.7308 C.ar    1  UNL1        0.0353
     36 C         -30.5008   49.1505  -10.5604 C.3     1  UNL1        0.0569
     37 C         -30.2290   47.8642  -11.2889 C.ar    1  UNL1       -0.0017
     38 C         -29.6504   46.7169  -10.7537 C.ar    1  UNL1        0.0681
     39 N         -29.4550   45.7914  -11.7203 N.ar    1  UNL1       -0.3523
     40 C         -29.8960   46.3480  -12.8618 C.ar    1  UNL1        0.0563
     41 C         -29.8782   45.7860  -14.1376 C.ar    1  UNL1        0.0170
     42 C         -30.3698   46.5609  -15.2041 C.ar    1  UNL1        0.0015
     43 C         -30.8588   47.8663  -14.9748 C.ar    1  UNL1        0.0001
     44 C         -30.8616   48.4087  -13.6768 C.ar    1  UNL1        0.0012
     45 C         -30.3730   47.6145  -12.6393 C.ar    1  UNL1        0.0131
     46 H         -29.0284   44.8457  -11.6027 H       1  UNL1        0.1660
@<TRIPOS>BOND
     1     1     2    2
     2     2     3   am
     3     3    25    1
     4    25    36    1
     5    36    37    1
     6    37    38   ar
     7    38    39   ar
     8    39    40   ar
     9    40    41   ar
    10    41    42   ar
    11    42    43   ar
    12    43    44   ar
    13    44    45   ar
    14    25    26    1
    15    26    27    2
    16    26    28   am
    17    28    30    1
    18    30    31   ar
    19    31    32   ar
    20    32    33   ar
    21    33    34   ar
    22    34    35   ar
    23     2     5    1
    24     5     6   ar
    25     6     7   ar
    26     7     8   ar
    27     8    12    1
    28    12    13    1
    29    13    14    1
    30    14    15    1
    31    15    18    1
    32    18    19   ar
    33    19    20   ar
    34    20    21   ar
    35    21    22   ar
    36    22    23    1
    37    22    24   ar
    38    15    16    1
    39    16    17    1
    40     8     9   ar
    41     9    10   ar
    42    10    11    1
    43    45    37   ar
    44    35    30   ar
    45    10     5   ar
    46    45    40   ar
    47    17    12    1
    48    24    18   ar
    49     3     4    1
    50    39    46    1
    51    28    29    1
@<TRIPOS>MOLECULE
*****
 46 51 0 0 0
SMALL
GASTEIGER

@<TRIPOS>ATOM
      1 O         -24.0025   51.3533  -11.5962 O.2     1  UNL1       -0.2701
      2 C         -24.0408   51.7643  -10.4039 C.2     1  UNL1        0.2483
      3 N         -22.9751   52.5849   -9.8986 N.am    1  UNL1       -0.2945
      4 H         -22.8994   52.7305   -8.8663 H       1  UNL1        0.1501
      5 C         -25.1721   51.3666   -9.5361 C.ar    1  UNL1        0.0808
      6 C         -26.4897   51.5925   -9.9675 C.ar    1  UNL1        0.0080
      7 C         -27.5728   51.2231   -9.1664 C.ar    1  UNL1        0.0148
      8 C         -27.3607   50.6263   -7.9139 C.ar    1  UNL1        0.0502
      9 C         -26.0451   50.4233   -7.4691 C.ar    1  UNL1        0.0443
     10 C         -24.9579   50.7896   -8.2691 C.ar    1  UNL1        0.1457
     11 F         -23.7033   50.6225   -7.7795 F       1  UNL1       -0.2040
     12 N         -28.4784   50.2598   -7.0821 N.pl3   1  UNL1       -0.3040
     13 C         -29.0988   48.9340   -7.2406 C.3     1  UNL1        0.1122
     14 C         -30.0872   48.6399   -6.1064 C.3     1  UNL1        0.1122
     15 N         -29.5112   49.0655   -4.8227 N.pl3   1  UNL1       -0.3040
     16 C         -28.9735   50.4290   -4.6821 C.3     1  UNL1        0.1122
     17 C         -28.9565   51.1647   -6.0269 C.3     1  UNL1        0.1122
     18 C         -29.4022   48.1414   -3.7230 C.ar    1  UNL1        0.0502
     19 C         -29.1305   46.7820   -3.9592 C.ar    1  UNL1        0.0147
     20 C         -29.0115   45.8889   -2.8901 C.ar    1  UNL1        0.0036
     21 C         -29.1585   46.3437   -1.5774 C.ar    1  UNL1        0.0297
     22 C         -29.4220   47.6938   -1.3312 C.ar    1  UNL1        0.1414
     23 F         -29.5644   48.1343   -0.0567 F       1  UNL1       -0.2041
     24 C         -29.5407   48.5908   -2.3978 C.ar    1  UNL1        0.0441
     25 C         -21.9539   53.1586  -10.7814 C.3     1  UNL1        0.1535
     26 C         -21.4975   54.4914  -10.2437 C.2     1  UNL1        0.2443
     27 O         -22.3188   55.4451  -10.1588 O.2     1  UNL1       -0.2730
     28 N         -20.1386   54.6583   -9.8092 N.am    1  UNL1       -0.2825
     29 H         -19.4243   53.9862  -10.1706 H       1  UNL1        0.1549
     30 C         -19.6903   55.7138   -8.9421 C.ar    1  UNL1        0.0535
     31 C         -19.0333   55.3898   -7.7473 C.ar    1  UNL1        0.0353
     32 C         -18.6229   56.4089   -6.8847 C.ar    1  UNL1        0.1002
     33 N         -18.8753   57.7078   -7.1951 N.ar    1  UNL1       -0.2422
     34 C         -19.5278   58.0529   -8.3364 C.ar    1  UNL1        0.1002
     35 C         -19.9537   57.0647   -9.2275 C.ar    1  UNL1        0.0353
     36 C         -20.7597   52.1951  -10.9198 C.3     1  UNL1        0.0569
     37 C         -20.0212   52.0348   -9.6205 C.ar    1  UNL1       -0.0017
     38 C         -20.5638   52.1364   -8.3427 C.ar    1  UNL1        0.0681
     39 N         -19.5907   52.0468   -7.4078 N.ar    1  UNL1       -0.3523
     40 C         -18.4383   51.8994   -8.0842 C.ar    1  UNL1        0.0563
     41 C         -17.1543   51.7910   -7.5520 C.ar    1  UNL1        0.0170
     42 C         -16.0784   51.6694   -8.4505 C.ar    1  UNL1        0.0015
     43 C         -16.3071   51.6629   -9.8446 C.ar    1  UNL1        0.0001
     44 C         -17.6138   51.7770  -10.3532 C.ar    1  UNL1        0.0012
     45 C         -18.6601   51.8906   -9.4377 C.ar    1  UNL1        0.0131
     46 H         -19.7123   52.1025   -6.3722 H       1  UNL1        0.1660
@<TRIPOS>BOND
     1     1     2    2
     2     2     3   am
     3     3    25    1
     4    25    36    1
     5    36    37    1
     6    37    38   ar
     7    38    39   ar
     8    39    40   ar
     9    40    41   ar
    10    41    42   ar
    11    42    43   ar
    12    43    44   ar
    13    44    45   ar
    14    25    26    1
    15    26    27    2
    16    26    28   am
    17    28    30    1
    18    30    31   ar
    19    31    32   ar
    20    32    33   ar
    21    33    34   ar
    22    34    35   ar
    23     2     5    1
    24     5     6   ar
    25     6     7   ar
    26     7     8   ar
    27     8    12    1
    28    12    13    1
    29    13    14    1
    30    14    15    1
    31    15    18    1
    32    18    19   ar
    33    19    20   ar
    34    20    21   ar
    35    21    22   ar
    36    22    23    1
    37    22    24   ar
    38    15    16    1
    39    16    17    1
    40     8     9   ar
    41     9    10   ar
    42    10    11    1
    43    45    37   ar
    44    35    30   ar
    45    10     5   ar
    46    45    40   ar
    47    17    12    1
    48    24    18   ar
    49     3     4    1
    50    39    46    1
    51    28    29    1
@<TRIPOS>MOLECULE
*****
 46 51 0 0 0
SMALL
GASTEIGER

@<TRIPOS>ATOM
      1 O         -27.0843   48.5571   -8.3207 O.2     1  UNL1       -0.2701
      2 C         -27.0939   49.4703   -9.1912 C.2     1  UNL1        0.2483
      3 N         -28.2995   49.7439   -9.9234 N.am    1  UNL1       -0.2945
      4 H         -28.2416   50.3340  -10.7842 H       1  UNL1        0.1501
      5 C         -25.8501   50.2249   -9.4640 C.ar    1  UNL1        0.0808
      6 C         -25.4890   50.5101  -10.7912 C.ar    1  UNL1        0.0080
      7 C         -24.3211   51.2230  -11.0724 C.ar    1  UNL1        0.0148
      8 C         -23.4860   51.6594  -10.0322 C.ar    1  UNL1        0.0502
      9 C         -23.8307   51.3531   -8.7066 C.ar    1  UNL1        0.0443
     10 C         -25.0004   50.6417   -8.4207 C.ar    1  UNL1        0.1457
     11 F         -25.2697   50.3229   -7.1294 F       1  UNL1       -0.2040
     12 N         -22.2739   52.3812  -10.3242 N.pl3   1  UNL1       -0.3040
     13 C         -22.3538   53.7326  -10.9030 C.3     1  UNL1        0.1122
     14 C         -20.9862   54.4250  -10.8978 C.3     1  UNL1        0.1122
     15 N         -20.3112   54.1819   -9.6148 N.pl3   1  UNL1       -0.3040
     16 C         -20.1812   52.8050   -9.1098 C.3     1  UNL1        0.1122
     17 C         -20.9620   51.8140   -9.9806 C.3     1  UNL1        0.1122
     18 C         -19.8387   55.2810   -8.8123 C.ar    1  UNL1        0.0502
     19 C         -19.2337   55.0439   -7.5652 C.ar    1  UNL1        0.0147
     20 C         -18.7633   56.1107   -6.7937 C.ar    1  UNL1        0.0036
     21 C         -18.8885   57.4216   -7.2601 C.ar    1  UNL1        0.0297
     22 C         -19.4821   57.6679   -8.5010 C.ar    1  UNL1        0.1414
     23 F         -19.6031   58.9406   -8.9528 F       1  UNL1       -0.2041
     24 C         -19.9531   56.6034   -9.2765 C.ar    1  UNL1        0.0441
     25 C         -29.5887   49.1592   -9.5393 C.3     1  UNL1        0.1535
     26 C         -30.2253   49.9852   -8.4502 C.2     1  UNL1        0.2443
     27 O         -31.3411   50.5365   -8.6557 O.2     1  UNL1       -0.2730
     28 N         -29.5692   50.1179   -7.1793 N.am    1  UNL1       -0.2825
     29 H         -28.5417   49.9306   -7.1382 H       1  UNL1        0.1549
     30 C         -30.2260   50.5313   -5.9691 C.ar    1  UNL1        0.0535
     31 C         -30.4781   51.8932   -5.7544 C.ar    1  UNL1        0.0353
     32 C         -31.0874   52.3054   -4.5670 C.ar    1  UNL1        0.1002
     33 N         -31.4182   51.3913   -3.6172 N.ar    1  UNL1       -0.2422
     34 C         -31.1686   50.0661   -3.7875 C.ar    1  UNL1        0.1002
     35 C         -30.5624   49.6112   -4.9611 C.ar    1  UNL1        0.0353
     36 C         -30.5224   49.0659  -10.7613 C.3     1  UNL1        0.0569
     37 C         -30.2775   47.8124  -11.5537 C.ar    1  UNL1       -0.0017
     38 C         -29.6495   46.6561  -11.0995 C.ar    1  UNL1        0.0681
     39 N         -29.5011   45.7707  -12.1108 N.ar    1  UNL1       -0.3523
     40 C         -30.0208   46.3615  -13.2008 C.ar    1  UNL1        0.0563
     41 C         -30.0743   45.8476  -14.4957 C.ar    1  UNL1        0.0170
     42 C         -30.6431   46.6529  -15.4995 C.ar    1  UNL1        0.0015
     43 C         -31.1362   47.9403  -15.1908 C.ar    1  UNL1        0.0001
     44 C         -31.0661   48.4340  -13.8754 C.ar    1  UNL1        0.0012
     45 C         -30.5018   47.6104  -12.9012 C.ar    1  UNL1        0.0131
     46 H         -29.0539   44.8287  -12.0559 H       1  UNL1        0.1660
@<TRIPOS>BOND
     1     1     2    2
     2     2     3   am
     3     3    25    1
     4    25    36    1
     5    36    37    1
     6    37    38   ar
     7    38    39   ar
     8    39    40   ar
     9    40    41   ar
    10    41    42   ar
    11    42    43   ar
    12    43    44   ar
    13    44    45   ar
    14    25    26    1
    15    26    27    2
    16    26    28   am
    17    28    30    1
    18    30    31   ar
    19    31    32   ar
    20    32    33   ar
    21    33    34   ar
    22    34    35   ar
    23     2     5    1
    24     5     6   ar
    25     6     7   ar
    26     7     8   ar
    27     8    12    1
    28    12    13    1
    29    13    14    1
    30    14    15    1
    31    15    18    1
    32    18    19   ar
    33    19    20   ar
    34    20    21   ar
    35    21    22   ar
    36    22    23    1
    37    22    24   ar
    38    15    16    1
    39    16    17    1
    40     8     9   ar
    41     9    10   ar
    42    10    11    1
    43    45    37   ar
    44    35    30   ar
    45    10     5   ar
    46    45    40   ar
    47    17    12    1
    48    24    18   ar
    49     3     4    1
    50    39    46    1
    51    28    29    1
@<TRIPOS>MOLECULE
*****
 46 51 0 0 0
SMALL
GASTEIGER

@<TRIPOS>ATOM
      1 O         -22.5170   51.7510   -8.2687 O.2     1  UNL1       -0.2701
      2 C         -23.5140   51.6823   -9.0388 C.2     1  UNL1        0.2483
      3 N         -23.3853   52.0934  -10.4095 N.am    1  UNL1       -0.2945
      4 H         -24.2531   52.2464  -10.9717 H       1  UNL1        0.1501
      5 C         -24.8102   51.2064   -8.5056 C.ar    1  UNL1        0.0808
      6 C         -24.8562   50.0252   -7.7467 C.ar    1  UNL1        0.0080
      7 C         -26.0677   49.5584   -7.2313 C.ar    1  UNL1        0.0148
      8 C         -27.2599   50.2595   -7.4700 C.ar    1  UNL1        0.0502
      9 C         -27.2208   51.4258   -8.2498 C.ar    1  UNL1        0.0443
     10 C         -26.0095   51.8978   -8.7658 C.ar    1  UNL1        0.1457
     11 F         -26.0239   53.0005   -9.5566 F       1  UNL1       -0.2040
     12 N         -28.5110   49.7688   -6.9509 N.pl3   1  UNL1       -0.3040
     13 C         -28.5924   48.3949   -6.4279 C.3     1  UNL1        0.1122
     14 C         -29.9166   48.1533   -5.6944 C.3     1  UNL1        0.1122
     15 N         -30.2347   49.3129   -4.8488 N.pl3   1  UNL1       -0.3040
     16 C         -30.2205   50.6649   -5.4317 C.3     1  UNL1        0.1122
     17 C         -29.6854   50.6490   -6.8681 C.3     1  UNL1        0.1122
     18 C         -30.4905   49.1484   -3.4407 C.ar    1  UNL1        0.0502
     19 C         -31.3243   50.0519   -2.7580 C.ar    1  UNL1        0.0147
     20 C         -31.5825   49.8832   -1.3943 C.ar    1  UNL1        0.0036
     21 C         -31.0153   48.8111   -0.7011 C.ar    1  UNL1        0.0297
     22 C         -30.1907   47.9036   -1.3715 C.ar    1  UNL1        0.1414
     23 F         -29.6407   46.8633   -0.6977 F       1  UNL1       -0.2041
     24 C         -29.9306   48.0682   -2.7359 C.ar    1  UNL1        0.0441
     25 C         -22.0790   52.3743  -11.0145 C.3     1  UNL1        0.1535
     26 C         -21.5814   53.7243  -10.5631 C.2     1  UNL1        0.2443
     27 O         -22.2992   54.7462  -10.7415 O.2     1  UNL1       -0.2730
     28 N         -20.3059   53.8335   -9.9115 N.am    1  UNL1       -0.2825
     29 H         -19.6163   53.0615  -10.0557 H       1  UNL1        0.1549
     30 C         -19.9016   54.9547   -9.1075 C.ar    1  UNL1        0.0535
     31 C         -19.2228   54.7273   -7.9026 C.ar    1  UNL1        0.0353
     32 C         -18.8547   55.8102   -7.1006 C.ar    1  UNL1        0.1002
     33 N         -19.1690   57.0771   -7.4794 N.ar    1  UNL1       -0.2422
     34 C         -19.8439   57.3285   -8.6321 C.ar    1  UNL1        0.1002
     35 C         -20.2291   56.2743   -9.4640 C.ar    1  UNL1        0.0353
     36 C         -21.0664   51.2742  -10.6431 C.3     1  UNL1        0.0569
     37 C         -19.6867   51.5960  -11.1450 C.ar    1  UNL1       -0.0017
     38 C         -19.3165   51.8050  -12.4705 C.ar    1  UNL1        0.0681
     39 N         -17.9767   51.9610  -12.5679 N.ar    1  UNL1       -0.3523
     40 C         -17.4973   51.8426  -11.3175 C.ar    1  UNL1        0.0563
     41 C         -16.1640   51.9038  -10.9146 C.ar    1  UNL1        0.0170
     42 C         -15.8814   51.7262   -9.5478 C.ar    1  UNL1        0.0015
     43 C         -16.9254   51.4904   -8.6257 C.ar    1  UNL1        0.0001
     44 C         -18.2616   51.4308   -9.0615 C.ar    1  UNL1        0.0012
     45 C         -18.5107   51.6160  -10.4215 C.ar    1  UNL1        0.0131
     46 H         -17.4281   52.1199  -13.4420 H       1  UNL1        0.1660
@<TRIPOS>BOND
     1     1     2    2
     2     2     3   am
     3     3    25    1
     4    25    36    1
     5    36    37    1
     6    37    38   ar
     7    38    39   ar
     8    39    40   ar
     9    40    41   ar
    10    41    42   ar
    11    42    43   ar
    12    43    44   ar
    13    44    45   ar
    14    25    26    1
    15    26    27    2
    16    26    28   am
    17    28    30    1
    18    30    31   ar
    19    31    32   ar
    20    32    33   ar
    21    33    34   ar
    22    34    35   ar
    23     2     5    1
    24     5     6   ar
    25     6     7   ar
    26     7     8   ar
    27     8    12    1
    28    12    13    1
    29    13    14    1
    30    14    15    1
    31    15    18    1
    32    18    19   ar
    33    19    20   ar
    34    20    21   ar
    35    21    22   ar
    36    22    23    1
    37    22    24   ar
    38    15    16    1
    39    16    17    1
    40     8     9   ar
    41     9    10   ar
    42    10    11    1
    43    45    37   ar
    44    35    30   ar
    45    10     5   ar
    46    45    40   ar
    47    17    12    1
    48    24    18   ar
    49     3     4    1
    50    39    46    1
    51    28    29    1
@<TRIPOS>MOLECULE
*****
 46 51 0 0 0
SMALL
GASTEIGER

@<TRIPOS>ATOM
      1 O         -27.0715   48.0377   -9.9777 O.2     1  UNL1       -0.2701
      2 C         -27.0123   49.0954   -9.2925 C.2     1  UNL1        0.2483
      3 N         -28.1023   49.4432   -8.4234 N.am    1  UNL1       -0.2945
      4 H         -28.1482   50.4140   -8.0388 H       1  UNL1        0.1501
      5 C         -25.8300   49.9767   -9.4204 C.ar    1  UNL1        0.0808
      6 C         -25.4516   50.4498  -10.6878 C.ar    1  UNL1        0.0080
      7 C         -24.3410   51.2847  -10.8321 C.ar    1  UNL1        0.0148
      8 C         -23.5813   51.6582   -9.7127 C.ar    1  UNL1        0.0502
      9 C         -23.9416   51.1659   -8.4488 C.ar    1  UNL1        0.0443
     10 C         -25.0542   50.3317   -8.2996 C.ar    1  UNL1        0.1457
     11 F         -25.3372   49.8373   -7.0679 F       1  UNL1       -0.2040
     12 N         -22.4271   52.5069   -9.8649 N.pl3   1  UNL1       -0.3040
     13 C         -21.5600   52.7699   -8.7045 C.3     1  UNL1        0.1122
     14 C         -20.2626   53.4710   -9.1233 C.3     1  UNL1        0.1122
     15 N         -19.7348   52.8495  -10.3464 N.pl3   1  UNL1       -0.3040
     16 C         -20.6149   52.6780  -11.5142 C.3     1  UNL1        0.1122
     17 C         -22.0643   53.0504  -11.1816 C.3     1  UNL1        0.1122
     18 C         -18.3872   52.3423  -10.3912 C.ar    1  UNL1        0.0502
     19 C         -17.7118   52.2224  -11.6188 C.ar    1  UNL1        0.0147
     20 C         -16.3991   51.7428  -11.6593 C.ar    1  UNL1        0.0036
     21 C         -15.7479   51.3826  -10.4771 C.ar    1  UNL1        0.0297
     22 C         -16.4076   51.5042   -9.2511 C.ar    1  UNL1        0.1414
     23 F         -15.7745   51.1545   -8.1041 F       1  UNL1       -0.2041
     24 C         -17.7204   51.9846   -9.2061 C.ar    1  UNL1        0.0441
     25 C         -29.1851   48.5003   -8.1234 C.3     1  UNL1        0.1535
     26 C         -29.2473   48.2420   -6.6391 C.2     1  UNL1        0.2443
     27 O         -29.7883   47.1860   -6.2109 O.2     1  UNL1       -0.2730
     28 N         -28.6686   49.1873   -5.7254 N.am    1  UNL1       -0.2825
     29 H         -28.5189   50.1648   -6.0638 H       1  UNL1        0.1549
     30 C         -28.3202   48.8867   -4.3633 C.ar    1  UNL1        0.0535
     31 C         -26.9709   48.8807   -3.9842 C.ar    1  UNL1        0.0353
     32 C         -26.6226   48.5586   -2.6704 C.ar    1  UNL1        0.1002
     33 N         -27.5871   48.2360   -1.7688 N.ar    1  UNL1       -0.2422
     34 C         -28.9023   48.2136   -2.1111 C.ar    1  UNL1        0.1002
     35 C         -29.2939   48.5310   -3.4141 C.ar    1  UNL1        0.0353
     36 C         -30.5319   49.0483   -8.6326 C.3     1  UNL1        0.0569
     37 C         -30.5436   49.1927  -10.1286 C.ar    1  UNL1       -0.0017
     38 C         -30.8722   50.3392  -10.8464 C.ar    1  UNL1        0.0681
     39 N         -30.8846   50.0784  -12.1734 N.ar    1  UNL1       -0.3523
     40 C         -30.5764   48.7758  -12.2987 C.ar    1  UNL1        0.0563
     41 C         -30.4916   48.0375  -13.4783 C.ar    1  UNL1        0.0170
     42 C         -30.1775   46.6699  -13.3766 C.ar    1  UNL1        0.0015
     43 C         -29.9617   46.0769  -12.1126 C.ar    1  UNL1        0.0001
     44 C         -30.0569   46.8462  -10.9387 C.ar    1  UNL1        0.0012
     45 C         -30.3645   48.2003  -11.0720 C.ar    1  UNL1        0.0131
     46 H         -31.1092   50.7507  -12.9401 H       1  UNL1        0.1660
@<TRIPOS>BOND
     1     1     2    2
     2     2     3   am
     3     3    25    1
     4    25    36    1
     5    36    37    1
     6    37    38   ar
     7    38    39   ar
     8    39    40   ar
     9    40    41   ar
    10    41    42   ar
    11    42    43   ar
    12    43    44   ar
    13    44    45   ar
    14    25    26    1
    15    26    27    2
    16    26    28   am
    17    28    30    1
    18    30    31   ar
    19    31    32   ar
    20    32    33   ar
    21    33    34   ar
    22    34    35   ar
    23     2     5    1
    24     5     6   ar
    25     6     7   ar
    26     7     8   ar
    27     8    12    1
    28    12    13    1
    29    13    14    1
    30    14    15    1
    31    15    18    1
    32    18    19   ar
    33    19    20   ar
    34    20    21   ar
    35    21    22   ar
    36    22    23    1
    37    22    24   ar
    38    15    16    1
    39    16    17    1
    40     8     9   ar
    41     9    10   ar
    42    10    11    1
    43    45    37   ar
    44    35    30   ar
    45    10     5   ar
    46    45    40   ar
    47    17    12    1
    48    24    18   ar
    49     3     4    1
    50    39    46    1
    51    28    29    1
@<TRIPOS>MOLECULE
*****
 46 51 0 0 0
SMALL
GASTEIGER

@<TRIPOS>ATOM
      1 O         -29.0714   51.8294  -10.3505 O.2     1  UNL1       -0.2701
      2 C         -28.1878   50.9419  -10.1979 C.2     1  UNL1        0.2483
      3 N         -28.5795   49.5802   -9.9593 N.am    1  UNL1       -0.2945
      4 H         -27.8611   48.9039   -9.6140 H       1  UNL1        0.1501
      5 C         -26.7591   51.3270  -10.2373 C.ar    1  UNL1        0.0808
      6 C         -25.9509   50.8854  -11.2980 C.ar    1  UNL1        0.0080
      7 C         -24.6007   51.2386  -11.3573 C.ar    1  UNL1        0.0148
      8 C         -24.0287   52.0349  -10.3531 C.ar    1  UNL1        0.0502
      9 C         -24.8275   52.4558   -9.2786 C.ar    1  UNL1        0.0443
     10 C         -26.1803   52.1063   -9.2167 C.ar    1  UNL1        0.1457
     11 F         -26.9037   52.4914   -8.1349 F       1  UNL1       -0.2040
     12 N         -22.6325   52.3857  -10.4074 N.pl3   1  UNL1       -0.3040
     13 C         -22.2032   53.5381  -11.2169 C.3     1  UNL1        0.1122
     14 C         -20.7395   53.9008  -10.9415 C.3     1  UNL1        0.1122
     15 N         -20.4765   53.8417   -9.4965 N.pl3   1  UNL1       -0.3040
     16 C         -20.8487   52.6363   -8.7373 C.3     1  UNL1        0.1122
     17 C         -21.6433   51.6528   -9.6041 C.3     1  UNL1        0.1122
     18 C         -19.9241   54.9767   -8.8023 C.ar    1  UNL1        0.0502
     19 C         -19.2165   54.8008   -7.5998 C.ar    1  UNL1        0.0147
     20 C         -18.6693   55.9019   -6.9343 C.ar    1  UNL1        0.0036
     21 C         -18.8194   57.1861   -7.4634 C.ar    1  UNL1        0.0297
     22 C         -19.5148   57.3712   -8.6613 C.ar    1  UNL1        0.1414
     23 F         -19.6599   58.6181   -9.1740 F       1  UNL1       -0.2041
     24 C         -20.0630   56.2723   -9.3308 C.ar    1  UNL1        0.0441
     25 C         -29.9684   49.1351  -10.1150 C.3     1  UNL1        0.1535
     26 C         -30.0591   48.1034  -11.2110 C.2     1  UNL1        0.2443
     27 O         -30.2475   46.8919  -10.9144 O.2     1  UNL1       -0.2730
     28 N         -29.9554   48.5105  -12.5847 N.am    1  UNL1       -0.2825
     29 H         -29.4982   49.4279  -12.7889 H       1  UNL1        0.1549
     30 C         -30.4027   47.7195  -13.6988 C.ar    1  UNL1        0.0535
     31 C         -29.9837   46.3865  -13.8078 C.ar    1  UNL1        0.0353
     32 C         -30.3885   45.6212  -14.9039 C.ar    1  UNL1        0.1002
     33 N         -31.1710   46.1726  -15.8688 N.ar    1  UNL1       -0.2422
     34 C         -31.5772   47.4679  -15.8016 C.ar    1  UNL1        0.1002
     35 C         -31.1963   48.2677  -14.7212 C.ar    1  UNL1        0.0353
     36 C         -30.5012   48.5611   -8.7883 C.3     1  UNL1        0.0569
     37 C         -30.3975   49.5591   -7.6693 C.ar    1  UNL1       -0.0017
     38 C         -31.3794   50.4629   -7.2733 C.ar    1  UNL1        0.0681
     39 N         -30.9051   51.2831   -6.3084 N.ar    1  UNL1       -0.3523
     40 C         -29.6302   50.9116   -6.0989 C.ar    1  UNL1        0.0563
     41 C         -28.7187   51.4827   -5.2119 C.ar    1  UNL1        0.0170
     42 C         -27.4174   50.9492   -5.1724 C.ar    1  UNL1        0.0015
     43 C         -27.0594   49.8720   -6.0134 C.ar    1  UNL1        0.0001
     44 C         -27.9995   49.3176   -6.9010 C.ar    1  UNL1        0.0012
     45 C         -29.2828   49.8642   -6.9134 C.ar    1  UNL1        0.0131
     46 H         -31.4216   52.0598   -5.8391 H       1  UNL1        0.1660
@<TRIPOS>BOND
     1     1     2    2
     2     2     3   am
     3     3    25    1
     4    25    36    1
     5    36    37    1
     6    37    38   ar
     7    38    39   ar
     8    39    40   ar
     9    40    41   ar
    10    41    42   ar
    11    42    43   ar
    12    43    44   ar
    13    44    45   ar
    14    25    26    1
    15    26    27    2
    16    26    28   am
    17    28    30    1
    18    30    31   ar
    19    31    32   ar
    20    32    33   ar
    21    33    34   ar
    22    34    35   ar
    23     2     5    1
    24     5     6   ar
    25     6     7   ar
    26     7     8   ar
    27     8    12    1
    28    12    13    1
    29    13    14    1
    30    14    15    1
    31    15    18    1
    32    18    19   ar
    33    19    20   ar
    34    20    21   ar
    35    21    22   ar
    36    22    23    1
    37    22    24   ar
    38    15    16    1
    39    16    17    1
    40     8     9   ar
    41     9    10   ar
    42    10    11    1
    43    45    37   ar
    44    35    30   ar
    45    10     5   ar
    46    45    40   ar
    47    17    12    1
    48    24    18   ar
    49     3     4    1
    50    39    46    1
    51    28    29    1
