@<TRIPOS>MOLECULE
*****
 51 57 0 0 0
SMALL
GASTEIGER

@<TRIPOS>ATOM
      1 C          62.4751   84.8592   15.3257 C.ar    1  UNL1        0.0481
      2 C          63.7344   85.1003   14.7439 C.ar    1  UNL1        0.0176
      3 C          64.3158   84.1594   13.8912 C.ar    1  UNL1        0.0382
      4 C          63.6343   82.9744   13.5675 C.ar    1  UNL1        0.1388
      5 C          62.4020   82.7137   14.1747 C.ar    1  UNL1        0.0382
      6 C          61.8279   83.6421   15.0474 C.ar    1  UNL1        0.0176
      7 N          62.2976   88.4828   16.3081 N.pl3   1  UNL1       -0.3041
      8 C          60.8859   88.1626   16.0476 C.3     1  UNL1        0.1122
      9 C          60.7831   86.7216   15.5214 C.3     1  UNL1        0.1122
     10 N          61.8177   85.8649   16.1324 N.pl3   1  UNL1       -0.3041
     11 C          62.3534   86.2785   17.4389 C.3     1  UNL1        0.1122
     12 C          63.0184   87.6569   17.2950 C.3     1  UNL1        0.1122
     13 C          64.7189   90.8934   13.7538 C.ar    1  UNL1        0.0699
     14 C          64.4689   91.2843   15.0791 C.ar    1  UNL1        0.0190
     15 C          63.6494   90.5099   15.9051 C.ar    1  UNL1        0.0160
     16 C          63.0498   89.3370   15.4184 C.ar    1  UNL1        0.0480
     17 C          63.2585   88.9773   14.0747 C.ar    1  UNL1        0.0160
     18 C          64.0755   89.7527   13.2506 C.ar    1  UNL1        0.0190
     19 N          66.5606   92.7776   11.2675 N.ar    1  UNL1       -0.2024
     20 N          67.3719   92.9073   12.3072 N.ar    1  UNL1       -0.1442
     21 C          66.8178   92.1961   13.3132 C.ar    1  UNL1        0.2073
     22 N          65.6540   91.6204   12.9345 N.ar    1  UNL1       -0.2398
     23 C          65.5212   92.0185   11.6543 C.ar    1  UNL1        0.3522
     24 O          64.5266   91.7602   10.9251 O.2     1  UNL1       -0.2444
     25 C          66.7032   93.4987    9.9980 C.3     1  UNL1        0.1099
     26 C          66.0843   94.8925   10.1305 C.3     1  UNL1        0.0265
     27 C          68.7036   92.2679    9.0244 C.3     1  UNL1        0.0021
     28 C          68.1821   93.5941    9.5758 C.3     1  UNL1        0.0245
     29 O          64.1376   82.0347   12.6536 O.3     1  UNL1       -0.4727
     30 C          64.7458   82.3336   11.3949 C.3     1  UNL1        0.2374
     31 C          63.6853   82.5347   10.2993 C.3     1  UNL1        0.1909
     32 C          63.9136   83.7924    9.5156 C.3     1  UNL1        0.1783
     33 O          62.6494   84.2593    9.1730 O.3     1  UNL1       -0.3271
     34 C          61.7323   83.6134   10.0397 C.3     1  UNL1        0.2232
     35 O          62.4124   82.6712   10.8466 O.3     1  UNL1       -0.3258
     36 C          60.6515   82.9306    9.1924 C.ar    1  UNL1        0.0404
     37 C          60.6383   83.1754    7.8011 C.ar    1  UNL1        0.0021
     38 C          59.6911   82.5751    6.9712 C.ar    1  UNL1        0.0113
     39 C          58.7251   81.7292    7.5102 C.ar    1  UNL1        0.0585
     40 CL         57.5660   80.9375    6.4590 Cl      1  UNL1       -0.0822
     41 C          58.6836   81.5109    8.8867 C.ar    1  UNL1        0.0226
     42 C          59.6201   82.1132    9.7371 C.ar    1  UNL1        0.0591
     43 CL         59.4074   81.8279   11.4635 Cl      1  UNL1       -0.0824
     44 C          61.1137   84.6968   10.9494 C.3     1  UNL1        0.1338
     45 N          61.4772   86.0657   10.5063 N.3     1  UNL1       -0.2659
     46 C          60.5180   86.5812    9.4980 C.3     1  UNL1        0.0898
     47 C          60.5383   88.1107    9.4382 C.3     1  UNL1        0.0897
     48 N          60.0657   88.6876   10.7165 N.3     1  UNL1       -0.2691
     49 C          60.5089   90.0834   10.8432 C.3     1  UNL1        0.0897
     50 C          60.4481   87.8834   11.9051 C.3     1  UNL1        0.0897
     51 C          61.6822   87.0003   11.6461 C.3     1  UNL1        0.0898
@<TRIPOS>BOND
     1    27    28    1
     2    28    25    1
     3    25    26    1
     4    25    19    1
     5    19    20   ar
     6    20    21   ar
     7    21    22   ar
     8    22    13    1
     9    13    14   ar
    10    14    15   ar
    11    15    16   ar
    12    16     7    1
    13     7     8    1
    14     8     9    1
    15     9    10    1
    16    10     1    1
    17     1     2   ar
    18     2     3   ar
    19     3     4   ar
    20     4    29    1
    21    29    30    1
    22    30    31    1
    23    31    32    1
    24    32    33    1
    25    33    34    1
    26    34    44    1
    27    44    45    1
    28    45    46    1
    29    46    47    1
    30    47    48    1
    31    48    49    1
    32    48    50    1
    33    50    51    1
    34    34    36    1
    35    36    37   ar
    36    37    38   ar
    37    38    39   ar
    38    39    40    1
    39    39    41   ar
    40    41    42   ar
    41    42    43    1
    42    34    35    1
    43     4     5   ar
    44     5     6   ar
    45    10    11    1
    46    11    12    1
    47    16    17   ar
    48    17    18   ar
    49    22    23   ar
    50    23    24    2
    51    23    19   ar
    52    18    13   ar
    53    12     7    1
    54     6     1   ar
    55    35    31    1
    56    51    45    1
    57    42    36   ar
@<TRIPOS>MOLECULE
*****
 51 57 0 0 0
SMALL
GASTEIGER

@<TRIPOS>ATOM
      1 C          62.7817   85.0909   15.3850 C.ar    1  UNL1        0.0481
      2 C          63.7917   85.5019   14.4942 C.ar    1  UNL1        0.0176
      3 C          64.4546   84.5705   13.6920 C.ar    1  UNL1        0.0382
      4 C          64.0954   83.2129   13.7313 C.ar    1  UNL1        0.1388
      5 C          63.1211   82.7957   14.6433 C.ar    1  UNL1        0.0382
      6 C          62.4722   83.7215   15.4650 C.ar    1  UNL1        0.0176
      7 N          62.0855   88.7201   16.0716 N.pl3   1  UNL1       -0.3041
      8 C          60.7302   88.1635   15.9419 C.3     1  UNL1        0.1122
      9 C          60.8283   86.6809   15.5466 C.3     1  UNL1        0.1122
     10 N          62.0204   86.0547   16.1504 N.pl3   1  UNL1       -0.3041
     11 C          62.5586   86.6667   17.3756 C.3     1  UNL1        0.1122
     12 C          62.9853   88.1113   17.0692 C.3     1  UNL1        0.1122
     13 C          63.8902   91.1327   13.0516 C.ar    1  UNL1        0.0699
     14 C          64.2988   91.2399   14.3907 C.ar    1  UNL1        0.0190
     15 C          63.6847   90.4719   15.3840 C.ar    1  UNL1        0.0160
     16 C          62.6382   89.5925   15.0616 C.ar    1  UNL1        0.0480
     17 C          62.1950   89.5277   13.7283 C.ar    1  UNL1        0.0160
     18 C          62.8080   90.2967   12.7379 C.ar    1  UNL1        0.0190
     19 N          66.1718   92.8926   10.8560 N.ar    1  UNL1       -0.2024
     20 N          65.2441   92.5259    9.9836 N.ar    1  UNL1       -0.1442
     21 C          64.2868   91.8880   10.6918 C.ar    1  UNL1        0.2073
     22 N          64.5948   91.8309   12.0075 N.ar    1  UNL1       -0.2398
     23 C          65.7861   92.4573   12.0675 C.ar    1  UNL1        0.3522
     24 O          66.4793   92.5758   13.1131 O.2     1  UNL1       -0.2444
     25 C          67.4620   93.4953   10.5038 C.3     1  UNL1        0.1099
     26 C          68.2129   92.5691    9.5438 C.3     1  UNL1        0.0265
     27 C          67.5661   94.8912    8.3813 C.3     1  UNL1        0.0021
     28 C          67.2718   94.8917    9.8807 C.3     1  UNL1        0.0245
     29 O          64.6734   82.2501   12.8884 O.3     1  UNL1       -0.4727
     30 C          63.9967   81.1347   12.3039 C.3     1  UNL1        0.2374
     31 C          63.3060   81.5311   10.9882 C.3     1  UNL1        0.1909
     32 C          64.0827   82.5671   10.2320 C.3     1  UNL1        0.1783
     33 O          63.1347   83.3582    9.5924 O.3     1  UNL1       -0.3271
     34 C          61.9013   83.1205   10.2494 C.3     1  UNL1        0.2232
     35 O          62.0611   82.1081   11.2244 O.3     1  UNL1       -0.3258
     36 C          60.8566   82.7138    9.2029 C.ar    1  UNL1        0.0404
     37 C          60.0866   81.5537    9.4420 C.ar    1  UNL1        0.0021
     38 C          59.1100   81.1360    8.5375 C.ar    1  UNL1        0.0113
     39 C          58.8885   81.8554    7.3661 C.ar    1  UNL1        0.0585
     40 CL         57.6274   81.3564    6.2543 Cl      1  UNL1       -0.0822
     41 C          59.6693   82.9748    7.0807 C.ar    1  UNL1        0.0226
     42 C          60.6616   83.4034    7.9720 C.ar    1  UNL1        0.0591
     43 CL         61.6374   84.7777    7.4559 Cl      1  UNL1       -0.0824
     44 C          61.4916   84.4324   10.9532 C.3     1  UNL1        0.1338
     45 N          60.0259   84.5087   11.1727 N.3     1  UNL1       -0.2659
     46 C          59.6522   84.0004   12.5160 C.3     1  UNL1        0.0898
     47 C          58.2966   84.5519   12.9649 C.3     1  UNL1        0.0897
     48 N          58.3639   86.0200   13.1386 N.3     1  UNL1       -0.2691
     49 C          57.0144   86.6018   13.1074 C.3     1  UNL1        0.0897
     50 C          59.2692   86.6889   12.1697 C.3     1  UNL1        0.0897
     51 C          59.4746   85.8613   10.8879 C.3     1  UNL1        0.0898
@<TRIPOS>BOND
     1    27    28    1
     2    28    25    1
     3    25    26    1
     4    25    19    1
     5    19    20   ar
     6    20    21   ar
     7    21    22   ar
     8    22    13    1
     9    13    14   ar
    10    14    15   ar
    11    15    16   ar
    12    16     7    1
    13     7     8    1
    14     8     9    1
    15     9    10    1
    16    10     1    1
    17     1     2   ar
    18     2     3   ar
    19     3     4   ar
    20     4    29    1
    21    29    30    1
    22    30    31    1
    23    31    32    1
    24    32    33    1
    25    33    34    1
    26    34    44    1
    27    44    45    1
    28    45    46    1
    29    46    47    1
    30    47    48    1
    31    48    49    1
    32    48    50    1
    33    50    51    1
    34    34    36    1
    35    36    37   ar
    36    37    38   ar
    37    38    39   ar
    38    39    40    1
    39    39    41   ar
    40    41    42   ar
    41    42    43    1
    42    34    35    1
    43     4     5   ar
    44     5     6   ar
    45    10    11    1
    46    11    12    1
    47    16    17   ar
    48    17    18   ar
    49    22    23   ar
    50    23    24    2
    51    23    19   ar
    52    18    13   ar
    53    12     7    1
    54     6     1   ar
    55    35    31    1
    56    51    45    1
    57    42    36   ar
@<TRIPOS>MOLECULE
*****
 51 57 0 0 0
SMALL
GASTEIGER

@<TRIPOS>ATOM
      1 C          60.7759   80.3347   12.0536 C.ar    1  UNL1        0.0481
      2 C          60.2189   81.2556   12.9614 C.ar    1  UNL1        0.0176
      3 C          60.9174   81.6326   14.1105 C.ar    1  UNL1        0.0382
      4 C          62.2056   81.1297   14.3582 C.ar    1  UNL1        0.1388
      5 C          62.7448   80.1849   13.4798 C.ar    1  UNL1        0.0382
      6 C          62.0387   79.7870   12.3412 C.ar    1  UNL1        0.0176
      7 N          58.8237   81.6058    9.1039 N.pl3   1  UNL1       -0.3041
      8 C          59.8381   80.7562    8.4616 C.3     1  UNL1        0.1122
      9 C          60.8081   80.2298    9.5321 C.3     1  UNL1        0.1122
     10 N          60.1074   80.0092   10.8120 N.pl3   1  UNL1       -0.3041
     11 C          58.6572   79.7664   10.7561 C.3     1  UNL1        0.1122
     12 C          57.9669   80.9917   10.1356 C.3     1  UNL1        0.1122
     13 C          59.1576   85.8530    8.8858 C.ar    1  UNL1        0.0699
     14 C          58.5008   85.2425    9.9663 C.ar    1  UNL1        0.0190
     15 C          58.3642   83.8525   10.0205 C.ar    1  UNL1        0.0160
     16 C          58.8673   83.0451    8.9875 C.ar    1  UNL1        0.0480
     17 C          59.4765   83.6632    7.8806 C.ar    1  UNL1        0.0160
     18 C          59.6103   85.0515    7.8271 C.ar    1  UNL1        0.0190
     19 N          60.0256   89.3190    9.4839 N.ar    1  UNL1       -0.2024
     20 N          59.8512   89.3451    8.1705 N.ar    1  UNL1       -0.1442
     21 C          59.4683   88.0999    7.8128 C.ar    1  UNL1        0.2073
     22 N          59.4059   87.2717    8.8801 N.ar    1  UNL1       -0.2398
     23 C          59.7743   88.0671    9.9032 C.ar    1  UNL1        0.3522
     24 O          59.9185   87.6798   11.0936 O.2     1  UNL1       -0.2444
     25 C          60.5760   90.4226   10.2783 C.3     1  UNL1        0.1099
     26 C          59.6713   90.6832   11.4853 C.3     1  UNL1        0.0265
     27 C          63.0077   91.1624   10.2171 C.3     1  UNL1        0.0021
     28 C          62.0173   90.1179   10.7300 C.3     1  UNL1        0.0245
     29 O          62.9821   81.5381   15.4545 O.3     1  UNL1       -0.4727
     30 C          63.6137   82.8117   15.6051 C.3     1  UNL1        0.2374
     31 C          63.9478   83.4312   14.2376 C.3     1  UNL1        0.1909
     32 C          65.0346   84.4597   14.3334 C.3     1  UNL1        0.1783
     33 O          64.7352   85.4171   13.3705 O.3     1  UNL1       -0.3271
     34 C          63.3701   85.2372   13.0335 C.3     1  UNL1        0.2232
     35 O          62.8518   84.1062   13.7069 O.3     1  UNL1       -0.3258
     36 C          63.2563   85.0699   11.5132 C.ar    1  UNL1        0.0404
     37 C          62.6107   86.0866   10.7748 C.ar    1  UNL1        0.0021
     38 C          62.4856   86.0032    9.3878 C.ar    1  UNL1        0.0113
     39 C          62.9869   84.8975    8.7058 C.ar    1  UNL1        0.0585
     40 CL         62.8720   84.8177    6.9577 Cl      1  UNL1       -0.0822
     41 C          63.5830   83.8557    9.4155 C.ar    1  UNL1        0.0226
     42 C          63.7083   83.9170   10.8095 C.ar    1  UNL1        0.0591
     43 CL         64.4004   82.4997   11.5967 Cl      1  UNL1       -0.0824
     44 C          62.6074   86.4937   13.5062 C.3     1  UNL1        0.1338
     45 N          63.5101   87.4802   14.1499 N.3     1  UNL1       -0.2659
     46 C          63.5865   88.7373   13.3648 C.3     1  UNL1        0.0898
     47 C          64.0382   89.9130   14.2349 C.3     1  UNL1        0.0897
     48 N          63.0338   90.2005   15.2830 N.3     1  UNL1       -0.2691
     49 C          63.6399   90.9774   16.3738 C.3     1  UNL1        0.0897
     50 C          62.3480   88.9861   15.7936 C.3     1  UNL1        0.0897
     51 C          63.1798   87.7079   15.5829 C.3     1  UNL1        0.0898
@<TRIPOS>BOND
     1    27    28    1
     2    28    25    1
     3    25    26    1
     4    25    19    1
     5    19    20   ar
     6    20    21   ar
     7    21    22   ar
     8    22    13    1
     9    13    14   ar
    10    14    15   ar
    11    15    16   ar
    12    16     7    1
    13     7     8    1
    14     8     9    1
    15     9    10    1
    16    10     1    1
    17     1     2   ar
    18     2     3   ar
    19     3     4   ar
    20     4    29    1
    21    29    30    1
    22    30    31    1
    23    31    32    1
    24    32    33    1
    25    33    34    1
    26    34    44    1
    27    44    45    1
    28    45    46    1
    29    46    47    1
    30    47    48    1
    31    48    49    1
    32    48    50    1
    33    50    51    1
    34    34    36    1
    35    36    37   ar
    36    37    38   ar
    37    38    39   ar
    38    39    40    1
    39    39    41   ar
    40    41    42   ar
    41    42    43    1
    42    34    35    1
    43     4     5   ar
    44     5     6   ar
    45    10    11    1
    46    11    12    1
    47    16    17   ar
    48    17    18   ar
    49    22    23   ar
    50    23    24    2
    51    23    19   ar
    52    18    13   ar
    53    12     7    1
    54     6     1   ar
    55    35    31    1
    56    51    45    1
    57    42    36   ar
@<TRIPOS>MOLECULE
*****
 51 57 0 0 0
SMALL
GASTEIGER

@<TRIPOS>ATOM
      1 C          60.7804   85.9874    9.2243 C.ar    1  UNL1        0.0481
      2 C          60.1383   84.7410    9.3536 C.ar    1  UNL1        0.0176
      3 C          60.8836   83.5672    9.4846 C.ar    1  UNL1        0.0382
      4 C          62.2868   83.6159    9.5307 C.ar    1  UNL1        0.1388
      5 C          62.9283   84.8469    9.3625 C.ar    1  UNL1        0.0382
      6 C          62.1862   86.0209    9.2071 C.ar    1  UNL1        0.0176
      7 N          60.5366   89.5674   10.3432 N.pl3   1  UNL1       -0.3041
      8 C          60.2598   89.6731    8.9025 C.3     1  UNL1        0.1122
      9 C          60.4265   88.2897    8.2527 C.3     1  UNL1        0.1122
     10 N          60.0228   87.2199    9.1856 N.pl3   1  UNL1       -0.3041
     11 C          59.0682   87.5735   10.2480 C.3     1  UNL1        0.1122
     12 C          59.6902   88.6597   11.1403 C.3     1  UNL1        0.1122
     13 C          64.0725   91.2227   12.0622 C.ar    1  UNL1        0.0699
     14 C          63.7808   91.4166   10.7024 C.ar    1  UNL1        0.0190
     15 C          62.6384   90.8470   10.1331 C.ar    1  UNL1        0.0160
     16 C          61.7724   90.0582   10.9079 C.ar    1  UNL1        0.0480
     17 C          62.0962   89.8213   12.2559 C.ar    1  UNL1        0.0160
     18 C          63.2384   90.3892   12.8223 C.ar    1  UNL1        0.0190
     19 N          66.9307   92.3661   13.9719 N.ar    1  UNL1       -0.2024
     20 N          66.9184   93.2720   13.0048 N.ar    1  UNL1       -0.1442
     21 C          65.8490   92.9869   12.2302 C.ar    1  UNL1        0.2073
     22 N          65.1810   91.9014   12.6825 N.ar    1  UNL1       -0.2398
     23 C          65.8957   91.5344   13.7640 C.ar    1  UNL1        0.3522
     24 O          65.6605   90.5128   14.4631 O.2     1  UNL1       -0.2444
     25 C          68.0010   92.2133   14.9635 C.3     1  UNL1        0.1099
     26 C          69.3594   92.2593   14.2594 C.3     1  UNL1        0.0265
     27 C          69.1816   94.1471   16.1171 C.3     1  UNL1        0.0021
     28 C          67.9108   93.3011   16.0511 C.3     1  UNL1        0.0245
     29 O          63.0794   82.4762    9.7421 O.3     1  UNL1       -0.4727
     30 C          64.3826   82.4599   10.3293 C.3     1  UNL1        0.2374
     31 C          64.3717   83.1083   11.7239 C.3     1  UNL1        0.1909
     32 C          64.8076   82.1534   12.7947 C.3     1  UNL1        0.1783
     33 O          64.0774   82.4963   13.9273 O.3     1  UNL1       -0.3271
     34 C          62.9810   83.2755   13.4798 C.3     1  UNL1        0.2232
     35 O          63.0873   83.5036   12.0877 O.3     1  UNL1       -0.3258
     36 C          62.9703   84.5999   14.2531 C.ar    1  UNL1        0.0404
     37 C          63.8292   84.7312   15.3670 C.ar    1  UNL1        0.0021
     38 C          63.8787   85.9140   16.1053 C.ar    1  UNL1        0.0113
     39 C          63.0621   86.9880   15.7607 C.ar    1  UNL1        0.0585
     40 CL         63.1612   88.4904   16.6599 Cl      1  UNL1       -0.0822
     41 C          62.1682   86.8673   14.6974 C.ar    1  UNL1        0.0226
     42 C          62.0971   85.6838   13.9509 C.ar    1  UNL1        0.0591
     43 CL         60.8668   85.6262   12.6898 Cl      1  UNL1       -0.0824
     44 C          61.6951   82.4672   13.7575 C.3     1  UNL1        0.1338
     45 N          61.0660   81.9799   12.5049 N.3     1  UNL1       -0.2659
     46 C          61.4944   80.5950   12.1869 C.3     1  UNL1        0.0898
     47 C          60.4924   79.8985   11.2626 C.3     1  UNL1        0.0897
     48 N          59.1891   79.7277   11.9425 N.3     1  UNL1       -0.2691
     49 C          58.1224   79.5039   10.9562 C.3     1  UNL1        0.0897
     50 C          58.8537   80.8416   12.8659 C.3     1  UNL1        0.0897
     51 C          59.5871   82.1462   12.5052 C.3     1  UNL1        0.0898
@<TRIPOS>BOND
     1    27    28    1
     2    28    25    1
     3    25    26    1
     4    25    19    1
     5    19    20   ar
     6    20    21   ar
     7    21    22   ar
     8    22    13    1
     9    13    14   ar
    10    14    15   ar
    11    15    16   ar
    12    16     7    1
    13     7     8    1
    14     8     9    1
    15     9    10    1
    16    10     1    1
    17     1     2   ar
    18     2     3   ar
    19     3     4   ar
    20     4    29    1
    21    29    30    1
    22    30    31    1
    23    31    32    1
    24    32    33    1
    25    33    34    1
    26    34    44    1
    27    44    45    1
    28    45    46    1
    29    46    47    1
    30    47    48    1
    31    48    49    1
    32    48    50    1
    33    50    51    1
    34    34    36    1
    35    36    37   ar
    36    37    38   ar
    37    38    39   ar
    38    39    40    1
    39    39    41   ar
    40    41    42   ar
    41    42    43    1
    42    34    35    1
    43     4     5   ar
    44     5     6   ar
    45    10    11    1
    46    11    12    1
    47    16    17   ar
    48    17    18   ar
    49    22    23   ar
    50    23    24    2
    51    23    19   ar
    52    18    13   ar
    53    12     7    1
    54     6     1   ar
    55    35    31    1
    56    51    45    1
    57    42    36   ar
@<TRIPOS>MOLECULE
*****
 51 57 0 0 0
SMALL
GASTEIGER

@<TRIPOS>ATOM
      1 C          62.6313   89.4328   13.6470 C.ar    1  UNL1        0.0481
      2 C          63.9474   88.9352   13.6993 C.ar    1  UNL1        0.0176
      3 C          64.3062   87.9714   14.6442 C.ar    1  UNL1        0.0382
      4 C          63.3486   87.4526   15.5315 C.ar    1  UNL1        0.1388
      5 C          62.0511   87.9732   15.5088 C.ar    1  UNL1        0.0382
      6 C          61.6943   88.9552   14.5805 C.ar    1  UNL1        0.0176
      7 N          61.6455   89.8959   10.0496 N.pl3   1  UNL1       -0.3041
      8 C          60.6005   90.6512   10.7572 C.3     1  UNL1        0.1122
      9 C          60.7899   90.4776   12.2731 C.3     1  UNL1        0.1122
     10 N          62.2210   90.3582   12.6128 N.pl3   1  UNL1       -0.3041
     11 C          63.1900   90.9492   11.6763 C.3     1  UNL1        0.1122
     12 C          63.0511   90.2600   10.3093 C.3     1  UNL1        0.1122
     13 C          60.6980   86.1177    8.3104 C.ar    1  UNL1        0.0699
     14 C          61.9625   86.3468    8.8761 C.ar    1  UNL1        0.0190
     15 C          62.2826   87.5953    9.4170 C.ar    1  UNL1        0.0160
     16 C          61.3506   88.6455    9.3891 C.ar    1  UNL1        0.0480
     17 C          60.1048   88.4288    8.7732 C.ar    1  UNL1        0.0160
     18 C          59.7875   87.1821    8.2318 C.ar    1  UNL1        0.0190
     19 N          59.2741   82.8540    7.6433 N.ar    1  UNL1       -0.2024
     20 N          59.9972   83.0223    6.5456 N.ar    1  UNL1       -0.1442
     21 C          60.6342   84.2051    6.6873 C.ar    1  UNL1        0.2073
     22 N          60.3195   84.8036    7.8586 N.ar    1  UNL1       -0.2398
     23 C          59.4571   83.9347    8.4210 C.ar    1  UNL1        0.3522
     24 O          58.8549   84.1294    9.5106 O.2     1  UNL1       -0.2444
     25 C          58.3137   81.7656    7.8555 C.3     1  UNL1        0.1099
     26 C          58.0339   81.0650    6.5236 C.3     1  UNL1        0.0265
     27 C          58.0787   80.8800   10.2272 C.3     1  UNL1        0.0021
     28 C          58.8329   80.7623    8.9035 C.3     1  UNL1        0.0245
     29 O          63.6375   86.4259   16.4448 O.3     1  UNL1       -0.4727
     30 C          63.0063   85.1440   16.4906 C.3     1  UNL1        0.2374
     31 C          63.3108   84.3293   15.2221 C.3     1  UNL1        0.1909
     32 C          64.3683   84.9737   14.3768 C.3     1  UNL1        0.1783
     33 O          64.0333   84.6765   13.0604 O.3     1  UNL1       -0.3271
     34 C          62.6711   84.2843   13.0695 C.3     1  UNL1        0.2232
     35 O          62.1914   84.2371   14.3995 O.3     1  UNL1       -0.3258
     36 C          62.5492   82.9129   12.3938 C.ar    1  UNL1        0.0404
     37 C          61.9224   81.8681   13.1088 C.ar    1  UNL1        0.0021
     38 C          61.7666   80.6006   12.5471 C.ar    1  UNL1        0.0113
     39 C          62.2459   80.3400   11.2659 C.ar    1  UNL1        0.0585
     40 CL         62.0057   78.7603   10.5430 Cl      1  UNL1       -0.0822
     41 C          62.9141   81.3383   10.5582 C.ar    1  UNL1        0.0226
     42 C          63.0891   82.6142   11.1101 C.ar    1  UNL1        0.0591
     43 CL         64.0256   83.7599   10.1522 Cl      1  UNL1       -0.0824
     44 C          61.8765   85.3535   12.2888 C.3     1  UNL1        0.1338
     45 N          60.7604   85.9107   13.0926 N.3     1  UNL1       -0.2659
     46 C          60.1015   87.0419   12.3934 C.3     1  UNL1        0.0898
     47 C          58.6772   87.2639   12.9087 C.3     1  UNL1        0.0897
     48 N          57.8228   86.0968   12.5955 N.3     1  UNL1       -0.2691
     49 C          56.6339   86.0859   13.4599 C.3     1  UNL1        0.0897
     50 C          58.5483   84.8020   12.6487 C.3     1  UNL1        0.0897
     51 C          59.8010   84.8653   13.5412 C.3     1  UNL1        0.0898
@<TRIPOS>BOND
     1    27    28    1
     2    28    25    1
     3    25    26    1
     4    25    19    1
     5    19    20   ar
     6    20    21   ar
     7    21    22   ar
     8    22    13    1
     9    13    14   ar
    10    14    15   ar
    11    15    16   ar
    12    16     7    1
    13     7     8    1
    14     8     9    1
    15     9    10    1
    16    10     1    1
    17     1     2   ar
    18     2     3   ar
    19     3     4   ar
    20     4    29    1
    21    29    30    1
    22    30    31    1
    23    31    32    1
    24    32    33    1
    25    33    34    1
    26    34    44    1
    27    44    45    1
    28    45    46    1
    29    46    47    1
    30    47    48    1
    31    48    49    1
    32    48    50    1
    33    50    51    1
    34    34    36    1
    35    36    37   ar
    36    37    38   ar
    37    38    39   ar
    38    39    40    1
    39    39    41   ar
    40    41    42   ar
    41    42    43    1
    42    34    35    1
    43     4     5   ar
    44     5     6   ar
    45    10    11    1
    46    11    12    1
    47    16    17   ar
    48    17    18   ar
    49    22    23   ar
    50    23    24    2
    51    23    19   ar
    52    18    13   ar
    53    12     7    1
    54     6     1   ar
    55    35    31    1
    56    51    45    1
    57    42    36   ar
@<TRIPOS>MOLECULE
*****
 51 57 0 0 0
SMALL
GASTEIGER

@<TRIPOS>ATOM
      1 C          58.2638   82.4148    9.9686 C.ar    1  UNL1        0.0481
      2 C          58.1695   83.0141   11.2392 C.ar    1  UNL1        0.0176
      3 C          58.2094   82.2351   12.3976 C.ar    1  UNL1        0.0382
      4 C          58.3857   80.8438   12.3147 C.ar    1  UNL1        0.1388
      5 C          58.4395   80.2413   11.0541 C.ar    1  UNL1        0.0382
      6 C          58.3757   81.0151    9.8920 C.ar    1  UNL1        0.0176
      7 N          59.2311   85.6998    8.4191 N.pl3   1  UNL1       -0.3041
      8 C          59.8021   84.7301    7.4720 C.3     1  UNL1        0.1122
      9 C          59.5895   83.3075    8.0152 C.3     1  UNL1        0.1122
     10 N          58.3217   83.2162    8.7649 N.pl3   1  UNL1       -0.3041
     11 C          57.2678   84.1878    8.4324 C.3     1  UNL1        0.1122
     12 C          57.7881   85.6073    8.7104 C.3     1  UNL1        0.1122
     13 C          61.8185   87.8383   11.0516 C.ar    1  UNL1        0.0699
     14 C          60.5451   87.4282   11.4784 C.ar    1  UNL1        0.0190
     15 C          59.6860   86.7556   10.6048 C.ar    1  UNL1        0.0160
     16 C          60.0760   86.4933    9.2814 C.ar    1  UNL1        0.0480
     17 C          61.3302   86.9532    8.8413 C.ar    1  UNL1        0.0160
     18 C          62.1861   87.6264    9.7144 C.ar    1  UNL1        0.0190
     19 N          63.8376   89.8815   13.2590 N.ar    1  UNL1       -0.2024
     20 N          64.1829   88.6728   13.6785 N.ar    1  UNL1       -0.1442
     21 C          63.5252   87.7944   12.8906 C.ar    1  UNL1        0.2073
     22 N          62.7527   88.4254   11.9772 N.ar    1  UNL1       -0.2398
     23 C          62.9648   89.7279   12.2487 C.ar    1  UNL1        0.3522
     24 O          62.3817   90.6829   11.6691 O.2     1  UNL1       -0.2444
     25 C          64.2108   91.1365   13.9205 C.3     1  UNL1        0.1099
     26 C          64.0386   90.9863   15.4341 C.3     1  UNL1        0.0265
     27 C          65.7001   92.6191   12.4894 C.3     1  UNL1        0.0021
     28 C          65.6560   91.5409   13.5713 C.3     1  UNL1        0.0245
     29 O          58.5136   80.0259   13.4489 O.3     1  UNL1       -0.4727
     30 C          59.7323   79.7318   14.1358 C.3     1  UNL1        0.2374
     31 C          60.9364   80.3828   13.4345 C.3     1  UNL1        0.1909
     32 C          62.2355   80.0227   14.0910 C.3     1  UNL1        0.1783
     33 O          63.0528   81.1388   13.9496 O.3     1  UNL1       -0.3271
     34 C          62.1985   82.2287   13.6470 C.3     1  UNL1        0.2232
     35 O          60.8679   81.7720   13.4976 O.3     1  UNL1       -0.3258
     36 C          62.6949   82.9009   12.3609 C.ar    1  UNL1        0.0404
     37 C          61.8523   82.8807   11.2272 C.ar    1  UNL1        0.0021
     38 C          62.2372   83.4856   10.0304 C.ar    1  UNL1        0.0113
     39 C          63.4773   84.1110    9.9304 C.ar    1  UNL1        0.0585
     40 CL         63.9387   84.9129    8.4405 Cl      1  UNL1       -0.0822
     41 C          64.3496   84.1010   11.0181 C.ar    1  UNL1        0.0226
     42 C          63.9847   83.4896   12.2247 C.ar    1  UNL1        0.0591
     43 CL         65.2083   83.4687   13.4934 Cl      1  UNL1       -0.0824
     44 C          62.2599   83.2093   14.8380 C.3     1  UNL1        0.1338
     45 N          62.0495   84.6146   14.4098 N.3     1  UNL1       -0.2659
     46 C          60.6050   84.9446   14.3258 C.3     1  UNL1        0.0898
     47 C          60.3700   86.4540   14.4259 C.3     1  UNL1        0.0897
     48 N          60.7802   86.9573   15.7558 N.3     1  UNL1       -0.2691
     49 C          60.9995   88.4100   15.7082 C.3     1  UNL1        0.0897
     50 C          61.9555   86.2460   16.3202 C.3     1  UNL1        0.0897
     51 C          62.8215   85.5849   15.2326 C.3     1  UNL1        0.0898
@<TRIPOS>BOND
     1    27    28    1
     2    28    25    1
     3    25    26    1
     4    25    19    1
     5    19    20   ar
     6    20    21   ar
     7    21    22   ar
     8    22    13    1
     9    13    14   ar
    10    14    15   ar
    11    15    16   ar
    12    16     7    1
    13     7     8    1
    14     8     9    1
    15     9    10    1
    16    10     1    1
    17     1     2   ar
    18     2     3   ar
    19     3     4   ar
    20     4    29    1
    21    29    30    1
    22    30    31    1
    23    31    32    1
    24    32    33    1
    25    33    34    1
    26    34    44    1
    27    44    45    1
    28    45    46    1
    29    46    47    1
    30    47    48    1
    31    48    49    1
    32    48    50    1
    33    50    51    1
    34    34    36    1
    35    36    37   ar
    36    37    38   ar
    37    38    39   ar
    38    39    40    1
    39    39    41   ar
    40    41    42   ar
    41    42    43    1
    42    34    35    1
    43     4     5   ar
    44     5     6   ar
    45    10    11    1
    46    11    12    1
    47    16    17   ar
    48    17    18   ar
    49    22    23   ar
    50    23    24    2
    51    23    19   ar
    52    18    13   ar
    53    12     7    1
    54     6     1   ar
    55    35    31    1
    56    51    45    1
    57    42    36   ar
@<TRIPOS>MOLECULE
*****
 51 57 0 0 0
SMALL
GASTEIGER

@<TRIPOS>ATOM
      1 C          60.8854   80.4591   11.7980 C.ar    1  UNL1        0.0481
      2 C          60.2273   80.7590   13.0061 C.ar    1  UNL1        0.0176
      3 C          60.9499   81.1845   14.1230 C.ar    1  UNL1        0.0382
      4 C          62.3417   81.3596   14.0466 C.ar    1  UNL1        0.1388
      5 C          63.0029   81.0245   12.8610 C.ar    1  UNL1        0.0382
      6 C          62.2860   80.5753   11.7485 C.ar    1  UNL1        0.0176
      7 N          58.8663   81.6921    8.8774 N.pl3   1  UNL1       -0.3041
      8 C          59.8013   80.7560    8.2349 C.3     1  UNL1        0.1122
      9 C          60.7914   80.2288    9.2865 C.3     1  UNL1        0.1122
     10 N          60.1417   80.1113   10.6063 N.pl3   1  UNL1       -0.3041
     11 C          58.6795   79.9484   10.6283 C.3     1  UNL1        0.1122
     12 C          58.0277   81.1788    9.9770 C.3     1  UNL1        0.1122
     13 C          59.3240   85.9183    8.5198 C.ar    1  UNL1        0.0699
     14 C          58.2083   85.3734    9.1755 C.ar    1  UNL1        0.0190
     15 C          58.0434   83.9882    9.2641 C.ar    1  UNL1        0.0160
     16 C          58.9822   83.1192    8.6849 C.ar    1  UNL1        0.0480
     17 C          60.0698   83.6684    7.9821 C.ar    1  UNL1        0.0160
     18 C          60.2319   85.0517    7.8929 C.ar    1  UNL1        0.0190
     19 N          60.2813   89.3663    9.0845 N.ar    1  UNL1       -0.2024
     20 N          59.8541   89.4444    7.8324 N.ar    1  UNL1       -0.1442
     21 C          59.4126   88.2108    7.5034 C.ar    1  UNL1        0.2073
     22 N          59.5621   87.3387    8.5263 N.ar    1  UNL1       -0.2398
     23 C          60.1204   88.0954    9.4910 C.ar    1  UNL1        0.3522
     24 O          60.4950   87.6611   10.6129 O.2     1  UNL1       -0.2444
     25 C          60.9726   90.4424    9.8028 C.3     1  UNL1        0.1099
     26 C          60.2354   90.7379   11.1115 C.3     1  UNL1        0.0265
     27 C          63.2552   91.2800   10.5459 C.3     1  UNL1        0.0021
     28 C          62.4440   90.0740   10.0743 C.3     1  UNL1        0.0245
     29 O          63.1033   81.8617   15.1140 O.3     1  UNL1       -0.4727
     30 C          64.2472   82.7115   14.9993 C.3     1  UNL1        0.2374
     31 C          63.8993   84.1639   15.3669 C.3     1  UNL1        0.1909
     32 C          62.6724   84.2515   16.2244 C.3     1  UNL1        0.1783
     33 O          62.0433   85.4382   15.8643 O.3     1  UNL1       -0.3271
     34 C          62.5761   85.8111   14.6047 C.3     1  UNL1        0.2232
     35 O          63.6069   84.9165   14.2327 O.3     1  UNL1       -0.3258
     36 C          63.1049   87.2476   14.6997 C.ar    1  UNL1        0.0404
     37 C          63.5961   87.8588   13.5246 C.ar    1  UNL1        0.0021
     38 C          64.0785   89.1678   13.5389 C.ar    1  UNL1        0.0113
     39 C          64.0974   89.8930   14.7274 C.ar    1  UNL1        0.0585
     40 CL         64.6586   91.5545   14.7335 Cl      1  UNL1       -0.0822
     41 C          63.6663   89.2964   15.9116 C.ar    1  UNL1        0.0226
     42 C          63.1882   87.9795   15.9188 C.ar    1  UNL1        0.0591
     43 CL         62.7558   87.3119   17.4918 Cl      1  UNL1       -0.0824
     44 C          61.4327   85.7141   13.5717 C.3     1  UNL1        0.1338
     45 N          60.1378   86.1712   14.1342 N.3     1  UNL1       -0.2659
     46 C          59.8534   87.5799   13.7639 C.3     1  UNL1        0.0898
     47 C          58.3565   87.8889   13.8491 C.3     1  UNL1        0.0897
     48 N          57.6036   87.0934   12.8540 N.3     1  UNL1       -0.2691
     49 C          56.1829   87.0223   13.2243 C.3     1  UNL1        0.0897
     50 C          58.1756   85.7425   12.6223 C.3     1  UNL1        0.0897
     51 C          59.0164   85.2471   13.8128 C.3     1  UNL1        0.0898
@<TRIPOS>BOND
     1    27    28    1
     2    28    25    1
     3    25    26    1
     4    25    19    1
     5    19    20   ar
     6    20    21   ar
     7    21    22   ar
     8    22    13    1
     9    13    14   ar
    10    14    15   ar
    11    15    16   ar
    12    16     7    1
    13     7     8    1
    14     8     9    1
    15     9    10    1
    16    10     1    1
    17     1     2   ar
    18     2     3   ar
    19     3     4   ar
    20     4    29    1
    21    29    30    1
    22    30    31    1
    23    31    32    1
    24    32    33    1
    25    33    34    1
    26    34    44    1
    27    44    45    1
    28    45    46    1
    29    46    47    1
    30    47    48    1
    31    48    49    1
    32    48    50    1
    33    50    51    1
    34    34    36    1
    35    36    37   ar
    36    37    38   ar
    37    38    39   ar
    38    39    40    1
    39    39    41   ar
    40    41    42   ar
    41    42    43    1
    42    34    35    1
    43     4     5   ar
    44     5     6   ar
    45    10    11    1
    46    11    12    1
    47    16    17   ar
    48    17    18   ar
    49    22    23   ar
    50    23    24    2
    51    23    19   ar
    52    18    13   ar
    53    12     7    1
    54     6     1   ar
    55    35    31    1
    56    51    45    1
    57    42    36   ar
@<TRIPOS>MOLECULE
*****
 51 57 0 0 0
SMALL
GASTEIGER

@<TRIPOS>ATOM
      1 C          62.8823   84.6847   15.2138 C.ar    1  UNL1        0.0481
      2 C          63.8091   85.1466   14.2598 C.ar    1  UNL1        0.0176
      3 C          64.3910   84.2633   13.3479 C.ar    1  UNL1        0.0382
      4 C          64.0297   82.9057   13.3414 C.ar    1  UNL1        0.1388
      5 C          63.1402   82.4364   14.3129 C.ar    1  UNL1        0.0382
      6 C          62.5740   83.3130   15.2425 C.ar    1  UNL1        0.0176
      7 N          62.2653   88.2683   16.1649 N.pl3   1  UNL1       -0.3041
      8 C          60.9021   87.7172   16.1316 C.3     1  UNL1        0.1122
      9 C          60.9578   86.2593   15.6464 C.3     1  UNL1        0.1122
     10 N          62.1991   85.6026   16.1000 N.pl3   1  UNL1       -0.3041
     11 C          62.8516   86.1459   17.3017 C.3     1  UNL1        0.1122
     12 C          63.2526   87.6063   17.0382 C.3     1  UNL1        0.1122
     13 C          63.8265   90.8881   13.1821 C.ar    1  UNL1        0.0699
     14 C          64.0535   91.1407   14.5446 C.ar    1  UNL1        0.0190
     15 C          63.5146   90.2993   15.5220 C.ar    1  UNL1        0.0160
     16 C          62.7240   89.1971   15.1580 C.ar    1  UNL1        0.0480
     17 C          62.4537   88.9784   13.7952 C.ar    1  UNL1        0.0160
     18 C          62.9910   89.8207   12.8205 C.ar    1  UNL1        0.0190
     19 N          65.9922   92.8298   11.0225 N.ar    1  UNL1       -0.2024
     20 N          64.9992   92.5693   10.1845 N.ar    1  UNL1       -0.1442
     21 C          64.0783   91.8765   10.8895 C.ar    1  UNL1        0.2073
     22 N          64.4739   91.6793   12.1677 N.ar    1  UNL1       -0.2398
     23 C          65.6802   92.2779   12.2075 C.ar    1  UNL1        0.3522
     24 O          66.4456   92.2773   13.2085 O.2     1  UNL1       -0.2444
     25 C          67.2686   93.4457   10.6439 C.3     1  UNL1        0.1099
     26 C          68.0233   92.5128    9.6935 C.3     1  UNL1        0.0265
     27 C          67.6038   94.8829    8.5736 C.3     1  UNL1        0.0021
     28 C          67.0492   94.8266    9.9963 C.3     1  UNL1        0.0245
     29 O          64.5232   81.9933   12.3950 O.3     1  UNL1       -0.4727
     30 C          63.8524   81.5789   11.2026 C.3     1  UNL1        0.2374
     31 C          62.3534   81.9177   11.2621 C.3     1  UNL1        0.1909
     32 C          61.5838   81.2744   10.1476 C.3     1  UNL1        0.1783
     33 O          60.5651   82.1652    9.8280 O.3     1  UNL1       -0.3271
     34 C          60.9415   83.4197   10.3702 C.3     1  UNL1        0.2232
     35 O          62.1377   83.2851   11.1132 O.3     1  UNL1       -0.3258
     36 C          59.8007   83.9351   11.2564 C.ar    1  UNL1        0.0404
     37 C          60.1332   84.6932   12.4011 C.ar    1  UNL1        0.0021
     38 C          59.1435   85.2035   13.2418 C.ar    1  UNL1        0.0113
     39 C          57.8002   84.9569   12.9703 C.ar    1  UNL1        0.0585
     40 CL         56.5563   85.6401   14.0007 Cl      1  UNL1       -0.0822
     41 C          57.4464   84.1686   11.8760 C.ar    1  UNL1        0.0226
     42 C          58.4266   83.6391   11.0266 C.ar    1  UNL1        0.0591
     43 CL         57.8559   82.5884    9.7314 Cl      1  UNL1       -0.0824
     44 C          61.1932   84.3786    9.1864 C.3     1  UNL1        0.1338
     45 N          60.4800   85.6687    9.3575 N.3     1  UNL1       -0.2659
     46 C          61.4272   86.8107    9.3925 C.3     1  UNL1        0.0898
     47 C          60.7325   88.1245    9.0254 C.3     1  UNL1        0.0897
     48 N          60.2594   88.0887    7.6236 N.3     1  UNL1       -0.2691
     49 C          59.2188   89.1044    7.4083 C.3     1  UNL1        0.0897
     50 C          59.8075   86.7431    7.1864 C.3     1  UNL1        0.0897
     51 C          59.3837   85.8519    8.3679 C.3     1  UNL1        0.0898
@<TRIPOS>BOND
     1    27    28    1
     2    28    25    1
     3    25    26    1
     4    25    19    1
     5    19    20   ar
     6    20    21   ar
     7    21    22   ar
     8    22    13    1
     9    13    14   ar
    10    14    15   ar
    11    15    16   ar
    12    16     7    1
    13     7     8    1
    14     8     9    1
    15     9    10    1
    16    10     1    1
    17     1     2   ar
    18     2     3   ar
    19     3     4   ar
    20     4    29    1
    21    29    30    1
    22    30    31    1
    23    31    32    1
    24    32    33    1
    25    33    34    1
    26    34    44    1
    27    44    45    1
    28    45    46    1
    29    46    47    1
    30    47    48    1
    31    48    49    1
    32    48    50    1
    33    50    51    1
    34    34    36    1
    35    36    37   ar
    36    37    38   ar
    37    38    39   ar
    38    39    40    1
    39    39    41   ar
    40    41    42   ar
    41    42    43    1
    42    34    35    1
    43     4     5   ar
    44     5     6   ar
    45    10    11    1
    46    11    12    1
    47    16    17   ar
    48    17    18   ar
    49    22    23   ar
    50    23    24    2
    51    23    19   ar
    52    18    13   ar
    53    12     7    1
    54     6     1   ar
    55    35    31    1
    56    51    45    1
    57    42    36   ar
@<TRIPOS>MOLECULE
*****
 51 57 0 0 0
SMALL
GASTEIGER

@<TRIPOS>ATOM
      1 C          58.9521   86.4954   12.2630 C.ar    1  UNL1        0.0481
      2 C          58.4218   85.2541   11.8620 C.ar    1  UNL1        0.0176
      3 C          58.4471   84.8703   10.5195 C.ar    1  UNL1        0.0382
      4 C          59.0395   85.6996    9.5525 C.ar    1  UNL1        0.1388
      5 C          59.5308   86.9498    9.9409 C.ar    1  UNL1        0.0382
      6 C          59.4856   87.3477   11.2799 C.ar    1  UNL1        0.0176
      7 N          60.8518   88.3161   14.9469 N.pl3   1  UNL1       -0.3041
      8 C          59.4735   88.7750   15.1769 C.3     1  UNL1        0.1122
      9 C          58.5602   88.2017   14.0809 C.3     1  UNL1        0.1122
     10 N          59.0209   86.8642   13.6607 N.pl3   1  UNL1       -0.3041
     11 C          59.8152   86.0882   14.6261 C.3     1  UNL1        0.1122
     12 C          61.1019   86.8624   14.9545 C.3     1  UNL1        0.1122
     13 C          63.9576   90.7412   13.3125 C.ar    1  UNL1        0.0699
     14 C          63.9733   90.3782   14.6689 C.ar    1  UNL1        0.0190
     15 C          62.9386   89.6103   15.2104 C.ar    1  UNL1        0.0160
     16 C          61.8584   89.2028   14.4108 C.ar    1  UNL1        0.0480
     17 C          61.8185   89.6138   13.0662 C.ar    1  UNL1        0.0160
     18 C          62.8515   90.3823   12.5275 C.ar    1  UNL1        0.0190
     19 N          66.3397   92.6222   11.3349 N.ar    1  UNL1       -0.2024
     20 N          66.9848   92.5711   12.4914 N.ar    1  UNL1       -0.1442
     21 C          66.2136   91.8397   13.3252 C.ar    1  UNL1        0.2073
     22 N          65.0752   91.4302   12.7206 N.ar    1  UNL1       -0.2398
     23 C          65.1851   91.9506   11.4828 C.ar    1  UNL1        0.3522
     24 O          64.2985   91.8674   10.5912 O.2     1  UNL1       -0.2444
     25 C          66.7493   93.4314   10.1819 C.3     1  UNL1        0.1099
     26 C          66.3585   94.8923   10.4191 C.3     1  UNL1        0.0265
     27 C          68.5702   92.2800    8.8318 C.3     1  UNL1        0.0021
     28 C          68.2630   93.3045    9.9230 C.3     1  UNL1        0.0245
     29 O          59.1633   85.3257    8.2048 O.3     1  UNL1       -0.4727
     30 C          60.3766   84.9515    7.5478 C.3     1  UNL1        0.2374
     31 C          61.5671   84.9805    8.5211 C.3     1  UNL1        0.1909
     32 C          62.7841   84.3206    7.9453 C.3     1  UNL1        0.1783
     33 O          63.4394   83.7314    9.0209 O.3     1  UNL1       -0.3271
     34 C          62.4924   83.6451   10.0721 C.3     1  UNL1        0.2232
     35 O          61.2848   84.2731    9.6866 O.3     1  UNL1       -0.3258
     36 C          63.0819   84.3111   11.3216 C.ar    1  UNL1        0.0404
     37 C          62.6819   85.6309   11.6281 C.ar    1  UNL1        0.0021
     38 C          63.1695   86.2894   12.7573 C.ar    1  UNL1        0.0113
     39 C          64.0791   85.6542   13.5988 C.ar    1  UNL1        0.0585
     40 CL         64.6531   86.4655   15.0438 Cl      1  UNL1       -0.0822
     41 C          64.5299   84.3710   13.2917 C.ar    1  UNL1        0.0226
     42 C          64.0594   83.6979   12.1567 C.ar    1  UNL1        0.0591
     43 CL         64.7712   82.1184   11.8317 Cl      1  UNL1       -0.0824
     44 C          62.2181   82.1471   10.3261 C.3     1  UNL1        0.1338
     45 N          60.8984   81.9266   10.9681 N.3     1  UNL1       -0.2659
     46 C          60.2873   80.6488   10.5251 C.3     1  UNL1        0.0898
     47 C          59.2484   80.1478   11.5316 C.3     1  UNL1        0.0897
     48 N          59.8926   79.8137   12.8214 N.3     1  UNL1       -0.2691
     49 C          58.8946   79.7866   13.9003 C.3     1  UNL1        0.0897
     50 C          61.0362   80.6996   13.1579 C.3     1  UNL1        0.0897
     51 C          60.9527   82.0635   12.4489 C.3     1  UNL1        0.0898
@<TRIPOS>BOND
     1    27    28    1
     2    28    25    1
     3    25    26    1
     4    25    19    1
     5    19    20   ar
     6    20    21   ar
     7    21    22   ar
     8    22    13    1
     9    13    14   ar
    10    14    15   ar
    11    15    16   ar
    12    16     7    1
    13     7     8    1
    14     8     9    1
    15     9    10    1
    16    10     1    1
    17     1     2   ar
    18     2     3   ar
    19     3     4   ar
    20     4    29    1
    21    29    30    1
    22    30    31    1
    23    31    32    1
    24    32    33    1
    25    33    34    1
    26    34    44    1
    27    44    45    1
    28    45    46    1
    29    46    47    1
    30    47    48    1
    31    48    49    1
    32    48    50    1
    33    50    51    1
    34    34    36    1
    35    36    37   ar
    36    37    38   ar
    37    38    39   ar
    38    39    40    1
    39    39    41   ar
    40    41    42   ar
    41    42    43    1
    42    34    35    1
    43     4     5   ar
    44     5     6   ar
    45    10    11    1
    46    11    12    1
    47    16    17   ar
    48    17    18   ar
    49    22    23   ar
    50    23    24    2
    51    23    19   ar
    52    18    13   ar
    53    12     7    1
    54     6     1   ar
    55    35    31    1
    56    51    45    1
    57    42    36   ar
