@<TRIPOS>MOLECULE
*****
 47 52 0 0 0
SMALL
GASTEIGER

@<TRIPOS>ATOM
      1 C          61.5132   85.2872   12.0470 C.ar    1  UNL1        0.0702
      2 C          61.1567   84.8492   10.7623 C.ar    1  UNL1        0.0191
      3 C          60.2983   83.7594   10.6073 C.ar    1  UNL1        0.0356
      4 C          59.8161   83.0899   11.7432 C.ar    1  UNL1        0.1318
      5 N          60.1832   83.5288   12.9791 N.ar    1  UNL1       -0.2279
      6 C          61.0175   84.5873   13.1537 C.ar    1  UNL1        0.1149
      7 N          58.9082   81.9789   11.6239 N.pl3   1  UNL1       -0.2932
      8 C          58.4062   81.2611   12.8032 C.3     1  UNL1        0.0923
      9 C          58.6673   79.7515   12.6682 C.3     1  UNL1        0.0252
     10 C          58.5724   79.2308   11.2052 C.3     1  UNL1        0.0472
     11 C          57.7738   80.2040   10.3066 C.3     1  UNL1        0.0252
     12 C          58.4024   81.6074   10.2951 C.3     1  UNL1        0.0923
     13 C          59.9731   78.9381   10.6318 C.3     1  UNL1        0.2054
     14 O          60.9671   79.1289   11.6366 O.3     1  UNL1       -0.4755
     15 C          61.9007   80.1754   11.6407 C.ar    1  UNL1        0.1388
     16 C          62.4410   80.7089   10.4560 C.ar    1  UNL1        0.0369
     17 C          63.3696   81.7500   10.5149 C.ar    1  UNL1        0.0033
     18 C          63.7680   82.2690   11.7489 C.ar    1  UNL1        0.0066
     19 C          63.2390   81.7496   12.9424 C.ar    1  UNL1        0.0785
     20 C          62.3036   80.7005   12.8749 C.ar    1  UNL1        0.0433
     21 C          63.6626   82.3008   14.2486 C.2     1  UNL1        0.3381
     22 O          64.3013   83.3864   14.3071 O.2     1  UNL1       -0.2451
     23 O          63.3591   81.6246   15.4275 O.3     1  UNL1       -0.4771
     24 H          63.6444   81.9931   16.3270 H       1  UNL1        0.2954
     25 C          61.9957   87.7136   12.6234 C.2     1  UNL1        0.2839
     26 O          60.7712   87.9934   12.7210 O.2     1  UNL1       -0.2665
     27 N          62.4137   86.3885   12.2506 N.am    1  UNL1       -0.2766
     28 H          63.4342   86.1865   12.1738 H       1  UNL1        0.1553
     29 C          64.2256   87.8313   14.9686 C.3     1  UNL1        0.0345
     30 C          63.9572   88.8243   13.8785 C.ar    1  UNL1        0.0202
     31 C          62.9793   88.7806   12.8769 C.ar    1  UNL1        0.1946
     32 O          63.0282   89.8830   12.1497 O.2     1  UNL1       -0.4492
     33 C          64.0028   90.6275   12.6119 C.ar    1  UNL1        0.1452
     34 C          64.4146   91.8696   12.1414 C.ar    1  UNL1        0.0375
     35 C          65.4913   92.4977   12.7920 C.ar    1  UNL1        0.0031
     36 C          66.1360   91.8790   13.8975 C.ar    1  UNL1        0.0002
     37 C          65.6834   90.6148   14.3456 C.ar    1  UNL1        0.0028
     38 C          64.6143   90.0208   13.6748 C.ar    1  UNL1        0.0337
     39 C          67.2722   92.5518   14.5770 C.ar    1  UNL1        0.0001
     40 C          68.5995   92.2365   14.2332 C.ar    1  UNL1        0.0013
     41 C          69.6682   92.8698   14.8746 C.ar    1  UNL1        0.0141
     42 C          69.4286   93.8276   15.8682 C.ar    1  UNL1        0.0415
     43 N          70.5227   94.4751   16.5231 N.pl3   1  UNL1       -0.3570
     44 C          68.1097   94.1468   16.2156 C.ar    1  UNL1        0.0141
     45 C          67.0393   93.5144   15.5764 C.ar    1  UNL1        0.0013
     46 H          70.3539   95.1904   17.2652 H       1  UNL1        0.1424
     47 H          71.5094   94.2438   16.2708 H       1  UNL1        0.1424
@<TRIPOS>BOND
     1    29    30    1
     2    30    31   ar
     3    31    25    1
     4    25    26    2
     5    25    27   am
     6    27     1    1
     7     1     2   ar
     8     2     3   ar
     9     3     4   ar
    10     4     7    1
    11     7     8    1
    12     8     9    1
    13     9    10    1
    14    10    13    1
    15    13    14    1
    16    14    15    1
    17    15    16   ar
    18    16    17   ar
    19    17    18   ar
    20    18    19   ar
    21    19    21    1
    22    21    22    2
    23    21    23    1
    24    19    20   ar
    25    10    11    1
    26    11    12    1
    27     4     5   ar
    28     5     6   ar
    29    31    32   ar
    30    32    33   ar
    31    33    34   ar
    32    34    35   ar
    33    35    36   ar
    34    36    39    1
    35    39    40   ar
    36    40    41   ar
    37    41    42   ar
    38    42    43    1
    39    42    44   ar
    40    44    45   ar
    41    36    37   ar
    42    37    38   ar
    43    38    30   ar
    44     6     1   ar
    45    38    33   ar
    46    12     7    1
    47    45    39   ar
    48    20    15   ar
    49    27    28    1
    50    23    24    1
    51    43    46    1
    52    43    47    1
@<TRIPOS>MOLECULE
*****
 47 52 0 0 0
SMALL
GASTEIGER

@<TRIPOS>ATOM
      1 C          61.5486   86.6406    9.8613 C.ar    1  UNL1        0.0702
      2 C          60.2433   86.9407    9.4422 C.ar    1  UNL1        0.0191
      3 C          59.4253   85.9348    8.9250 C.ar    1  UNL1        0.0356
      4 C          59.9257   84.6288    8.8030 C.ar    1  UNL1        0.1318
      5 N          61.1986   84.3642    9.2088 N.ar    1  UNL1       -0.2279
      6 C          62.0125   85.3276    9.7152 C.ar    1  UNL1        0.1149
      7 N          59.1034   83.5598    8.2991 N.pl3   1  UNL1       -0.2932
      8 C          57.6366   83.6250    8.3464 C.3     1  UNL1        0.0923
      9 C          57.0626   82.3777    9.0391 C.3     1  UNL1        0.0252
     10 C          57.8856   81.0840    8.7754 C.3     1  UNL1        0.0472
     11 C          58.7767   81.2238    7.5190 C.3     1  UNL1        0.0252
     12 C          59.7447   82.4124    7.6421 C.3     1  UNL1        0.0923
     13 C          58.7052   80.6883   10.0196 C.3     1  UNL1        0.2054
     14 O          58.2089   81.3649   11.1728 O.3     1  UNL1       -0.4755
     15 C          58.8201   82.4810   11.7624 C.ar    1  UNL1        0.1388
     16 C          60.1909   82.5110   12.0790 C.ar    1  UNL1        0.0369
     17 C          60.7504   83.6469   12.6675 C.ar    1  UNL1        0.0033
     18 C          59.9544   84.7604   12.9455 C.ar    1  UNL1        0.0066
     19 C          58.5839   84.7492   12.6359 C.ar    1  UNL1        0.0785
     20 C          58.0273   83.6008   12.0429 C.ar    1  UNL1        0.0433
     21 C          57.7424   85.9299   12.9313 C.2     1  UNL1        0.3381
     22 O          56.8370   86.2859   12.1292 O.2     1  UNL1       -0.2451
     23 O          57.9428   86.6601   14.1000 O.3     1  UNL1       -0.4771
     24 H          57.3724   87.4700   14.3118 H       1  UNL1        0.2954
     25 C          62.1693   88.4243   11.5598 C.2     1  UNL1        0.2839
     26 O          61.0800   88.2943   12.1795 O.2     1  UNL1       -0.2665
     27 N          62.4317   87.6508   10.3757 N.am    1  UNL1       -0.2766
     28 H          63.3407   87.7820    9.8810 H       1  UNL1        0.1553
     29 C          64.0449   88.1650   14.1867 C.3     1  UNL1        0.0345
     30 C          63.9754   89.2824   13.1903 C.ar    1  UNL1        0.0202
     31 C          63.1493   89.4010   12.0656 C.ar    1  UNL1        0.1946
     32 O          63.3462   90.5703   11.4821 O.2     1  UNL1       -0.4492
     33 C          64.2744   91.2052   12.1552 C.ar    1  UNL1        0.1452
     34 C          64.7994   92.4653   11.8900 C.ar    1  UNL1        0.0375
     35 C          65.7970   92.9587   12.7493 C.ar    1  UNL1        0.0031
     36 C          66.2518   92.1901   13.8553 C.ar    1  UNL1        0.0002
     37 C          65.6888   90.9127   14.0903 C.ar    1  UNL1        0.0028
     38 C          64.7030   90.4549   13.2160 C.ar    1  UNL1        0.0337
     39 C          67.3059   92.7213   14.7563 C.ar    1  UNL1        0.0001
     40 C          68.0833   91.8492   15.5401 C.ar    1  UNL1        0.0013
     41 C          69.0745   92.3508   16.3888 C.ar    1  UNL1        0.0141
     42 C          69.3055   93.7301   16.4677 C.ar    1  UNL1        0.0415
     43 N          70.3202   94.2419   17.3359 N.pl3   1  UNL1       -0.3570
     44 C          68.5356   94.6046   15.6900 C.ar    1  UNL1        0.0141
     45 C          67.5432   94.1056   14.8412 C.ar    1  UNL1        0.0013
     46 H          70.4995   95.2687   17.4015 H       1  UNL1        0.1424
     47 H          70.8993   93.5978   17.9194 H       1  UNL1        0.1424
@<TRIPOS>BOND
     1    29    30    1
     2    30    31   ar
     3    31    25    1
     4    25    26    2
     5    25    27   am
     6    27     1    1
     7     1     2   ar
     8     2     3   ar
     9     3     4   ar
    10     4     7    1
    11     7     8    1
    12     8     9    1
    13     9    10    1
    14    10    13    1
    15    13    14    1
    16    14    15    1
    17    15    16   ar
    18    16    17   ar
    19    17    18   ar
    20    18    19   ar
    21    19    21    1
    22    21    22    2
    23    21    23    1
    24    19    20   ar
    25    10    11    1
    26    11    12    1
    27     4     5   ar
    28     5     6   ar
    29    31    32   ar
    30    32    33   ar
    31    33    34   ar
    32    34    35   ar
    33    35    36   ar
    34    36    39    1
    35    39    40   ar
    36    40    41   ar
    37    41    42   ar
    38    42    43    1
    39    42    44   ar
    40    44    45   ar
    41    36    37   ar
    42    37    38   ar
    43    38    30   ar
    44     6     1   ar
    45    38    33   ar
    46    12     7    1
    47    45    39   ar
    48    20    15   ar
    49    27    28    1
    50    23    24    1
    51    43    46    1
    52    43    47    1
@<TRIPOS>MOLECULE
*****
 47 52 0 0 0
SMALL
GASTEIGER

@<TRIPOS>ATOM
      1 C          61.4441   86.6662   11.0976 C.ar    1  UNL1        0.0702
      2 C          60.5784   86.8992   10.0179 C.ar    1  UNL1        0.0191
      3 C          59.6528   85.9252    9.6399 C.ar    1  UNL1        0.0356
      4 C          59.6119   84.7030   10.3295 C.ar    1  UNL1        0.1318
      5 N          60.4681   84.4973   11.3686 N.ar    1  UNL1       -0.2279
      6 C          61.3772   85.4311   11.7539 C.ar    1  UNL1        0.1149
      7 N          58.6535   83.6851    9.9858 N.pl3   1  UNL1       -0.2932
      8 C          58.0095   82.8523   11.0104 C.3     1  UNL1        0.0923
      9 C          58.1914   81.3601   10.6862 C.3     1  UNL1        0.0252
     10 C          58.1930   81.0490    9.1618 C.3     1  UNL1        0.0472
     11 C          57.5344   82.1882    8.3489 C.3     1  UNL1        0.0252
     12 C          58.2437   83.5325    8.5829 C.3     1  UNL1        0.0923
     13 C          59.6183   80.7379    8.6637 C.3     1  UNL1        0.2054
     14 O          60.5446   80.8048    9.7460 O.3     1  UNL1       -0.4755
     15 C          61.6578   81.6569    9.7863 C.ar    1  UNL1        0.1388
     16 C          62.7330   81.4519   10.6705 C.ar    1  UNL1        0.0369
     17 C          63.8176   82.3314   10.6721 C.ar    1  UNL1        0.0033
     18 C          63.8430   83.4194    9.7968 C.ar    1  UNL1        0.0066
     19 C          62.7788   83.6399    8.9063 C.ar    1  UNL1        0.0785
     20 C          61.6894   82.7493    8.9105 C.ar    1  UNL1        0.0433
     21 C          62.8077   84.7933    7.9799 C.2     1  UNL1        0.3381
     22 O          63.3839   85.8648    8.3113 O.2     1  UNL1       -0.2451
     23 O          62.1978   84.7060    6.7310 O.3     1  UNL1       -0.4771
     24 H          62.2116   85.4897    6.0892 H       1  UNL1        0.2954
     25 C          62.1446   88.7733   12.3311 C.2     1  UNL1        0.2839
     26 O          60.9633   89.0245   12.6900 O.2     1  UNL1       -0.2665
     27 N          62.4283   87.6315   11.5033 N.am    1  UNL1       -0.2766
     28 H          63.4153   87.4502   11.2183 H       1  UNL1        0.1553
     29 C          64.2211   88.3757   14.7838 C.3     1  UNL1        0.0345
     30 C          64.1273   89.5099   13.8086 C.ar    1  UNL1        0.0202
     31 C          63.2157   89.6890   12.7606 C.ar    1  UNL1        0.1946
     32 O          63.4251   90.8548   12.1743 O.2     1  UNL1       -0.4492
     33 C          64.4405   91.4294   12.7715 C.ar    1  UNL1        0.1452
     34 C          65.0083   92.6636   12.4751 C.ar    1  UNL1        0.0375
     35 C          66.1009   93.0906   13.2503 C.ar    1  UNL1        0.0031
     36 C          66.6063   92.2825   14.3050 C.ar    1  UNL1        0.0002
     37 C          65.9971   91.0334   14.5744 C.ar    1  UNL1        0.0028
     38 C          64.9169   90.6417   13.7837 C.ar    1  UNL1        0.0337
     39 C          67.7608   92.7435   15.1172 C.ar    1  UNL1        0.0001
     40 C          68.5874   91.8157   15.7768 C.ar    1  UNL1        0.0013
     41 C          69.6732   92.2512   16.5422 C.ar    1  UNL1        0.0141
     42 C          69.9510   93.6190   16.6604 C.ar    1  UNL1        0.0415
     43 N          71.0624   94.0632   17.4432 N.pl3   1  UNL1       -0.3570
     44 C          69.1324   94.5487   16.0063 C.ar    1  UNL1        0.0141
     45 C          68.0455   94.1159   15.2411 C.ar    1  UNL1        0.0013
     46 H          71.2772   95.0810   17.5373 H       1  UNL1        0.1424
     47 H          71.6783   93.3776   17.9344 H       1  UNL1        0.1424
@<TRIPOS>BOND
     1    29    30    1
     2    30    31   ar
     3    31    25    1
     4    25    26    2
     5    25    27   am
     6    27     1    1
     7     1     2   ar
     8     2     3   ar
     9     3     4   ar
    10     4     7    1
    11     7     8    1
    12     8     9    1
    13     9    10    1
    14    10    13    1
    15    13    14    1
    16    14    15    1
    17    15    16   ar
    18    16    17   ar
    19    17    18   ar
    20    18    19   ar
    21    19    21    1
    22    21    22    2
    23    21    23    1
    24    19    20   ar
    25    10    11    1
    26    11    12    1
    27     4     5   ar
    28     5     6   ar
    29    31    32   ar
    30    32    33   ar
    31    33    34   ar
    32    34    35   ar
    33    35    36   ar
    34    36    39    1
    35    39    40   ar
    36    40    41   ar
    37    41    42   ar
    38    42    43    1
    39    42    44   ar
    40    44    45   ar
    41    36    37   ar
    42    37    38   ar
    43    38    30   ar
    44     6     1   ar
    45    38    33   ar
    46    12     7    1
    47    45    39   ar
    48    20    15   ar
    49    27    28    1
    50    23    24    1
    51    43    46    1
    52    43    47    1
@<TRIPOS>MOLECULE
*****
 47 52 0 0 0
SMALL
GASTEIGER

@<TRIPOS>ATOM
      1 C          61.5064   86.5230   10.1592 C.ar    1  UNL1        0.0702
      2 C          60.9244   86.5618    8.8828 C.ar    1  UNL1        0.0191
      3 C          60.0339   85.5617    8.4887 C.ar    1  UNL1        0.0356
      4 C          59.7455   84.5050    9.3668 C.ar    1  UNL1        0.1318
      5 N          60.3294   84.4851   10.5971 N.ar    1  UNL1       -0.2279
      6 C          61.1991   85.4478   11.0018 C.ar    1  UNL1        0.1149
      7 N          58.8121   83.4699    9.0060 N.pl3   1  UNL1       -0.2932
      8 C          57.6924   83.0993    9.8818 C.3     1  UNL1        0.0923
      9 C          57.7021   81.5869   10.1601 C.3     1  UNL1        0.0252
     10 C          58.2105   80.7357    8.9611 C.3     1  UNL1        0.0472
     11 C          58.1227   81.5192    7.6305 C.3     1  UNL1        0.0252
     12 C          58.9304   82.8265    7.6901 C.3     1  UNL1        0.0923
     13 C          59.6349   80.2080    9.2238 C.3     1  UNL1        0.2054
     14 O          59.9015   80.1841   10.6247 O.3     1  UNL1       -0.4755
     15 C          61.0833   80.6541   11.2157 C.ar    1  UNL1        0.1388
     16 C          61.4769   80.2819   12.5145 C.ar    1  UNL1        0.0369
     17 C          62.6628   80.7799   13.0580 C.ar    1  UNL1        0.0033
     18 C          63.4660   81.6497   12.3171 C.ar    1  UNL1        0.0066
     19 C          63.0898   82.0320   11.0185 C.ar    1  UNL1        0.0785
     20 C          61.8933   81.5260   10.4776 C.ar    1  UNL1        0.0433
     21 C          63.9422   82.9536   10.2353 C.2     1  UNL1        0.3381
     22 O          65.1651   83.0844   10.5131 O.2     1  UNL1       -0.2451
     23 O          63.4008   83.6864    9.1821 O.3     1  UNL1       -0.4771
     24 H          63.9754   84.3202    8.6396 H       1  UNL1        0.2954
     25 C          62.1028   88.6483   11.4159 C.2     1  UNL1        0.2839
     26 O          60.9041   88.8607   11.7405 O.2     1  UNL1       -0.2665
     27 N          62.4469   87.5182   10.5950 N.am    1  UNL1       -0.2766
     28 H          63.4471   87.3693   10.3387 H       1  UNL1        0.1553
     29 C          63.9606   88.4186   14.0582 C.3     1  UNL1        0.0345
     30 C          63.9491   89.4895   13.0097 C.ar    1  UNL1        0.0202
     31 C          63.1310   89.5967   11.8781 C.ar    1  UNL1        0.1946
     32 O          63.3879   90.7254   11.2405 O.2     1  UNL1       -0.4492
     33 C          64.3469   91.3433   11.8858 C.ar    1  UNL1        0.1452
     34 C          64.9358   92.5609   11.5630 C.ar    1  UNL1        0.0375
     35 C          65.9566   93.0431   12.4011 C.ar    1  UNL1        0.0031
     36 C          66.3706   92.3056   13.5437 C.ar    1  UNL1        0.0002
     37 C          65.7429   91.0711   13.8371 C.ar    1  UNL1        0.0028
     38 C          64.7357   90.6233   12.9823 C.ar    1  UNL1        0.0337
     39 C          67.4498   92.8245   14.4219 C.ar    1  UNL1        0.0001
     40 C          67.1663   93.7788   15.4160 C.ar    1  UNL1        0.0013
     41 C          68.1835   94.2673   16.2413 C.ar    1  UNL1        0.0141
     42 C          69.4987   93.8106   16.0876 C.ar    1  UNL1        0.0415
     43 N          70.5382   94.3108   16.9329 N.pl3   1  UNL1       -0.3570
     44 C          69.7884   92.8603   15.1001 C.ar    1  UNL1        0.0141
     45 C          68.7733   92.3708   14.2730 C.ar    1  UNL1        0.0013
     46 H          71.5218   93.9762   16.8257 H       1  UNL1        0.1424
     47 H          70.3318   95.0193   17.6719 H       1  UNL1        0.1424
@<TRIPOS>BOND
     1    29    30    1
     2    30    31   ar
     3    31    25    1
     4    25    26    2
     5    25    27   am
     6    27     1    1
     7     1     2   ar
     8     2     3   ar
     9     3     4   ar
    10     4     7    1
    11     7     8    1
    12     8     9    1
    13     9    10    1
    14    10    13    1
    15    13    14    1
    16    14    15    1
    17    15    16   ar
    18    16    17   ar
    19    17    18   ar
    20    18    19   ar
    21    19    21    1
    22    21    22    2
    23    21    23    1
    24    19    20   ar
    25    10    11    1
    26    11    12    1
    27     4     5   ar
    28     5     6   ar
    29    31    32   ar
    30    32    33   ar
    31    33    34   ar
    32    34    35   ar
    33    35    36   ar
    34    36    39    1
    35    39    40   ar
    36    40    41   ar
    37    41    42   ar
    38    42    43    1
    39    42    44   ar
    40    44    45   ar
    41    36    37   ar
    42    37    38   ar
    43    38    30   ar
    44     6     1   ar
    45    38    33   ar
    46    12     7    1
    47    45    39   ar
    48    20    15   ar
    49    27    28    1
    50    23    24    1
    51    43    46    1
    52    43    47    1
@<TRIPOS>MOLECULE
*****
 47 52 0 0 0
SMALL
GASTEIGER

@<TRIPOS>ATOM
      1 C          60.1459   91.4228    4.6830 C.ar    1  UNL1        0.0702
      2 C          58.8247   91.8493    4.4778 C.ar    1  UNL1        0.0191
      3 C          58.4717   92.4863    3.2870 C.ar    1  UNL1        0.0356
      4 C          59.4514   92.7203    2.3092 C.ar    1  UNL1        0.1318
      5 N          60.7285   92.3046    2.5352 N.ar    1  UNL1       -0.2279
      6 C          61.0948   91.6825    3.6867 C.ar    1  UNL1        0.1149
      7 N          59.1198   93.3505    1.0578 N.pl3   1  UNL1       -0.2932
      8 C          58.0046   92.8782    0.2264 C.3     1  UNL1        0.0923
      9 C          58.4826   92.5936   -1.2074 C.3     1  UNL1        0.0252
     10 C          59.6064   93.5543   -1.6920 C.3     1  UNL1        0.0472
     11 C          59.6470   94.8514   -0.8505 C.3     1  UNL1        0.0252
     12 C          59.8599   94.5501    0.6424 C.3     1  UNL1        0.0923
     13 C          60.9723   92.8399   -1.7120 C.3     1  UNL1        0.2054
     14 O          62.0174   93.7804   -1.9512 O.3     1  UNL1       -0.4755
     15 C          63.1242   93.9677   -1.1105 C.ar    1  UNL1        0.1388
     16 C          64.2425   94.7307   -1.4943 C.ar    1  UNL1        0.0369
     17 C          65.3203   94.8848   -0.6201 C.ar    1  UNL1        0.0033
     18 C          65.2960   94.2836    0.6403 C.ar    1  UNL1        0.0066
     19 C          64.1878   93.5186    1.0414 C.ar    1  UNL1        0.0785
     20 C          63.1054   93.3679    0.1549 C.ar    1  UNL1        0.0433
     21 C          64.1642   92.8824    2.3771 C.2     1  UNL1        0.3381
     22 O          63.9087   93.5655    3.4057 O.2     1  UNL1       -0.2451
     23 O          64.4241   91.5209    2.5108 O.3     1  UNL1       -0.4771
     24 H          64.4105   91.0754    3.4206 H       1  UNL1        0.2954
     25 C          59.7434   89.8579    6.6429 C.2     1  UNL1        0.2839
     26 O          58.5642   89.6090    6.2756 O.2     1  UNL1       -0.2665
     27 N          60.5569   90.7862    5.9040 N.am    1  UNL1       -0.2766
     28 H          61.5283   90.9759    6.2335 H       1  UNL1        0.1553
     29 C          59.1991   86.8155    7.6091 C.3     1  UNL1        0.0345
     30 C          60.0350   87.8727    8.2648 C.ar    1  UNL1        0.0202
     31 C          60.2532   89.1941    7.8552 C.ar    1  UNL1        0.1946
     32 O          60.9999   89.8250    8.7445 O.2     1  UNL1       -0.4492
     33 C          61.2977   88.9746    9.6964 C.ar    1  UNL1        0.1452
     34 C          62.0706   89.2085   10.8284 C.ar    1  UNL1        0.0375
     35 C          62.2636   88.1445   11.7271 C.ar    1  UNL1        0.0031
     36 C          61.6836   86.8699   11.4827 C.ar    1  UNL1        0.0002
     37 C          60.9019   86.6754   10.3187 C.ar    1  UNL1        0.0028
     38 C          60.7337   87.7529    9.4490 C.ar    1  UNL1        0.0337
     39 C          61.8941   85.7533   12.4388 C.ar    1  UNL1        0.0001
     40 C          60.8735   84.8152   12.6791 C.ar    1  UNL1        0.0013
     41 C          61.0727   83.7652   13.5804 C.ar    1  UNL1        0.0141
     42 C          62.2934   83.6350   14.2549 C.ar    1  UNL1        0.0415
     43 N          62.4959   82.5601   15.1763 N.pl3   1  UNL1       -0.3570
     44 C          63.3142   84.5651   14.0206 C.ar    1  UNL1        0.0141
     45 C          63.1173   85.6165   13.1206 C.ar    1  UNL1        0.0013
     46 H          63.4026   82.4550   15.6840 H       1  UNL1        0.1424
     47 H          61.7408   81.8618   15.3574 H       1  UNL1        0.1424
@<TRIPOS>BOND
     1    29    30    1
     2    30    31   ar
     3    31    25    1
     4    25    26    2
     5    25    27   am
     6    27     1    1
     7     1     2   ar
     8     2     3   ar
     9     3     4   ar
    10     4     7    1
    11     7     8    1
    12     8     9    1
    13     9    10    1
    14    10    13    1
    15    13    14    1
    16    14    15    1
    17    15    16   ar
    18    16    17   ar
    19    17    18   ar
    20    18    19   ar
    21    19    21    1
    22    21    22    2
    23    21    23    1
    24    19    20   ar
    25    10    11    1
    26    11    12    1
    27     4     5   ar
    28     5     6   ar
    29    31    32   ar
    30    32    33   ar
    31    33    34   ar
    32    34    35   ar
    33    35    36   ar
    34    36    39    1
    35    39    40   ar
    36    40    41   ar
    37    41    42   ar
    38    42    43    1
    39    42    44   ar
    40    44    45   ar
    41    36    37   ar
    42    37    38   ar
    43    38    30   ar
    44     6     1   ar
    45    38    33   ar
    46    12     7    1
    47    45    39   ar
    48    20    15   ar
    49    27    28    1
    50    23    24    1
    51    43    46    1
    52    43    47    1
