@<TRIPOS>MOLECULE
*****
 62 66 0 0 0
SMALL
GASTEIGER

@<TRIPOS>ATOM
      1 C         -18.8244  -10.1442   -8.7188 C.ar    1  UNL1        0.0610
      2 C         -18.8013  -11.0829   -9.7595 C.ar    1  UNL1        0.0079
      3 C         -19.7387  -11.0254  -10.7859 C.ar    1  UNL1        0.0390
      4 C         -20.7390  -10.0502  -10.7723 C.ar    1  UNL1        0.1600
      5 C         -20.7573   -9.0731   -9.7622 C.ar    1  UNL1        0.1055
      6 C         -19.7661   -9.0821   -8.7472 C.ar    1  UNL1        0.0974
      7 N         -18.1529   -9.6529   -6.3349 N.am    1  UNL1       -0.3040
      8 C         -17.9272  -10.3669   -7.5657 C.2     1  UNL1        0.2460
      9 O         -17.0060  -11.2216   -7.6584 O.2     1  UNL1       -0.2701
     10 H         -18.9956   -9.0335   -6.3021 H       1  UNL1        0.1496
     11 C         -16.2689  -10.8756   -5.2919 C.3     1  UNL1        0.0196
     12 C         -17.3164   -9.7575   -5.1240 C.3     1  UNL1        0.0572
     13 C         -16.6235   -8.4118   -4.8385 C.3     1  UNL1        0.0196
     14 C         -18.2179  -10.1105   -3.9233 C.3     1  UNL1        0.0196
     15 C         -19.6770   -7.9712   -7.7611 C.2     1  UNL1        0.3395
     16 O         -20.5056   -7.8748   -6.8178 O.2     1  UNL1       -0.2450
     17 O         -18.6787   -7.0087   -7.8844 O.3     1  UNL1       -0.4771
     18 H         -18.6073   -6.2453   -7.2225 H       1  UNL1        0.2954
     19 N         -21.7984   -8.0884   -9.7658 N.pl3   1  UNL1       -0.2118
     20 H         -21.5364   -7.0782   -9.7353 H       1  UNL1        0.1738
     21 S         -23.4212   -8.5267   -9.3321 S.O2    1  UNL1        0.0745
     22 O         -23.6974   -8.1287   -7.9110 O.2     1  UNL1       -0.1499
     23 O         -23.5605  -10.0191   -9.4221 O.2     1  UNL1       -0.1499
     24 C         -24.5651   -7.6950  -10.4046 C.ar    1  UNL1        0.1356
     25 C         -24.0399   -6.7784  -11.3242 C.ar    1  UNL1        0.0207
     26 C         -24.8651   -6.1244  -12.2375 C.ar    1  UNL1       -0.0028
     27 C         -26.2455   -6.3598  -12.2511 C.ar    1  UNL1       -0.0216
     28 C         -26.7817   -7.2755  -11.3224 C.ar    1  UNL1        0.0085
     29 C         -25.9561   -7.9458  -10.4106 C.ar    1  UNL1        0.0762
     30 CL        -26.7288   -9.0949   -9.3250 Cl      1  UNL1       -0.0809
     31 C         -27.0815   -5.5907  -13.2599 C.3     1  UNL1        0.0224
     32 C         -27.8432   -6.4210  -14.2838 C.3     1  UNL1        0.0047
     33 C         -26.6352   -5.5993  -14.7160 C.3     1  UNL1        0.0047
     34 O         -21.7028  -10.0158  -11.7856 O.3     1  UNL1       -0.4513
     35 C         -21.5199  -10.5140  -13.0866 C.ar    1  UNL1        0.1580
     36 C         -21.3586  -11.8879  -13.3519 C.ar    1  UNL1        0.0677
     37 C         -21.3483  -12.3590  -14.6658 C.ar    1  UNL1        0.1398
     38 F         -21.2735  -13.6959  -14.8890 F       1  UNL1       -0.2044
     39 C         -21.4936  -11.4645  -15.7388 C.ar    1  UNL1        0.0175
     40 C         -21.5877  -10.0889  -15.4777 C.ar    1  UNL1        0.0130
     41 C         -21.5878   -9.6157  -14.1618 C.ar    1  UNL1        0.0919
     42 CL        -21.7859   -7.8944  -13.8703 Cl      1  UNL1       -0.0791
     43 C         -21.7451  -11.9864  -17.1295 C.3     1  UNL1        0.1382
     44 C         -23.0925  -11.5280  -17.6039 C.2     1  UNL1        0.3234
     45 O         -23.2218  -10.3806  -18.1104 O.2     1  UNL1       -0.2497
     46 O         -24.1990  -12.3759  -17.4582 O.3     1  UNL1       -0.4215
     47 C         -24.9016  -12.5837  -16.2342 C.3     1  UNL1        0.3207
     48 O         -24.5688  -11.5140  -15.3660 O.3     1  UNL1       -0.3070
     49 C         -25.2988  -11.5964  -14.1548 C.3     1  UNL1        0.2456
     50 C         -24.8967  -12.8662  -13.3714 C.3     1  UNL1        0.1781
     51 O         -25.5990  -12.9631  -12.1561 O.3     1  UNL1       -0.3790
     52 C         -25.1366  -14.1129  -14.2376 C.3     1  UNL1        0.1733
     53 O         -24.6078  -15.2366  -13.5829 O.3     1  UNL1       -0.3793
     54 C         -24.4658  -13.9302  -15.6117 C.3     1  UNL1        0.2106
     55 O         -24.8318  -14.9874  -16.4603 O.3     1  UNL1       -0.3766
     56 H         -26.5687  -12.9870  -12.3692 H       1  UNL1        0.2106
     57 H         -25.0781  -16.0322  -13.9447 H       1  UNL1        0.2105
     58 H         -24.1973  -15.7312  -16.2863 H       1  UNL1        0.2107
     59 C         -24.9952  -10.3771  -13.3364 C.2     1  UNL1        0.3439
     60 O         -25.2315   -9.2291  -13.7996 O.2     1  UNL1       -0.2475
     61 O         -24.4840  -10.5141  -12.0489 O.3     1  UNL1       -0.4785
     62 H         -24.2885   -9.7008  -11.4778 H       1  UNL1        0.2951
@<TRIPOS>BOND
     1    11    12    1
     2    12    13    1
     3    12    14    1
     4    12     7    1
     5     7     8   am
     6     8     9    2
     7     8     1    1
     8     1     2   ar
     9     2     3   ar
    10     3     4   ar
    11     4    34    1
    12    34    35    1
    13    35    36   ar
    14    36    37   ar
    15    37    38    1
    16    37    39   ar
    17    39    43    1
    18    43    44    1
    19    44    45    2
    20    44    46    1
    21    46    47    1
    22    47    48    1
    23    48    49    1
    24    49    59    1
    25    59    60    2
    26    59    61    1
    27    49    50    1
    28    50    51    1
    29    50    52    1
    30    52    53    1
    31    52    54    1
    32    54    55    1
    33    39    40   ar
    34    40    41   ar
    35    41    42    1
    36     4     5   ar
    37     5    19    1
    38    19    21    1
    39    21    22    2
    40    21    23    2
    41    21    24    1
    42    24    25   ar
    43    25    26   ar
    44    26    27   ar
    45    27    31    1
    46    31    32    1
    47    32    33    1
    48    27    28   ar
    49    28    29   ar
    50    29    30    1
    51     5     6   ar
    52     6    15    1
    53    15    16    2
    54    15    17    1
    55     6     1   ar
    56    41    35   ar
    57    29    24   ar
    58    54    47    1
    59    33    31    1
    60     7    10    1
    61    61    62    1
    62    51    56    1
    63    53    57    1
    64    55    58    1
    65    19    20    1
    66    17    18    1
@<TRIPOS>MOLECULE
*****
 62 66 0 0 0
SMALL
GASTEIGER

@<TRIPOS>ATOM
      1 C         -19.8417   -8.6334   -8.1335 C.ar    1  UNL1        0.0610
      2 C         -19.0095   -8.7688   -9.2531 C.ar    1  UNL1        0.0079
      3 C         -19.4627   -9.4160  -10.3983 C.ar    1  UNL1        0.0390
      4 C         -20.7440   -9.9719  -10.4326 C.ar    1  UNL1        0.1600
      5 C         -21.6113   -9.8124   -9.3382 C.ar    1  UNL1        0.1055
      6 C         -21.1828   -9.0961   -8.1908 C.ar    1  UNL1        0.0974
      7 N         -18.1868   -8.8348   -6.2372 N.am    1  UNL1       -0.3040
      8 C         -19.2460   -8.1066   -6.8878 C.2     1  UNL1        0.2460
      9 O         -19.6379   -6.9960   -6.4396 O.2     1  UNL1       -0.2701
     10 H         -17.8480   -9.6984   -6.7214 H       1  UNL1        0.1496
     11 C         -16.8083   -7.0880   -5.1507 C.3     1  UNL1        0.0196
     12 C         -17.5303   -8.4386   -4.9767 C.3     1  UNL1        0.0572
     13 C         -18.5678   -8.3499   -3.8417 C.3     1  UNL1        0.0196
     14 C         -16.4824   -9.5067   -4.6023 C.3     1  UNL1        0.0196
     15 C         -22.1336   -8.7851   -7.0893 C.2     1  UNL1        0.3395
     16 O         -21.8100   -8.9624   -5.8853 O.2     1  UNL1       -0.2450
     17 O         -23.4083   -8.3085   -7.3830 O.3     1  UNL1       -0.4771
     18 H         -24.0672   -8.0952   -6.6440 H       1  UNL1        0.2954
     19 N         -22.9176  -10.3988   -9.3946 N.pl3   1  UNL1       -0.2118
     20 H         -23.0143  -11.4282   -9.2496 H       1  UNL1        0.1738
     21 S         -24.2256   -9.5538  -10.1620 S.O2    1  UNL1        0.0745
     22 O         -23.8454   -8.1193  -10.3903 O.2     1  UNL1       -0.1499
     23 O         -25.4156   -9.5689   -9.2463 O.2     1  UNL1       -0.1499
     24 C         -24.5885  -10.3175  -11.7225 C.ar    1  UNL1        0.1356
     25 C         -24.3455  -11.6917  -11.8418 C.ar    1  UNL1        0.0207
     26 C         -24.6544  -12.3763  -13.0161 C.ar    1  UNL1       -0.0028
     27 C         -25.2069  -11.7032  -14.1128 C.ar    1  UNL1       -0.0216
     28 C         -25.4464  -10.3180  -14.0019 C.ar    1  UNL1        0.0085
     29 C         -25.1503   -9.6266  -12.8201 C.ar    1  UNL1        0.0762
     30 CL        -25.5274   -7.9083  -12.7813 Cl      1  UNL1       -0.0809
     31 C         -25.4934  -12.5136  -15.3655 C.3     1  UNL1        0.0224
     32 C         -24.9537  -13.9370  -15.3911 C.3     1  UNL1        0.0047
     33 C         -24.3232  -12.8671  -16.2738 C.3     1  UNL1        0.0047
     34 O         -21.1854  -10.6540  -11.5713 O.3     1  UNL1       -0.4513
     35 C         -21.5819  -10.0419  -12.7723 C.ar    1  UNL1        0.1580
     36 C         -21.8882   -8.6695  -12.8535 C.ar    1  UNL1        0.0677
     37 C         -22.1138   -8.0663  -14.0919 C.ar    1  UNL1        0.1398
     38 F         -22.3260   -6.7267  -14.1469 F       1  UNL1       -0.2044
     39 C         -22.0427   -8.8255  -15.2715 C.ar    1  UNL1        0.0175
     40 C         -21.8032  -10.2055  -15.1862 C.ar    1  UNL1        0.0130
     41 C         -21.5872  -10.8119  -13.9447 C.ar    1  UNL1        0.0919
     42 CL        -21.2129  -12.5275  -13.8827 Cl      1  UNL1       -0.0791
     43 C         -22.0242   -8.1390  -16.6124 C.3     1  UNL1        0.1382
     44 C         -23.3938   -8.1884  -17.2229 C.2     1  UNL1        0.3234
     45 O         -24.1621   -9.1534  -16.9616 O.2     1  UNL1       -0.2497
     46 O         -23.7958   -7.1683  -18.0959 O.3     1  UNL1       -0.4215
     47 C         -24.4287   -5.9573  -17.6859 C.3     1  UNL1        0.3207
     48 O         -25.1795   -6.2440  -16.5184 O.3     1  UNL1       -0.3070
     49 C         -25.7696   -5.0687  -15.9922 C.3     1  UNL1        0.2456
     50 C         -26.8068   -4.4981  -16.9854 C.3     1  UNL1        0.1781
     51 O         -27.4177   -3.3366  -16.4783 O.3     1  UNL1       -0.3790
     52 C         -26.1338   -4.2112  -18.3370 C.3     1  UNL1        0.1733
     53 O         -27.1172   -3.8598  -19.2752 O.3     1  UNL1       -0.3793
     54 C         -25.3639   -5.4577  -18.8113 C.3     1  UNL1        0.2106
     55 O         -24.6087   -5.1409  -19.9519 O.3     1  UNL1       -0.3766
     56 H         -26.7027   -2.6681  -16.3110 H       1  UNL1        0.2106
     57 H         -26.6655   -3.3385  -19.9888 H       1  UNL1        0.2105
     58 H         -25.2076   -5.2532  -20.7360 H       1  UNL1        0.2107
     59 C         -26.4431   -5.4168  -14.6984 C.2     1  UNL1        0.3439
     60 O         -27.4209   -6.2118  -14.6878 O.2     1  UNL1       -0.2475
     61 O         -25.9657   -4.8883  -13.5025 O.3     1  UNL1       -0.4785
     62 H         -26.3998   -5.1261  -12.6188 H       1  UNL1        0.2951
@<TRIPOS>BOND
     1    11    12    1
     2    12    13    1
     3    12    14    1
     4    12     7    1
     5     7     8   am
     6     8     9    2
     7     8     1    1
     8     1     2   ar
     9     2     3   ar
    10     3     4   ar
    11     4    34    1
    12    34    35    1
    13    35    36   ar
    14    36    37   ar
    15    37    38    1
    16    37    39   ar
    17    39    43    1
    18    43    44    1
    19    44    45    2
    20    44    46    1
    21    46    47    1
    22    47    48    1
    23    48    49    1
    24    49    59    1
    25    59    60    2
    26    59    61    1
    27    49    50    1
    28    50    51    1
    29    50    52    1
    30    52    53    1
    31    52    54    1
    32    54    55    1
    33    39    40   ar
    34    40    41   ar
    35    41    42    1
    36     4     5   ar
    37     5    19    1
    38    19    21    1
    39    21    22    2
    40    21    23    2
    41    21    24    1
    42    24    25   ar
    43    25    26   ar
    44    26    27   ar
    45    27    31    1
    46    31    32    1
    47    32    33    1
    48    27    28   ar
    49    28    29   ar
    50    29    30    1
    51     5     6   ar
    52     6    15    1
    53    15    16    2
    54    15    17    1
    55     6     1   ar
    56    41    35   ar
    57    29    24   ar
    58    54    47    1
    59    33    31    1
    60     7    10    1
    61    61    62    1
    62    51    56    1
    63    53    57    1
    64    55    58    1
    65    19    20    1
    66    17    18    1
@<TRIPOS>MOLECULE
*****
 62 66 0 0 0
SMALL
GASTEIGER

@<TRIPOS>ATOM
      1 C         -27.1643   -6.8438  -13.9712 C.ar    1  UNL1        0.0610
      2 C         -27.1051   -7.9171  -13.0718 C.ar    1  UNL1        0.0079
      3 C         -25.9017   -8.5715  -12.8283 C.ar    1  UNL1        0.0390
      4 C         -24.7420   -8.1884  -13.5067 C.ar    1  UNL1        0.1600
      5 C         -24.7676   -7.0886  -14.3814 C.ar    1  UNL1        0.1055
      6 C         -25.9749   -6.3719  -14.5863 C.ar    1  UNL1        0.0974
      7 N         -28.6007   -5.0919  -15.0862 N.am    1  UNL1       -0.3040
      8 C         -28.4964   -6.3131  -14.3289 C.2     1  UNL1        0.2460
      9 O         -29.5255   -6.9673  -14.0113 O.2     1  UNL1       -0.2701
     10 H         -27.7011   -4.6574  -15.3978 H       1  UNL1        0.1496
     11 C         -30.9486   -5.4972  -15.7609 C.3     1  UNL1        0.0196
     12 C         -29.8639   -4.4389  -15.4796 C.3     1  UNL1        0.0572
     13 C         -30.3304   -3.4736  -14.3737 C.3     1  UNL1        0.0196
     14 C         -29.6265   -3.6292  -16.7708 C.3     1  UNL1        0.0196
     15 C         -25.9881   -5.1168  -15.3854 C.2     1  UNL1        0.3395
     16 O         -26.0858   -3.9934  -14.8249 O.2     1  UNL1       -0.2450
     17 O         -25.9108   -5.1744  -16.7743 O.3     1  UNL1       -0.4771
     18 H         -25.9215   -4.3286  -17.3316 H       1  UNL1        0.2954
     19 N         -23.5668   -6.7205  -15.0714 N.pl3   1  UNL1       -0.2118
     20 H         -23.0710   -5.8463  -14.7884 H       1  UNL1        0.1738
     21 S         -23.2084   -7.3970  -16.6294 S.O2    1  UNL1        0.0745
     22 O         -22.0655   -6.6551  -17.2600 O.2     1  UNL1       -0.1499
     23 O         -24.4066   -7.2277  -17.5185 O.2     1  UNL1       -0.1499
     24 C         -22.7647   -9.1056  -16.4445 C.ar    1  UNL1        0.1356
     25 C         -23.7988  -10.0497  -16.4804 C.ar    1  UNL1        0.0207
     26 C         -23.5284  -11.4145  -16.3966 C.ar    1  UNL1       -0.0028
     27 C         -22.2132  -11.8767  -16.2631 C.ar    1  UNL1       -0.0216
     28 C         -21.1683  -10.9309  -16.2182 C.ar    1  UNL1        0.0085
     29 C         -21.4322   -9.5585  -16.3149 C.ar    1  UNL1        0.0762
     30 CL        -20.0479   -8.4727  -16.2869 Cl      1  UNL1       -0.0809
     31 C         -22.0015  -13.3771  -16.1535 C.3     1  UNL1        0.0224
     32 C         -23.0515  -14.1554  -15.3727 C.3     1  UNL1        0.0047
     33 C         -21.6596  -13.9549  -14.7865 C.3     1  UNL1        0.0047
     34 O         -23.5405   -8.8707  -13.2883 O.3     1  UNL1       -0.4513
     35 C         -22.5425   -8.4721  -12.3829 C.ar    1  UNL1        0.1580
     36 C         -22.4873   -7.1708  -11.8468 C.ar    1  UNL1        0.0677
     37 C         -21.5857   -6.8629  -10.8266 C.ar    1  UNL1        0.1398
     38 F         -21.6108   -5.6238  -10.2728 F       1  UNL1       -0.2044
     39 C         -20.7189   -7.8490  -10.3277 C.ar    1  UNL1        0.0175
     40 C         -20.7275   -9.1272  -10.9067 C.ar    1  UNL1        0.0130
     41 C         -21.6237   -9.4331  -11.9357 C.ar    1  UNL1        0.0919
     42 CL        -21.6599  -11.0660  -12.5833 Cl      1  UNL1       -0.0791
     43 C         -19.9373   -7.5994   -9.0642 C.3     1  UNL1        0.1382
     44 C         -20.5988   -8.3015   -7.9152 C.2     1  UNL1        0.3234
     45 O         -21.8570   -8.3292   -7.8381 O.2     1  UNL1       -0.2497
     46 O         -19.8068   -8.9019   -6.9270 O.3     1  UNL1       -0.4215
     47 C         -19.3667   -8.2488   -5.7375 C.3     1  UNL1        0.3207
     48 O         -17.9741   -8.4821   -5.6147 O.3     1  UNL1       -0.3070
     49 C         -17.4386   -7.7882   -4.5020 C.3     1  UNL1        0.2456
     50 C         -18.0375   -8.3380   -3.1879 C.3     1  UNL1        0.1781
     51 O         -17.5095   -7.6732   -2.0659 O.3     1  UNL1       -0.3790
     52 C         -19.5692   -8.2159   -3.2199 C.3     1  UNL1        0.1733
     53 O         -20.1065   -8.8737   -2.1022 O.3     1  UNL1       -0.3793
     54 C         -20.1148   -8.8373   -4.5191 C.3     1  UNL1        0.2106
     55 O         -21.4888   -8.5700   -4.6298 O.3     1  UNL1       -0.3766
     56 H         -17.7224   -6.7078   -2.1595 H       1  UNL1        0.2106
     57 H         -21.0047   -8.4842   -1.9393 H       1  UNL1        0.2105
     58 H         -21.9638   -9.2833   -4.1282 H       1  UNL1        0.2107
     59 C         -15.9507   -7.9756   -4.4998 C.2     1  UNL1        0.3439
     60 O         -15.4335   -8.9255   -3.8529 O.2     1  UNL1       -0.2475
     61 O         -15.1417   -7.1197   -5.2418 O.3     1  UNL1       -0.4785
     62 H         -14.1365   -7.2427   -5.2631 H       1  UNL1        0.2951
@<TRIPOS>BOND
     1    11    12    1
     2    12    13    1
     3    12    14    1
     4    12     7    1
     5     7     8   am
     6     8     9    2
     7     8     1    1
     8     1     2   ar
     9     2     3   ar
    10     3     4   ar
    11     4    34    1
    12    34    35    1
    13    35    36   ar
    14    36    37   ar
    15    37    38    1
    16    37    39   ar
    17    39    43    1
    18    43    44    1
    19    44    45    2
    20    44    46    1
    21    46    47    1
    22    47    48    1
    23    48    49    1
    24    49    59    1
    25    59    60    2
    26    59    61    1
    27    49    50    1
    28    50    51    1
    29    50    52    1
    30    52    53    1
    31    52    54    1
    32    54    55    1
    33    39    40   ar
    34    40    41   ar
    35    41    42    1
    36     4     5   ar
    37     5    19    1
    38    19    21    1
    39    21    22    2
    40    21    23    2
    41    21    24    1
    42    24    25   ar
    43    25    26   ar
    44    26    27   ar
    45    27    31    1
    46    31    32    1
    47    32    33    1
    48    27    28   ar
    49    28    29   ar
    50    29    30    1
    51     5     6   ar
    52     6    15    1
    53    15    16    2
    54    15    17    1
    55     6     1   ar
    56    41    35   ar
    57    29    24   ar
    58    54    47    1
    59    33    31    1
    60     7    10    1
    61    61    62    1
    62    51    56    1
    63    53    57    1
    64    55    58    1
    65    19    20    1
    66    17    18    1
@<TRIPOS>MOLECULE
*****
 62 66 0 0 0
SMALL
GASTEIGER

@<TRIPOS>ATOM
      1 C         -25.7898   -5.4043  -15.6659 C.ar    1  UNL1        0.0610
      2 C         -24.7554   -6.0219  -16.3823 C.ar    1  UNL1        0.0079
      3 C         -23.9087   -6.9334  -15.7595 C.ar    1  UNL1        0.0390
      4 C         -24.0575   -7.2175  -14.3997 C.ar    1  UNL1        0.1600
      5 C         -25.1129   -6.6429  -13.6708 C.ar    1  UNL1        0.1055
      6 C         -26.0229   -5.7634  -14.3122 C.ar    1  UNL1        0.0974
      7 N         -27.8870   -4.5319  -16.7684 N.am    1  UNL1       -0.3040
      8 C         -26.5334   -4.3117  -16.3271 C.2     1  UNL1        0.2460
      9 O         -25.9892   -3.1816  -16.4478 O.2     1  UNL1       -0.2701
     10 H         -28.3048   -5.4651  -16.5458 H       1  UNL1        0.1496
     11 C         -29.1494   -2.4185  -16.4997 C.3     1  UNL1        0.0196
     12 C         -28.7266   -3.5407  -17.4681 C.3     1  UNL1        0.0572
     13 C         -27.9647   -2.9526  -18.6706 C.3     1  UNL1        0.0196
     14 C         -29.9988   -4.2414  -17.9872 C.3     1  UNL1        0.0196
     15 C         -27.2316   -5.2675  -13.5998 C.2     1  UNL1        0.3395
     16 O         -27.1575   -4.8443  -12.4162 O.2     1  UNL1       -0.2450
     17 O         -28.4705   -5.2847  -14.2348 O.3     1  UNL1       -0.4771
     18 H         -29.3024   -4.9530  -13.7617 H       1  UNL1        0.2954
     19 N         -25.2393   -6.9438  -12.2755 N.pl3   1  UNL1       -0.2118
     20 H         -24.5475   -6.5369  -11.6077 H       1  UNL1        0.1738
     21 S         -26.1730   -8.3115  -11.7546 S.O2    1  UNL1        0.0745
     22 O         -27.5961   -8.1643  -12.2101 O.2     1  UNL1       -0.1499
     23 O         -26.1776   -8.3516  -10.2535 O.2     1  UNL1       -0.1499
     24 C         -25.4878   -9.7944  -12.4486 C.ar    1  UNL1        0.1356
     25 C         -25.8881  -10.1471  -13.7437 C.ar    1  UNL1        0.0207
     26 C         -25.3551  -11.2668  -14.3802 C.ar    1  UNL1       -0.0028
     27 C         -24.4116  -12.0756  -13.7347 C.ar    1  UNL1       -0.0216
     28 C         -24.0104  -11.7305  -12.4276 C.ar    1  UNL1        0.0085
     29 C         -24.5325  -10.5992  -11.7873 C.ar    1  UNL1        0.0762
     30 CL        -23.9305  -10.2433  -10.1727 Cl      1  UNL1       -0.0809
     31 C         -23.8956  -13.2920  -14.4845 C.3     1  UNL1        0.0224
     32 C         -24.3909  -13.4689  -15.9133 C.3     1  UNL1        0.0047
     33 C         -24.8838  -14.4028  -14.8149 C.3     1  UNL1        0.0047
     34 O         -23.1828   -8.1066  -13.7662 O.3     1  UNL1       -0.4513
     35 C         -22.3017   -7.7643  -12.7266 C.ar    1  UNL1        0.1580
     36 C         -22.3590   -6.5200  -12.0690 C.ar    1  UNL1        0.0677
     37 C         -21.5815   -6.2823  -10.9344 C.ar    1  UNL1        0.1398
     38 F         -21.7176   -5.1043  -10.2736 F       1  UNL1       -0.2044
     39 C         -20.7283   -7.2823  -10.4397 C.ar    1  UNL1        0.0175
     40 C         -20.6213   -8.4978  -11.1326 C.ar    1  UNL1        0.0130
     41 C         -21.3927   -8.7325  -12.2752 C.ar    1  UNL1        0.0919
     42 CL        -21.2905  -10.2952  -13.0719 Cl      1  UNL1       -0.0791
     43 C         -20.0925   -7.1302   -9.0823 C.3     1  UNL1        0.1382
     44 C         -20.6974   -8.1181   -8.1289 C.2     1  UNL1        0.3234
     45 O         -21.9343   -8.3578   -8.1756 O.2     1  UNL1       -0.2497
     46 O         -19.8805   -8.7487   -7.1805 O.3     1  UNL1       -0.4215
     47 C         -19.4884   -8.1673   -5.9381 C.3     1  UNL1        0.3207
     48 O         -18.0902   -8.3560   -5.8029 O.3     1  UNL1       -0.3070
     49 C         -17.6030   -7.7248   -4.6320 C.3     1  UNL1        0.2456
     50 C         -18.2040   -8.3908   -3.3739 C.3     1  UNL1        0.1781
     51 O         -17.7234   -7.7896   -2.1961 O.3     1  UNL1       -0.3790
     52 C         -19.7384   -8.3249   -3.4296 C.3     1  UNL1        0.1733
     53 O         -20.2701   -9.0820   -2.3736 O.3     1  UNL1       -0.3793
     54 C         -20.2351   -8.8706   -4.7813 C.3     1  UNL1        0.2106
     55 O         -21.6163   -8.6483   -4.9017 O.3     1  UNL1       -0.3766
     56 H         -17.9724   -6.8287   -2.2246 H       1  UNL1        0.2106
     57 H         -21.1857   -8.7395   -2.2023 H       1  UNL1        0.2105
     58 H         -22.0721   -9.4135   -4.4628 H       1  UNL1        0.2107
     59 C         -16.1093   -7.8553   -4.6117 C.2     1  UNL1        0.3439
     60 O         -15.5630   -8.7687   -3.9367 O.2     1  UNL1       -0.2475
     61 O         -15.3257   -6.9878   -5.3674 O.3     1  UNL1       -0.4785
     62 H         -14.3165   -7.0730   -5.3765 H       1  UNL1        0.2951
@<TRIPOS>BOND
     1    11    12    1
     2    12    13    1
     3    12    14    1
     4    12     7    1
     5     7     8   am
     6     8     9    2
     7     8     1    1
     8     1     2   ar
     9     2     3   ar
    10     3     4   ar
    11     4    34    1
    12    34    35    1
    13    35    36   ar
    14    36    37   ar
    15    37    38    1
    16    37    39   ar
    17    39    43    1
    18    43    44    1
    19    44    45    2
    20    44    46    1
    21    46    47    1
    22    47    48    1
    23    48    49    1
    24    49    59    1
    25    59    60    2
    26    59    61    1
    27    49    50    1
    28    50    51    1
    29    50    52    1
    30    52    53    1
    31    52    54    1
    32    54    55    1
    33    39    40   ar
    34    40    41   ar
    35    41    42    1
    36     4     5   ar
    37     5    19    1
    38    19    21    1
    39    21    22    2
    40    21    23    2
    41    21    24    1
    42    24    25   ar
    43    25    26   ar
    44    26    27   ar
    45    27    31    1
    46    31    32    1
    47    32    33    1
    48    27    28   ar
    49    28    29   ar
    50    29    30    1
    51     5     6   ar
    52     6    15    1
    53    15    16    2
    54    15    17    1
    55     6     1   ar
    56    41    35   ar
    57    29    24   ar
    58    54    47    1
    59    33    31    1
    60     7    10    1
    61    61    62    1
    62    51    56    1
    63    53    57    1
    64    55    58    1
    65    19    20    1
    66    17    18    1
@<TRIPOS>MOLECULE
*****
 62 66 0 0 0
SMALL
GASTEIGER

@<TRIPOS>ATOM
      1 C         -27.5299   -6.2988  -14.4395 C.ar    1  UNL1        0.0610
      2 C         -27.7408   -7.3912  -13.5871 C.ar    1  UNL1        0.0079
      3 C         -26.6831   -8.2163  -13.2182 C.ar    1  UNL1        0.0390
      4 C         -25.4010   -7.9861  -13.7235 C.ar    1  UNL1        0.1600
      5 C         -25.1568   -6.8728  -14.5459 C.ar    1  UNL1        0.1055
      6 C         -26.2149   -5.9866  -14.8744 C.ar    1  UNL1        0.0974
      7 N         -28.5484   -4.4866  -15.8725 N.am    1  UNL1       -0.3040
      8 C         -28.7156   -5.5750  -14.9436 C.2     1  UNL1        0.2460
      9 O         -29.8646   -5.9565  -14.5939 O.2     1  UNL1       -0.2701
     10 H         -27.5713   -4.2913  -16.1921 H       1  UNL1        0.1496
     11 C         -30.5007   -3.0802  -15.2869 C.3     1  UNL1        0.0196
     12 C         -29.6409   -3.6633  -16.4255 C.3     1  UNL1        0.0572
     13 C         -29.0650   -2.5310  -17.2966 C.3     1  UNL1        0.0196
     14 C         -30.5396   -4.5537  -17.3079 C.3     1  UNL1        0.0196
     15 C         -25.9472   -4.7232  -15.6137 C.2     1  UNL1        0.3395
     16 O         -26.0854   -3.6037  -15.0538 O.2     1  UNL1       -0.2450
     17 O         -25.5558   -4.7670  -16.9490 O.3     1  UNL1       -0.4771
     18 H         -25.3728   -3.9154  -17.4658 H       1  UNL1        0.2954
     19 N         -23.8349   -6.6630  -15.0579 N.pl3   1  UNL1       -0.2118
     20 H         -23.2782   -5.8556  -14.6997 H       1  UNL1        0.1738
     21 S         -23.3498   -7.3907  -16.5575 S.O2    1  UNL1        0.0745
     22 O         -22.1938   -6.6335  -17.1446 O.2     1  UNL1       -0.1499
     23 O         -24.4911   -7.3043  -17.5296 O.2     1  UNL1       -0.1499
     24 C         -22.8603   -9.0720  -16.2680 C.ar    1  UNL1        0.1356
     25 C         -23.4818  -10.0672  -17.0329 C.ar    1  UNL1        0.0207
     26 C         -23.1149  -11.4058  -16.9044 C.ar    1  UNL1       -0.0028
     27 C         -22.1208  -11.7915  -15.9966 C.ar    1  UNL1       -0.0216
     28 C         -21.4969  -10.7953  -15.2177 C.ar    1  UNL1        0.0085
     29 C         -21.8518   -9.4467  -15.3514 C.ar    1  UNL1        0.0762
     30 CL        -20.9796   -8.2864  -14.3568 Cl      1  UNL1       -0.0809
     31 C         -21.7939  -13.2718  -15.8967 C.3     1  UNL1        0.0224
     32 C         -22.7986  -14.1398  -15.1516 C.3     1  UNL1        0.0047
     33 C         -21.4422  -13.8373  -14.5270 C.3     1  UNL1        0.0047
     34 O         -24.3456   -8.8378  -13.3808 O.3     1  UNL1       -0.4513
     35 C         -23.5778   -8.7355  -12.2084 C.ar    1  UNL1        0.1580
     36 C         -23.3112   -7.4996  -11.5876 C.ar    1  UNL1        0.0677
     37 C         -22.6901   -7.4541  -10.3383 C.ar    1  UNL1        0.1398
     38 F         -22.5196   -6.2541   -9.7272 F       1  UNL1       -0.2044
     39 C         -22.3193   -8.6433   -9.6894 C.ar    1  UNL1        0.0175
     40 C         -22.5244   -9.8712  -10.3368 C.ar    1  UNL1        0.0130
     41 C         -23.1375   -9.9164  -11.5929 C.ar    1  UNL1        0.0919
     42 CL        -23.4490  -11.4766  -12.3386 Cl      1  UNL1       -0.0791
     43 C         -21.8941   -8.6151   -8.2444 C.3     1  UNL1        0.1382
     44 C         -20.4415   -8.2511   -8.1534 C.2     1  UNL1        0.3234
     45 O         -19.6674   -8.5167   -9.1125 O.2     1  UNL1       -0.2497
     46 O         -19.9570   -7.6371   -6.9904 O.3     1  UNL1       -0.4215
     47 C         -19.4615   -8.3402   -5.8523 C.3     1  UNL1        0.3207
     48 O         -20.4964   -8.3655   -4.8842 O.3     1  UNL1       -0.3070
     49 C         -20.1153   -9.1276   -3.7526 C.3     1  UNL1        0.2456
     50 C         -18.9278   -8.4550   -3.0279 C.3     1  UNL1        0.1781
     51 O         -18.5398   -9.1869   -1.8907 O.3     1  UNL1       -0.3790
     52 C         -17.7469   -8.2933   -3.9981 C.3     1  UNL1        0.1733
     53 O         -16.7447   -7.5292   -3.3795 O.3     1  UNL1       -0.3793
     54 C         -18.2238   -7.6038   -5.2898 C.3     1  UNL1        0.2106
     55 O         -17.1905   -7.6151   -6.2406 O.3     1  UNL1       -0.3766
     56 H         -18.2835  -10.0980   -2.1913 H       1  UNL1        0.2106
     57 H         -15.8908   -7.7438   -3.8376 H       1  UNL1        0.2105
     58 H         -16.6252   -6.8183   -6.0632 H       1  UNL1        0.2107
     59 C         -21.2910   -9.2175   -2.8260 C.2     1  UNL1        0.3439
     60 O         -21.7521  -10.3431   -2.4962 O.2     1  UNL1       -0.2475
     61 O         -21.8525   -8.0569   -2.3014 O.3     1  UNL1       -0.4785
     62 H         -22.6368   -8.1016   -1.6621 H       1  UNL1        0.2951
@<TRIPOS>BOND
     1    11    12    1
     2    12    13    1
     3    12    14    1
     4    12     7    1
     5     7     8   am
     6     8     9    2
     7     8     1    1
     8     1     2   ar
     9     2     3   ar
    10     3     4   ar
    11     4    34    1
    12    34    35    1
    13    35    36   ar
    14    36    37   ar
    15    37    38    1
    16    37    39   ar
    17    39    43    1
    18    43    44    1
    19    44    45    2
    20    44    46    1
    21    46    47    1
    22    47    48    1
    23    48    49    1
    24    49    59    1
    25    59    60    2
    26    59    61    1
    27    49    50    1
    28    50    51    1
    29    50    52    1
    30    52    53    1
    31    52    54    1
    32    54    55    1
    33    39    40   ar
    34    40    41   ar
    35    41    42    1
    36     4     5   ar
    37     5    19    1
    38    19    21    1
    39    21    22    2
    40    21    23    2
    41    21    24    1
    42    24    25   ar
    43    25    26   ar
    44    26    27   ar
    45    27    31    1
    46    31    32    1
    47    32    33    1
    48    27    28   ar
    49    28    29   ar
    50    29    30    1
    51     5     6   ar
    52     6    15    1
    53    15    16    2
    54    15    17    1
    55     6     1   ar
    56    41    35   ar
    57    29    24   ar
    58    54    47    1
    59    33    31    1
    60     7    10    1
    61    61    62    1
    62    51    56    1
    63    53    57    1
    64    55    58    1
    65    19    20    1
    66    17    18    1
@<TRIPOS>MOLECULE
*****
 62 66 0 0 0
SMALL
GASTEIGER

@<TRIPOS>ATOM
      1 C         -18.7480  -10.0304   -8.2068 C.ar    1  UNL1        0.0610
      2 C         -18.3512  -10.9109   -9.2225 C.ar    1  UNL1        0.0079
      3 C         -19.2162  -11.2241  -10.2662 C.ar    1  UNL1        0.0390
      4 C         -20.5073  -10.6908  -10.2949 C.ar    1  UNL1        0.1600
      5 C         -20.9131   -9.7732   -9.3107 C.ar    1  UNL1        0.1055
      6 C         -20.0158   -9.3954   -8.2787 C.ar    1  UNL1        0.0974
      7 N         -18.0113   -8.7456   -6.1618 N.am    1  UNL1       -0.3040
      8 C         -17.8622   -9.8833   -7.0330 C.2     1  UNL1        0.2460
      9 O         -17.0210  -10.7866   -6.7794 O.2     1  UNL1       -0.2701
     10 H         -18.7957   -8.0888   -6.3816 H       1  UNL1        0.1496
     11 C         -16.1246   -9.5745   -4.7886 C.3     1  UNL1        0.0196
     12 C         -17.1749   -8.4627   -4.9797 C.3     1  UNL1        0.0572
     13 C         -16.4853   -7.0938   -5.1315 C.3     1  UNL1        0.0196
     14 C         -18.0759   -8.4231   -3.7284 C.3     1  UNL1        0.0196
     15 C         -20.3710   -8.3141   -7.3200 C.2     1  UNL1        0.3395
     16 O         -20.9271   -8.5796   -6.2217 O.2     1  UNL1       -0.2450
     17 O         -20.1065   -6.9852   -7.6395 O.3     1  UNL1       -0.4771
     18 H         -20.3451   -6.2384   -6.9982 H       1  UNL1        0.2954
     19 N         -22.2450   -9.2467   -9.3575 N.pl3   1  UNL1       -0.2118
     20 H         -23.0393   -9.9008   -9.5344 H       1  UNL1        0.1738
     21 S         -22.5087   -7.5503   -9.6154 S.O2    1  UNL1        0.0745
     22 O         -21.2759   -6.9227  -10.1990 O.2     1  UNL1       -0.1499
     23 O         -22.7699   -6.8937   -8.2904 O.2     1  UNL1       -0.1499
     24 C         -23.8654   -7.3265  -10.7376 C.ar    1  UNL1        0.1356
     25 C         -23.7340   -6.3390  -11.7222 C.ar    1  UNL1        0.0207
     26 C         -24.7313   -6.1375  -12.6749 C.ar    1  UNL1       -0.0028
     27 C         -25.8979   -6.9122  -12.6646 C.ar    1  UNL1       -0.0216
     28 C         -26.0400   -7.9026  -11.6710 C.ar    1  UNL1        0.0085
     29 C         -25.0357   -8.1189  -10.7186 C.ar    1  UNL1        0.0762
     30 CL        -25.3033   -9.4075   -9.5507 Cl      1  UNL1       -0.0809
     31 C         -26.9494   -6.6163  -13.7206 C.3     1  UNL1        0.0224
     32 C         -26.5325   -5.6860  -14.8514 C.3     1  UNL1        0.0047
     33 C         -27.5162   -5.2046  -13.7920 C.3     1  UNL1        0.0047
     34 O         -21.3885  -11.0349  -11.3253 O.3     1  UNL1       -0.4513
     35 C         -21.9176  -10.1344  -12.2653 C.ar    1  UNL1        0.1580
     36 C         -21.1483   -9.1014  -12.8353 C.ar    1  UNL1        0.0677
     37 C         -21.6579   -8.3358  -13.8854 C.ar    1  UNL1        0.1398
     38 F         -20.8644   -7.4019  -14.4694 F       1  UNL1       -0.2044
     39 C         -22.9481   -8.5854  -14.3811 C.ar    1  UNL1        0.0175
     40 C         -23.7396   -9.5698  -13.7700 C.ar    1  UNL1        0.0130
     41 C         -23.2330  -10.3302  -12.7113 C.ar    1  UNL1        0.0919
     42 CL        -24.2241  -11.6068  -12.0220 Cl      1  UNL1       -0.0791
     43 C         -23.3991   -7.9487  -15.6698 C.3     1  UNL1        0.1382
     44 C         -22.7635   -8.6553  -16.8306 C.2     1  UNL1        0.3234
     45 O         -21.6734   -8.2317  -17.3016 O.2     1  UNL1       -0.2497
     46 O         -23.4025   -9.7689  -17.3925 O.3     1  UNL1       -0.4215
     47 C         -23.1374  -11.1221  -17.0266 C.3     1  UNL1        0.3207
     48 O         -24.2514  -11.5881  -16.2846 O.3     1  UNL1       -0.3070
     49 C         -24.1076  -12.9590  -15.9587 C.3     1  UNL1        0.2456
     50 C         -22.9034  -13.1619  -15.0118 C.3     1  UNL1        0.1781
     51 O         -22.7484  -14.5158  -14.6619 O.3     1  UNL1       -0.3790
     52 C         -21.6239  -12.6216  -15.6698 C.3     1  UNL1        0.1733
     53 O         -20.5770  -12.6539  -14.7351 O.3     1  UNL1       -0.3793
     54 C         -21.8581  -11.1807  -16.1602 C.3     1  UNL1        0.2106
     55 O         -20.7532  -10.7526  -16.9135 O.3     1  UNL1       -0.3766
     56 H         -22.6130  -15.0305  -15.5004 H       1  UNL1        0.2106
     57 H         -19.7281  -12.6657  -15.2492 H       1  UNL1        0.2105
     58 H         -20.0878  -10.3908  -16.2714 H       1  UNL1        0.2107
     59 C         -25.3662  -13.4192  -15.2858 C.2     1  UNL1        0.3439
     60 O         -25.6400  -14.6480  -15.2278 O.2     1  UNL1       -0.2475
     61 O         -26.2168  -12.4902  -14.6933 O.3     1  UNL1       -0.4785
     62 H         -27.0627  -12.7864  -14.2214 H       1  UNL1        0.2951
@<TRIPOS>BOND
     1    11    12    1
     2    12    13    1
     3    12    14    1
     4    12     7    1
     5     7     8   am
     6     8     9    2
     7     8     1    1
     8     1     2   ar
     9     2     3   ar
    10     3     4   ar
    11     4    34    1
    12    34    35    1
    13    35    36   ar
    14    36    37   ar
    15    37    38    1
    16    37    39   ar
    17    39    43    1
    18    43    44    1
    19    44    45    2
    20    44    46    1
    21    46    47    1
    22    47    48    1
    23    48    49    1
    24    49    59    1
    25    59    60    2
    26    59    61    1
    27    49    50    1
    28    50    51    1
    29    50    52    1
    30    52    53    1
    31    52    54    1
    32    54    55    1
    33    39    40   ar
    34    40    41   ar
    35    41    42    1
    36     4     5   ar
    37     5    19    1
    38    19    21    1
    39    21    22    2
    40    21    23    2
    41    21    24    1
    42    24    25   ar
    43    25    26   ar
    44    26    27   ar
    45    27    31    1
    46    31    32    1
    47    32    33    1
    48    27    28   ar
    49    28    29   ar
    50    29    30    1
    51     5     6   ar
    52     6    15    1
    53    15    16    2
    54    15    17    1
    55     6     1   ar
    56    41    35   ar
    57    29    24   ar
    58    54    47    1
    59    33    31    1
    60     7    10    1
    61    61    62    1
    62    51    56    1
    63    53    57    1
    64    55    58    1
    65    19    20    1
    66    17    18    1
@<TRIPOS>MOLECULE
*****
 62 66 0 0 0
SMALL
GASTEIGER

@<TRIPOS>ATOM
      1 C         -21.9210  -11.1692  -13.0423 C.ar    1  UNL1        0.0610
      2 C         -21.3737  -11.8884  -11.9710 C.ar    1  UNL1        0.0079
      3 C         -20.6100  -11.2447  -11.0024 C.ar    1  UNL1        0.0390
      4 C         -20.3491   -9.8761  -11.1062 C.ar    1  UNL1        0.1600
      5 C         -20.9216   -9.1262  -12.1480 C.ar    1  UNL1        0.1055
      6 C         -21.7568   -9.7603  -13.1037 C.ar    1  UNL1        0.0974
      7 N         -23.8157  -12.6007  -13.9003 N.am    1  UNL1       -0.3040
      8 C         -22.5607  -11.9329  -14.1339 C.2     1  UNL1        0.2460
      9 O         -22.0238  -11.9447  -15.2738 O.2     1  UNL1       -0.2701
     10 H         -24.2488  -12.4645  -12.9575 H       1  UNL1        0.1496
     11 C         -23.7513  -14.7056  -15.2032 C.3     1  UNL1        0.0196
     12 C         -24.5416  -13.4199  -14.8897 C.3     1  UNL1        0.0572
     13 C         -25.9464  -13.7689  -14.3632 C.3     1  UNL1        0.0196
     14 C         -24.6926  -12.6105  -16.1939 C.3     1  UNL1        0.0196
     15 C         -22.4932   -8.9607  -14.1199 C.2     1  UNL1        0.3395
     16 O         -21.8777   -8.2185  -14.9300 O.2     1  UNL1       -0.2450
     17 O         -23.8834   -9.0117  -14.1727 O.3     1  UNL1       -0.4771
     18 H         -24.3984   -8.4709  -14.8570 H       1  UNL1        0.2954
     19 N         -20.6322   -7.7256  -12.2372 N.pl3   1  UNL1       -0.2118
     20 H         -19.7302   -7.4240  -12.6681 H       1  UNL1        0.1738
     21 S         -21.4817   -6.5893  -11.2368 S.O2    1  UNL1        0.0745
     22 O         -21.0724   -5.1886  -11.5904 O.2     1  UNL1       -0.1499
     23 O         -21.1013   -6.8264   -9.8037 O.2     1  UNL1       -0.1499
     24 C         -23.2292   -6.7689  -11.4903 C.ar    1  UNL1        0.1356
     25 C         -23.8460   -5.8889  -12.3887 C.ar    1  UNL1        0.0207
     26 C         -25.2038   -5.9990  -12.6838 C.ar    1  UNL1       -0.0028
     27 C         -25.9898   -6.9879  -12.0795 C.ar    1  UNL1       -0.0216
     28 C         -25.3765   -7.8719  -11.1679 C.ar    1  UNL1        0.0085
     29 C         -24.0096   -7.7749  -10.8768 C.ar    1  UNL1        0.0762
     30 CL        -23.3438   -8.9555   -9.7547 Cl      1  UNL1       -0.0809
     31 C         -27.4666   -7.0284  -12.4337 C.3     1  UNL1        0.0224
     32 C         -27.8994   -8.1077  -13.4165 C.3     1  UNL1        0.0047
     33 C         -27.8746   -6.6475  -13.8507 C.3     1  UNL1        0.0047
     34 O         -19.5510   -9.2370  -10.1515 O.3     1  UNL1       -0.4513
     35 C         -18.8728   -9.8858   -9.1058 C.ar    1  UNL1        0.1580
     36 C         -18.0242  -10.9880   -9.3272 C.ar    1  UNL1        0.0677
     37 C         -17.2402  -11.4974   -8.2908 C.ar    1  UNL1        0.1398
     38 F         -16.3715  -12.5071   -8.5528 F       1  UNL1       -0.2044
     39 C         -17.2944  -10.9177   -7.0126 C.ar    1  UNL1        0.0175
     40 C         -18.1884   -9.8626   -6.7748 C.ar    1  UNL1        0.0130
     41 C         -18.9814   -9.3586   -7.8105 C.ar    1  UNL1        0.0919
     42 CL        -20.0319   -7.9860   -7.4951 Cl      1  UNL1       -0.0791
     43 C         -16.2707  -11.2873   -5.9708 C.3     1  UNL1        0.1382
     44 C         -16.2783  -10.2658   -4.8721 C.2     1  UNL1        0.3234
     45 O         -15.6362   -9.1898   -5.0120 O.2     1  UNL1       -0.2497
     46 O         -16.9845  -10.5305   -3.6907 O.3     1  UNL1       -0.4215
     47 C         -17.8162   -9.5864   -3.0182 C.3     1  UNL1        0.3207
     48 O         -19.1311   -9.7420   -3.5239 O.3     1  UNL1       -0.3070
     49 C         -20.0416   -8.8993   -2.8402 C.3     1  UNL1        0.2456
     50 C         -19.7015   -7.4154   -3.1046 C.3     1  UNL1        0.1781
     51 O         -20.6019   -6.5576   -2.4466 O.3     1  UNL1       -0.3790
     52 C         -18.2570   -7.1241   -2.6679 C.3     1  UNL1        0.1733
     53 O         -17.9073   -5.8258   -3.0716 O.3     1  UNL1       -0.3793
     54 C         -17.3033   -8.1552   -3.2993 C.3     1  UNL1        0.2106
     55 O         -16.0151   -7.9975   -2.7632 O.3     1  UNL1       -0.3766
     56 H         -20.5474   -6.7515   -1.4742 H       1  UNL1        0.2106
     57 H         -17.1621   -5.5300   -2.4866 H       1  UNL1        0.2105
     58 H         -15.5613   -7.2972   -3.3014 H       1  UNL1        0.2107
     59 C         -21.4253   -9.1993   -3.3345 C.2     1  UNL1        0.3439
     60 O         -22.2552   -9.7756   -2.5813 O.2     1  UNL1       -0.2475
     61 O         -21.8051   -8.8095   -4.6157 O.3     1  UNL1       -0.4785
     62 H         -22.7408   -8.9908   -4.9585 H       1  UNL1        0.2951
@<TRIPOS>BOND
     1    11    12    1
     2    12    13    1
     3    12    14    1
     4    12     7    1
     5     7     8   am
     6     8     9    2
     7     8     1    1
     8     1     2   ar
     9     2     3   ar
    10     3     4   ar
    11     4    34    1
    12    34    35    1
    13    35    36   ar
    14    36    37   ar
    15    37    38    1
    16    37    39   ar
    17    39    43    1
    18    43    44    1
    19    44    45    2
    20    44    46    1
    21    46    47    1
    22    47    48    1
    23    48    49    1
    24    49    59    1
    25    59    60    2
    26    59    61    1
    27    49    50    1
    28    50    51    1
    29    50    52    1
    30    52    53    1
    31    52    54    1
    32    54    55    1
    33    39    40   ar
    34    40    41   ar
    35    41    42    1
    36     4     5   ar
    37     5    19    1
    38    19    21    1
    39    21    22    2
    40    21    23    2
    41    21    24    1
    42    24    25   ar
    43    25    26   ar
    44    26    27   ar
    45    27    31    1
    46    31    32    1
    47    32    33    1
    48    27    28   ar
    49    28    29   ar
    50    29    30    1
    51     5     6   ar
    52     6    15    1
    53    15    16    2
    54    15    17    1
    55     6     1   ar
    56    41    35   ar
    57    29    24   ar
    58    54    47    1
    59    33    31    1
    60     7    10    1
    61    61    62    1
    62    51    56    1
    63    53    57    1
    64    55    58    1
    65    19    20    1
    66    17    18    1
@<TRIPOS>MOLECULE
*****
 62 66 0 0 0
SMALL
GASTEIGER

@<TRIPOS>ATOM
      1 C         -19.9078   -8.4646   -8.5813 C.ar    1  UNL1        0.0610
      2 C         -19.1154   -8.2534   -9.7180 C.ar    1  UNL1        0.0079
      3 C         -19.6983   -8.1369  -10.9759 C.ar    1  UNL1        0.0390
      4 C         -21.0814   -8.2653  -11.1258 C.ar    1  UNL1        0.1600
      5 C         -21.9002   -8.4353   -9.9961 C.ar    1  UNL1        0.1055
      6 C         -21.3222   -8.4887   -8.7015 C.ar    1  UNL1        0.0974
      7 N         -19.2631   -7.8111   -6.2292 N.am    1  UNL1       -0.3040
      8 C         -19.2233   -8.7665   -7.3068 C.2     1  UNL1        0.2460
      9 O         -18.6577   -9.8831   -7.1610 O.2     1  UNL1       -0.2701
     10 H         -19.8343   -6.9493   -6.3900 H       1  UNL1        0.1496
     11 C         -18.7926   -9.4088   -4.3966 C.3     1  UNL1        0.0196
     12 C         -18.5975   -7.9731   -4.9224 C.3     1  UNL1        0.0572
     13 C         -17.0974   -7.6462   -5.0454 C.3     1  UNL1        0.0196
     14 C         -19.2327   -6.9942   -3.9137 C.3     1  UNL1        0.0196
     15 C         -22.1802   -8.5136   -7.4859 C.2     1  UNL1        0.3395
     16 O         -21.7275   -8.9166   -6.3821 O.2     1  UNL1       -0.2450
     17 O         -23.5090   -8.1054   -7.5626 O.3     1  UNL1       -0.4771
     18 H         -24.1057   -8.1194   -6.7443 H       1  UNL1        0.2954
     19 N         -23.3151   -8.5726  -10.1770 N.pl3   1  UNL1       -0.2118
     20 H         -23.9193   -7.7262  -10.0838 H       1  UNL1        0.1738
     21 S         -24.0672  -10.1325  -10.0561 S.O2    1  UNL1        0.0745
     22 O         -25.5460   -9.9743   -9.8501 O.2     1  UNL1       -0.1499
     23 O         -23.5142  -10.8453   -8.8557 O.2     1  UNL1       -0.1499
     24 C         -23.7800  -11.0450  -11.5511 C.ar    1  UNL1        0.1356
     25 C         -24.8612  -11.2093  -12.4262 C.ar    1  UNL1        0.0207
     26 C         -24.7049  -11.8662  -13.6456 C.ar    1  UNL1       -0.0028
     27 C         -23.4618  -12.3896  -14.0224 C.ar    1  UNL1       -0.0216
     28 C         -22.3711  -12.2346  -13.1422 C.ar    1  UNL1        0.0085
     29 C         -22.5185  -11.5641  -11.9211 C.ar    1  UNL1        0.0762
     30 CL        -21.0807  -11.3959  -10.9209 Cl      1  UNL1       -0.0809
     31 C         -23.3769  -13.1132  -15.3555 C.3     1  UNL1        0.0224
     32 C         -24.1318  -14.4311  -15.4616 C.3     1  UNL1        0.0047
     33 C         -22.6090  -14.4273  -15.4102 C.3     1  UNL1        0.0047
     34 O         -21.6627   -8.1842  -12.3955 O.3     1  UNL1       -0.4513
     35 C         -22.8748   -7.5351  -12.6852 C.ar    1  UNL1        0.1580
     36 C         -23.9579   -8.1981  -13.2946 C.ar    1  UNL1        0.0677
     37 C         -25.1980   -7.5683  -13.4124 C.ar    1  UNL1        0.1398
     38 F         -26.2453   -8.2600  -13.9296 F       1  UNL1       -0.2044
     39 C         -25.3764   -6.2620  -12.9280 C.ar    1  UNL1        0.0175
     40 C         -24.2806   -5.5771  -12.3810 C.ar    1  UNL1        0.0130
     41 C         -23.0355   -6.2043  -12.2721 C.ar    1  UNL1        0.0919
     42 CL        -21.7063   -5.3437  -11.5107 Cl      1  UNL1       -0.0791
     43 C         -26.7616   -5.6805  -12.8142 C.3     1  UNL1        0.1382
     44 C         -27.1451   -5.0340  -14.1125 C.2     1  UNL1        0.3234
     45 O         -26.2703   -4.4406  -14.7997 O.2     1  UNL1       -0.2497
     46 O         -28.4801   -5.0798  -14.5366 O.3     1  UNL1       -0.4215
     47 C         -29.1955   -3.9684  -15.0736 C.3     1  UNL1        0.3207
     48 O         -30.5639   -4.1475  -14.7508 O.3     1  UNL1       -0.3070
     49 C         -31.3350   -3.0362  -15.1714 C.3     1  UNL1        0.2456
     50 C         -31.3156   -2.9220  -16.7123 C.3     1  UNL1        0.1781
     51 O         -32.0873   -1.8324  -17.1557 O.3     1  UNL1       -0.3790
     52 C         -29.8665   -2.7986  -17.2093 C.3     1  UNL1        0.1733
     53 O         -29.8534   -2.8706  -18.6113 O.3     1  UNL1       -0.3793
     54 C         -29.0109   -3.9292  -16.6082 C.3     1  UNL1        0.2106
     55 O         -27.6586   -3.7147  -16.9194 O.3     1  UNL1       -0.3766
     56 H         -31.7093   -1.0094  -16.7484 H       1  UNL1        0.2106
     57 H         -29.0170   -2.4325  -18.9173 H       1  UNL1        0.2105
     58 H         -27.5004   -4.1155  -17.8141 H       1  UNL1        0.2107
     59 C         -32.7433   -3.2305  -14.6940 C.2     1  UNL1        0.3439
     60 O         -32.9653   -3.5826  -13.5045 O.2     1  UNL1       -0.2475
     61 O         -33.8088   -2.9877  -15.5562 O.3     1  UNL1       -0.4785
     62 H         -34.7660   -3.0992  -15.2442 H       1  UNL1        0.2951
@<TRIPOS>BOND
     1    11    12    1
     2    12    13    1
     3    12    14    1
     4    12     7    1
     5     7     8   am
     6     8     9    2
     7     8     1    1
     8     1     2   ar
     9     2     3   ar
    10     3     4   ar
    11     4    34    1
    12    34    35    1
    13    35    36   ar
    14    36    37   ar
    15    37    38    1
    16    37    39   ar
    17    39    43    1
    18    43    44    1
    19    44    45    2
    20    44    46    1
    21    46    47    1
    22    47    48    1
    23    48    49    1
    24    49    59    1
    25    59    60    2
    26    59    61    1
    27    49    50    1
    28    50    51    1
    29    50    52    1
    30    52    53    1
    31    52    54    1
    32    54    55    1
    33    39    40   ar
    34    40    41   ar
    35    41    42    1
    36     4     5   ar
    37     5    19    1
    38    19    21    1
    39    21    22    2
    40    21    23    2
    41    21    24    1
    42    24    25   ar
    43    25    26   ar
    44    26    27   ar
    45    27    31    1
    46    31    32    1
    47    32    33    1
    48    27    28   ar
    49    28    29   ar
    50    29    30    1
    51     5     6   ar
    52     6    15    1
    53    15    16    2
    54    15    17    1
    55     6     1   ar
    56    41    35   ar
    57    29    24   ar
    58    54    47    1
    59    33    31    1
    60     7    10    1
    61    61    62    1
    62    51    56    1
    63    53    57    1
    64    55    58    1
    65    19    20    1
    66    17    18    1
@<TRIPOS>MOLECULE
*****
 62 66 0 0 0
SMALL
GASTEIGER

@<TRIPOS>ATOM
      1 C         -18.3204  -11.8154   -9.8566 C.ar    1  UNL1        0.0610
      2 C         -18.8851  -12.4593  -10.9660 C.ar    1  UNL1        0.0079
      3 C         -20.1592  -12.1194  -11.4095 C.ar    1  UNL1        0.0390
      4 C         -20.9073  -11.1546  -10.7301 C.ar    1  UNL1        0.1600
      5 C         -20.3463  -10.4657   -9.6409 C.ar    1  UNL1        0.1055
      6 C         -19.0226  -10.7573   -9.2217 C.ar    1  UNL1        0.0974
      7 N         -15.8025  -11.7261   -9.6904 N.am    1  UNL1       -0.3040
      8 C         -17.0494  -12.3461   -9.3209 C.2     1  UNL1        0.2460
      9 O         -17.0783  -13.3040   -8.5027 O.2     1  UNL1       -0.2701
     10 H         -15.8656  -10.8749  -10.2958 H       1  UNL1        0.1496
     11 C         -14.5045  -12.6153   -7.7781 C.3     1  UNL1        0.0196
     12 C         -14.4662  -12.1748   -9.2547 C.3     1  UNL1        0.0572
     13 C         -13.9764  -13.3310  -10.1468 C.3     1  UNL1        0.0196
     14 C         -13.4769  -10.9989   -9.3869 C.3     1  UNL1        0.0196
     15 C         -18.3583   -9.9358   -8.1737 C.2     1  UNL1        0.3395
     16 O         -17.4894  -10.4369   -7.4124 O.2     1  UNL1       -0.2450
     17 O         -18.7081   -8.5981   -8.0115 O.3     1  UNL1       -0.4771
     18 H         -18.2666   -8.0273   -7.3008 H       1  UNL1        0.2954
     19 N         -21.1368   -9.4864   -8.9557 N.pl3   1  UNL1       -0.2118
     20 H         -21.9642   -9.8035   -8.4036 H       1  UNL1        0.1738
     21 S         -21.0495   -7.8137   -9.4120 S.O2    1  UNL1        0.0745
     22 O         -19.9285   -7.6066  -10.3892 O.2     1  UNL1       -0.1499
     23 O         -20.7462   -6.9937   -8.1912 O.2     1  UNL1       -0.1499
     24 C         -22.5800   -7.3258  -10.1667 C.ar    1  UNL1        0.1356
     25 C         -22.5401   -6.2694  -11.0854 C.ar    1  UNL1        0.0207
     26 C         -23.6888   -5.8618  -11.7616 C.ar    1  UNL1       -0.0028
     27 C         -24.9173   -6.4930  -11.5303 C.ar    1  UNL1       -0.0216
     28 C         -24.9659   -7.5520  -10.6005 C.ar    1  UNL1        0.0085
     29 C         -23.8125   -7.9750   -9.9273 C.ar    1  UNL1        0.0762
     30 CL        -23.9836   -9.3312   -8.8193 Cl      1  UNL1       -0.0809
     31 C         -26.1287   -5.9758  -12.2875 C.3     1  UNL1        0.0224
     32 C         -26.9469   -7.0110  -13.0471 C.3     1  UNL1        0.0047
     33 C         -26.0900   -6.0080  -13.8096 C.3     1  UNL1        0.0047
     34 O         -22.2022  -10.8397  -11.1550 O.3     1  UNL1       -0.4513
     35 C         -22.5127   -9.9467  -12.1945 C.ar    1  UNL1        0.1580
     36 C         -21.5429   -9.1164  -12.7897 C.ar    1  UNL1        0.0677
     37 C         -21.8526   -8.3688  -13.9271 C.ar    1  UNL1        0.1398
     38 F         -20.8761   -7.6412  -14.5270 F       1  UNL1       -0.2044
     39 C         -23.1391   -8.4333  -14.4869 C.ar    1  UNL1        0.0175
     40 C         -24.1241   -9.2084  -13.8561 C.ar    1  UNL1        0.0130
     41 C         -23.8169   -9.9496  -12.7108 C.ar    1  UNL1        0.0919
     42 CL        -25.0542  -10.9700  -11.9930 Cl      1  UNL1       -0.0791
     43 C         -23.4018   -7.8430  -15.8480 C.3     1  UNL1        0.1382
     44 C         -22.6678   -8.6337  -16.8904 C.2     1  UNL1        0.3234
     45 O         -21.5087   -8.2837  -17.2419 O.2     1  UNL1       -0.2497
     46 O         -23.2904   -9.7434  -17.4781 O.3     1  UNL1       -0.4215
     47 C         -23.1687  -11.0831  -17.0033 C.3     1  UNL1        0.3207
     48 O         -24.3052  -11.3550  -16.2013 O.3     1  UNL1       -0.3070
     49 C         -24.3071  -12.7018  -15.7623 C.3     1  UNL1        0.2456
     50 C         -23.1054  -12.9628  -14.8266 C.3     1  UNL1        0.1781
     51 O         -23.0936  -14.2920  -14.3654 O.3     1  UNL1       -0.3790
     52 C         -21.7936  -12.6295  -15.5547 C.3     1  UNL1        0.1733
     53 O         -20.7292  -12.7046  -14.6424 O.3     1  UNL1       -0.3793
     54 C         -21.8786  -11.2167  -16.1616 C.3     1  UNL1        0.2106
     55 O         -20.7557  -10.9822  -16.9715 O.3     1  UNL1       -0.3766
     56 H         -23.0425  -14.8863  -15.1594 H       1  UNL1        0.2106
     57 H         -19.9031  -12.8562  -15.1711 H       1  UNL1        0.2105
     58 H         -20.0346  -10.6474  -16.3766 H       1  UNL1        0.2107
     59 C         -25.5887  -12.9570  -15.0266 C.2     1  UNL1        0.3439
     60 O         -26.4114  -12.0198  -14.8446 O.2     1  UNL1       -0.2475
     61 O         -25.8866  -14.2393  -14.5743 O.3     1  UNL1       -0.4785
     62 H         -26.7550  -14.4311  -14.0896 H       1  UNL1        0.2951
@<TRIPOS>BOND
     1    11    12    1
     2    12    13    1
     3    12    14    1
     4    12     7    1
     5     7     8   am
     6     8     9    2
     7     8     1    1
     8     1     2   ar
     9     2     3   ar
    10     3     4   ar
    11     4    34    1
    12    34    35    1
    13    35    36   ar
    14    36    37   ar
    15    37    38    1
    16    37    39   ar
    17    39    43    1
    18    43    44    1
    19    44    45    2
    20    44    46    1
    21    46    47    1
    22    47    48    1
    23    48    49    1
    24    49    59    1
    25    59    60    2
    26    59    61    1
    27    49    50    1
    28    50    51    1
    29    50    52    1
    30    52    53    1
    31    52    54    1
    32    54    55    1
    33    39    40   ar
    34    40    41   ar
    35    41    42    1
    36     4     5   ar
    37     5    19    1
    38    19    21    1
    39    21    22    2
    40    21    23    2
    41    21    24    1
    42    24    25   ar
    43    25    26   ar
    44    26    27   ar
    45    27    31    1
    46    31    32    1
    47    32    33    1
    48    27    28   ar
    49    28    29   ar
    50    29    30    1
    51     5     6   ar
    52     6    15    1
    53    15    16    2
    54    15    17    1
    55     6     1   ar
    56    41    35   ar
    57    29    24   ar
    58    54    47    1
    59    33    31    1
    60     7    10    1
    61    61    62    1
    62    51    56    1
    63    53    57    1
    64    55    58    1
    65    19    20    1
    66    17    18    1
