@<TRIPOS>MOLECULE
*****
 49 55 0 0 0
SMALL
GASTEIGER

@<TRIPOS>ATOM
      1 C          59.6617   83.5601   13.5181 C.ar    1  UNL1        0.0481
      2 C          58.4424   83.8360   12.8783 C.ar    1  UNL1        0.0176
      3 C          57.8273   82.8675   12.0818 C.ar    1  UNL1        0.0382
      4 C          58.4157   81.6109   11.9068 C.ar    1  UNL1        0.1388
      5 C          59.6298   81.3249   12.5580 C.ar    1  UNL1        0.0382
      6 C          60.2448   82.2924   13.3583 C.ar    1  UNL1        0.0176
      7 N          62.0877   86.6160   14.6910 N.pl3   1  UNL1       -0.3041
      8 C          62.6138   85.2424   14.7553 C.3     1  UNL1        0.1122
      9 C          61.5105   84.2373   15.1054 C.3     1  UNL1        0.1122
     10 N          60.2913   84.5549   14.3480 N.pl3   1  UNL1       -0.3041
     11 C          59.7518   85.9244   14.3768 C.3     1  UNL1        0.1122
     12 C          60.7021   86.8842   15.1021 C.3     1  UNL1        0.1122
     13 C          64.5584   89.7062   13.1017 C.ar    1  UNL1        0.0699
     14 C          64.6485   89.3456   14.4567 C.ar    1  UNL1        0.0190
     15 C          63.8386   88.3328   14.9779 C.ar    1  UNL1        0.0160
     16 C          62.9136   87.6686   14.1574 C.ar    1  UNL1        0.0480
     17 C          62.8204   88.0292   12.8035 C.ar    1  UNL1        0.0160
     18 C          63.6318   89.0401   12.2813 C.ar    1  UNL1        0.0190
     19 N          66.4693   92.1425   11.2066 N.ar    1  UNL1       -0.2024
     20 N          66.8329   92.4602   12.4401 N.ar    1  UNL1       -0.1442
     21 C          66.1788   91.6115   13.2626 C.ar    1  UNL1        0.2073
     22 N          65.3942   90.7533   12.5720 N.ar    1  UNL1       -0.2398
     23 C          65.6066   91.1105   11.2899 C.ar    1  UNL1        0.3522
     24 O          65.0945   90.5313   10.2942 O.2     1  UNL1       -0.2444
     25 C          66.9759   92.8197   10.0071 C.3     1  UNL1        0.1099
     26 C          65.8990   93.7481    9.4291 C.3     1  UNL1        0.0265
     27 C          68.8373   91.1956    9.3466 C.3     1  UNL1        0.0021
     28 C          67.4737   91.7815    8.9799 C.3     1  UNL1        0.0245
     29 O          57.7676   80.6833   11.0798 O.3     1  UNL1       -0.4727
     30 C          58.3428   80.0921    9.9159 C.3     1  UNL1        0.2374
     31 C          58.2969   81.0748    8.7373 C.3     1  UNL1        0.1909
     32 C          57.7881   82.4360    9.1194 C.3     1  UNL1        0.1783
     33 O          58.9050   83.2589    9.2259 O.3     1  UNL1       -0.3266
     34 C          59.9842   82.5698    8.6265 C.3     1  UNL1        0.2315
     35 O          59.5795   81.2709    8.2317 O.3     1  UNL1       -0.3254
     36 C          61.1671   82.4468    9.5976 C.ar    1  UNL1        0.0410
     37 C          61.9207   81.2523    9.5788 C.ar    1  UNL1        0.0022
     38 C          63.0066   81.0690   10.4349 C.ar    1  UNL1        0.0113
     39 C          63.3842   82.0820   11.3126 C.ar    1  UNL1        0.0585
     40 CL         64.7439   81.8451   12.3948 Cl      1  UNL1       -0.0822
     41 C          62.6838   83.2877   11.3244 C.ar    1  UNL1        0.0226
     42 C          61.5849   83.4866   10.4782 C.ar    1  UNL1        0.0591
     43 CL         60.8046   85.0637   10.5786 Cl      1  UNL1       -0.0824
     44 C          60.4212   83.3251    7.3554 C.3     1  UNL1        0.1897
     45 N          60.2302   84.7680    7.4834 N.ar    1  UNL1       -0.2246
     46 C          61.1851   85.6975    7.6507 C.ar    1  UNL1        0.1974
     47 N          60.6508   86.9301    7.7443 N.ar    1  UNL1       -0.2007
     48 C          59.3270   86.6840    7.6233 C.ar    1  UNL1        0.2210
     49 N          59.0575   85.3732    7.4662 N.ar    1  UNL1       -0.1450
@<TRIPOS>BOND
     1    27    28    1
     2    28    25    1
     3    25    26    1
     4    25    19    1
     5    19    20   ar
     6    20    21   ar
     7    21    22   ar
     8    22    13    1
     9    13    14   ar
    10    14    15   ar
    11    15    16   ar
    12    16     7    1
    13     7     8    1
    14     8     9    1
    15     9    10    1
    16    10     1    1
    17     1     2   ar
    18     2     3   ar
    19     3     4   ar
    20     4    29    1
    21    29    30    1
    22    30    31    1
    23    31    32    1
    24    32    33    1
    25    33    34    1
    26    34    44    1
    27    44    45    1
    28    45    46   ar
    29    46    47   ar
    30    47    48   ar
    31    48    49   ar
    32    34    36    1
    33    36    37   ar
    34    37    38   ar
    35    38    39   ar
    36    39    40    1
    37    39    41   ar
    38    41    42   ar
    39    42    43    1
    40    34    35    1
    41     4     5   ar
    42     5     6   ar
    43    10    11    1
    44    11    12    1
    45    16    17   ar
    46    17    18   ar
    47    22    23   ar
    48    23    24    2
    49    23    19   ar
    50    18    13   ar
    51    12     7    1
    52     6     1   ar
    53    35    31    1
    54    49    45   ar
    55    42    36   ar
@<TRIPOS>MOLECULE
*****
 49 55 0 0 0
SMALL
GASTEIGER

@<TRIPOS>ATOM
      1 C          59.3699   83.1914    8.5633 C.ar    1  UNL1        0.0481
      2 C          60.2184   82.1139    8.2612 C.ar    1  UNL1        0.0176
      3 C          59.8346   80.8056    8.5643 C.ar    1  UNL1        0.0382
      4 C          58.6029   80.5482    9.1747 C.ar    1  UNL1        0.1388
      5 C          57.7431   81.6234    9.4655 C.ar    1  UNL1        0.0382
      6 C          58.1247   82.9332    9.1594 C.ar    1  UNL1        0.0176
      7 N          60.9539   86.9276    8.9253 N.pl3   1  UNL1       -0.3041
      8 C          59.5704   86.7085    9.3785 C.3     1  UNL1        0.1122
      9 C          58.8560   85.6670    8.5096 C.3     1  UNL1        0.1122
     10 N          59.7606   84.5398    8.2414 N.pl3   1  UNL1       -0.3041
     11 C          61.1092   84.7985    7.7103 C.3     1  UNL1        0.1122
     12 C          61.4196   86.2994    7.6804 C.3     1  UNL1        0.1122
     13 C          63.6546   89.1782   11.3378 C.ar    1  UNL1        0.0699
     14 C          62.9830   88.0634   11.8673 C.ar    1  UNL1        0.0190
     15 C          62.0976   87.3257   11.0768 C.ar    1  UNL1        0.0160
     16 C          61.8566   87.6952    9.7443 C.ar    1  UNL1        0.0480
     17 C          62.5249   88.8104    9.2140 C.ar    1  UNL1        0.0160
     18 C          63.4123   89.5470   10.0034 C.ar    1  UNL1        0.0190
     19 N          65.7526   90.7124   13.8723 N.ar    1  UNL1       -0.2024
     20 N          66.0585   91.4609   12.8231 N.ar    1  UNL1       -0.1442
     21 C          65.3314   90.9857   11.7887 C.ar    1  UNL1        0.2073
     22 N          64.5636   89.9360   12.1596 N.ar    1  UNL1       -0.2398
     23 C          64.8479   89.7982   13.4698 C.ar    1  UNL1        0.3522
     24 O          64.3104   88.9488   14.2305 O.2     1  UNL1       -0.2444
     25 C          66.3175   90.9155   15.2116 C.3     1  UNL1        0.1099
     26 C          65.2190   91.3595   16.1873 C.3     1  UNL1        0.0265
     27 C          68.8547   91.2316   15.2407 C.3     1  UNL1        0.0021
     28 C          67.4907   91.9157   15.1483 C.3     1  UNL1        0.0245
     29 O          58.2762   79.2192    9.4771 O.3     1  UNL1       -0.4727
     30 C          57.7710   78.7732   10.7344 C.3     1  UNL1        0.2374
     31 C          58.9175   78.2790   11.6278 C.3     1  UNL1        0.1909
     32 C          60.2650   78.3724   10.9695 C.3     1  UNL1        0.1783
     33 O          60.8867   79.4978   11.5014 O.3     1  UNL1       -0.3266
     34 C          60.1441   79.8791   12.6425 C.3     1  UNL1        0.2315
     35 O          58.9953   79.0612   12.7774 O.3     1  UNL1       -0.3254
     36 C          59.7000   81.3457   12.5464 C.ar    1  UNL1        0.0410
     37 C          58.4930   81.7172   13.1792 C.ar    1  UNL1        0.0022
     38 C          58.0259   83.0307   13.1308 C.ar    1  UNL1        0.0113
     39 C          58.7634   84.0116   12.4727 C.ar    1  UNL1        0.0585
     40 CL         58.1688   85.6603   12.4051 Cl      1  UNL1       -0.0822
     41 C          59.9788   83.6822   11.8741 C.ar    1  UNL1        0.0226
     42 C          60.4597   82.3665   11.9046 C.ar    1  UNL1        0.0591
     43 CL         62.0187   82.0927   11.1296 Cl      1  UNL1       -0.0824
     44 C          61.0107   79.6715   13.9007 C.3     1  UNL1        0.1897
     45 N          62.1448   80.5918   13.9420 N.ar    1  UNL1       -0.2246
     46 C          62.2484   81.7137   14.6729 C.ar    1  UNL1        0.1974
     47 N          63.4281   82.3262   14.4565 N.ar    1  UNL1       -0.2007
     48 C          64.0206   81.5083   13.5579 C.ar    1  UNL1        0.2210
     49 N          63.2503   80.4509   13.2350 N.ar    1  UNL1       -0.1450
@<TRIPOS>BOND
     1    27    28    1
     2    28    25    1
     3    25    26    1
     4    25    19    1
     5    19    20   ar
     6    20    21   ar
     7    21    22   ar
     8    22    13    1
     9    13    14   ar
    10    14    15   ar
    11    15    16   ar
    12    16     7    1
    13     7     8    1
    14     8     9    1
    15     9    10    1
    16    10     1    1
    17     1     2   ar
    18     2     3   ar
    19     3     4   ar
    20     4    29    1
    21    29    30    1
    22    30    31    1
    23    31    32    1
    24    32    33    1
    25    33    34    1
    26    34    44    1
    27    44    45    1
    28    45    46   ar
    29    46    47   ar
    30    47    48   ar
    31    48    49   ar
    32    34    36    1
    33    36    37   ar
    34    37    38   ar
    35    38    39   ar
    36    39    40    1
    37    39    41   ar
    38    41    42   ar
    39    42    43    1
    40    34    35    1
    41     4     5   ar
    42     5     6   ar
    43    10    11    1
    44    11    12    1
    45    16    17   ar
    46    17    18   ar
    47    22    23   ar
    48    23    24    2
    49    23    19   ar
    50    18    13   ar
    51    12     7    1
    52     6     1   ar
    53    35    31    1
    54    49    45   ar
    55    42    36   ar
@<TRIPOS>MOLECULE
*****
 49 55 0 0 0
SMALL
GASTEIGER

@<TRIPOS>ATOM
      1 C          59.2032   83.8506    8.7478 C.ar    1  UNL1        0.0481
      2 C          59.6447   82.6331    8.2047 C.ar    1  UNL1        0.0176
      3 C          59.0415   81.4311    8.5815 C.ar    1  UNL1        0.0382
      4 C          57.9919   81.4201    9.5056 C.ar    1  UNL1        0.1388
      5 C          57.5362   82.6390   10.0409 C.ar    1  UNL1        0.0382
      6 C          58.1369   83.8433    9.6620 C.ar    1  UNL1        0.0176
      7 N          61.2542   87.3649    8.9531 N.pl3   1  UNL1       -0.3041
      8 C          59.8105   87.3808    9.2411 C.3     1  UNL1        0.1122
      9 C          59.0595   86.3501    8.3905 C.3     1  UNL1        0.1122
     10 N          59.8179   85.0915    8.3517 N.pl3   1  UNL1       -0.3041
     11 C          61.2419   85.1103    7.9784 C.3     1  UNL1        0.1122
     12 C          61.7659   86.5448    7.8455 C.3     1  UNL1        0.1122
     13 C          63.9544   89.5076   11.4624 C.ar    1  UNL1        0.0699
     14 C          63.2992   88.3582   11.9354 C.ar    1  UNL1        0.0190
     15 C          62.4139   87.6558   11.1131 C.ar    1  UNL1        0.0160
     16 C          62.1567   88.0957    9.8053 C.ar    1  UNL1        0.0480
     17 C          62.8087   89.2455    9.3316 C.ar    1  UNL1        0.0160
     18 C          63.6960   89.9467   10.1526 C.ar    1  UNL1        0.0190
     19 N          66.0615   90.9208   14.0589 N.ar    1  UNL1       -0.2024
     20 N          66.3479   91.7311   13.0509 N.ar    1  UNL1       -0.1442
     21 C          65.6153   91.3065   11.9984 C.ar    1  UNL1        0.2073
     22 N          64.8634   90.2285   12.3168 N.ar    1  UNL1       -0.2398
     23 C          65.1631   90.0202   13.6142 C.ar    1  UNL1        0.3522
     24 O          64.6433   89.1228   14.3308 O.2     1  UNL1       -0.2444
     25 C          66.6382   91.0547   15.4019 C.3     1  UNL1        0.1099
     26 C          65.5536   91.4729   16.4041 C.3     1  UNL1        0.0265
     27 C          69.1678   91.3349   15.1550 C.3     1  UNL1        0.0021
     28 C          67.8277   92.0370   15.3749 C.3     1  UNL1        0.0245
     29 O          57.4364   80.1847    9.8655 O.3     1  UNL1       -0.4727
     30 C          58.1906   79.0108   10.1619 C.3     1  UNL1        0.2374
     31 C          58.3385   78.8378   11.6801 C.3     1  UNL1        0.1909
     32 C          59.3269   77.7725   12.0622 C.3     1  UNL1        0.1783
     33 O          60.4919   78.4327   12.4401 O.3     1  UNL1       -0.3266
     34 C          60.1563   79.7950   12.6147 C.3     1  UNL1        0.2315
     35 O          58.8060   80.0193   12.2499 O.3     1  UNL1       -0.3254
     36 C          61.0573   80.6984   11.7607 C.ar    1  UNL1        0.0410
     37 C          62.0139   80.0824   10.9237 C.ar    1  UNL1        0.0022
     38 C          62.8684   80.8400   10.1226 C.ar    1  UNL1        0.0113
     39 C          62.7728   82.2293   10.1165 C.ar    1  UNL1        0.0585
     40 CL         63.8550   83.1798    9.1157 Cl      1  UNL1       -0.0822
     41 C          61.8105   82.8628   10.9018 C.ar    1  UNL1        0.0226
     42 C          60.9495   82.1190   11.7196 C.ar    1  UNL1        0.0591
     43 CL         59.7661   83.0430   12.6425 Cl      1  UNL1       -0.0824
     44 C          60.3007   80.1630   14.1050 C.3     1  UNL1        0.1897
     45 N          61.6784   80.5021   14.4539 N.ar    1  UNL1       -0.2246
     46 C          62.1473   81.7085   14.8123 C.ar    1  UNL1        0.1974
     47 N          63.4717   81.6622   15.0520 N.ar    1  UNL1       -0.2007
     48 C          63.7652   80.3637   14.8175 C.ar    1  UNL1        0.2210
     49 N          62.6842   79.6476   14.4512 N.ar    1  UNL1       -0.1450
@<TRIPOS>BOND
     1    27    28    1
     2    28    25    1
     3    25    26    1
     4    25    19    1
     5    19    20   ar
     6    20    21   ar
     7    21    22   ar
     8    22    13    1
     9    13    14   ar
    10    14    15   ar
    11    15    16   ar
    12    16     7    1
    13     7     8    1
    14     8     9    1
    15     9    10    1
    16    10     1    1
    17     1     2   ar
    18     2     3   ar
    19     3     4   ar
    20     4    29    1
    21    29    30    1
    22    30    31    1
    23    31    32    1
    24    32    33    1
    25    33    34    1
    26    34    44    1
    27    44    45    1
    28    45    46   ar
    29    46    47   ar
    30    47    48   ar
    31    48    49   ar
    32    34    36    1
    33    36    37   ar
    34    37    38   ar
    35    38    39   ar
    36    39    40    1
    37    39    41   ar
    38    41    42   ar
    39    42    43    1
    40    34    35    1
    41     4     5   ar
    42     5     6   ar
    43    10    11    1
    44    11    12    1
    45    16    17   ar
    46    17    18   ar
    47    22    23   ar
    48    23    24    2
    49    23    19   ar
    50    18    13   ar
    51    12     7    1
    52     6     1   ar
    53    35    31    1
    54    49    45   ar
    55    42    36   ar
@<TRIPOS>MOLECULE
*****
 49 55 0 0 0
SMALL
GASTEIGER

@<TRIPOS>ATOM
      1 C          59.1705   83.6964   13.2094 C.ar    1  UNL1        0.0481
      2 C          59.3797   82.3685   13.6155 C.ar    1  UNL1        0.0176
      3 C          58.9254   81.3085   12.8277 C.ar    1  UNL1        0.0382
      4 C          58.2539   81.5519   11.6253 C.ar    1  UNL1        0.1388
      5 C          58.0553   82.8806   11.2069 C.ar    1  UNL1        0.0382
      6 C          58.5126   83.9424   11.9931 C.ar    1  UNL1        0.0176
      7 N          61.4243   86.8459   14.4743 N.pl3   1  UNL1       -0.3041
      8 C          61.8521   85.4870   14.8458 C.3     1  UNL1        0.1122
      9 C          60.6487   84.5638   15.0690 C.3     1  UNL1        0.1122
     10 N          59.6479   84.7898   14.0163 N.pl3   1  UNL1       -0.3041
     11 C          59.1861   86.1585   13.7319 C.3     1  UNL1        0.1122
     12 C          59.9973   87.1963   14.5163 C.3     1  UNL1        0.1122
     13 C          64.3419   89.6261   13.0824 C.ar    1  UNL1        0.0699
     14 C          64.1208   89.4521   14.4589 C.ar    1  UNL1        0.0190
     15 C          63.1643   88.5410   14.9154 C.ar    1  UNL1        0.0160
     16 C          62.4012   87.7944   14.0042 C.ar    1  UNL1        0.0480
     17 C          62.6191   87.9687   12.6281 C.ar    1  UNL1        0.0160
     18 C          63.5771   88.8778   12.1712 C.ar    1  UNL1        0.0190
     19 N          66.5521   91.9304   11.3549 N.ar    1  UNL1       -0.2024
     20 N          67.0628   91.9790   12.5761 N.ar    1  UNL1       -0.1442
     21 C          66.3164   91.1488   13.3366 C.ar    1  UNL1        0.2073
     22 N          65.3273   90.5695   12.6189 N.ar    1  UNL1       -0.2398
     23 C          65.5100   91.0763   11.3835 C.ar    1  UNL1        0.3522
     24 O          64.8198   90.7646   10.3758 O.2     1  UNL1       -0.2444
     25 C          67.0921   92.6803   10.2147 C.3     1  UNL1        0.1099
     26 C          66.0987   93.7654    9.7769 C.3     1  UNL1        0.0265
     27 C          68.8930   91.2021    9.1612 C.3     1  UNL1        0.0021
     28 C          67.4560   91.7152    9.0671 C.3     1  UNL1        0.0245
     29 O          57.7998   80.4527   10.8837 O.3     1  UNL1       -0.4727
     30 C          58.5572   79.7836    9.8769 C.3     1  UNL1        0.2374
     31 C          59.9491   79.4153   10.4095 C.3     1  UNL1        0.1909
     32 C          60.8822   78.9225    9.3397 C.3     1  UNL1        0.1783
     33 O          61.7318   79.9824    9.0385 O.3     1  UNL1       -0.3266
     34 C          61.5774   80.9404   10.0668 C.3     1  UNL1        0.2315
     35 O          60.5581   80.5380   10.9646 O.3     1  UNL1       -0.3254
     36 C          61.2143   82.3157    9.4888 C.ar    1  UNL1        0.0410
     37 C          61.6893   83.4646   10.1593 C.ar    1  UNL1        0.0022
     38 C          61.3962   84.7464    9.6937 C.ar    1  UNL1        0.0113
     39 C          60.6443   84.9143    8.5336 C.ar    1  UNL1        0.0585
     40 CL         60.2690   86.5272    7.9559 Cl      1  UNL1       -0.0822
     41 C          60.1967   83.7978    7.8284 C.ar    1  UNL1        0.0226
     42 C          60.4736   82.5027    8.2857 C.ar    1  UNL1        0.0591
     43 CL         59.8684   81.1822    7.2875 Cl      1  UNL1       -0.0824
     44 C          62.8905   81.0351   10.8692 C.3     1  UNL1        0.1897
     45 N          62.6550   80.9949   12.3106 N.ar    1  UNL1       -0.2246
     46 C          62.8553   81.9902   13.1899 C.ar    1  UNL1        0.1974
     47 N          62.5456   81.6011   14.4414 N.ar    1  UNL1       -0.2007
     48 C          62.1501   80.3213   14.2594 C.ar    1  UNL1        0.2210
     49 N          62.2137   79.9395   12.9687 N.ar    1  UNL1       -0.1450
@<TRIPOS>BOND
     1    27    28    1
     2    28    25    1
     3    25    26    1
     4    25    19    1
     5    19    20   ar
     6    20    21   ar
     7    21    22   ar
     8    22    13    1
     9    13    14   ar
    10    14    15   ar
    11    15    16   ar
    12    16     7    1
    13     7     8    1
    14     8     9    1
    15     9    10    1
    16    10     1    1
    17     1     2   ar
    18     2     3   ar
    19     3     4   ar
    20     4    29    1
    21    29    30    1
    22    30    31    1
    23    31    32    1
    24    32    33    1
    25    33    34    1
    26    34    44    1
    27    44    45    1
    28    45    46   ar
    29    46    47   ar
    30    47    48   ar
    31    48    49   ar
    32    34    36    1
    33    36    37   ar
    34    37    38   ar
    35    38    39   ar
    36    39    40    1
    37    39    41   ar
    38    41    42   ar
    39    42    43    1
    40    34    35    1
    41     4     5   ar
    42     5     6   ar
    43    10    11    1
    44    11    12    1
    45    16    17   ar
    46    17    18   ar
    47    22    23   ar
    48    23    24    2
    49    23    19   ar
    50    18    13   ar
    51    12     7    1
    52     6     1   ar
    53    35    31    1
    54    49    45   ar
    55    42    36   ar
