@<TRIPOS>MOLECULE
*****
 38 42 0 0 0
SMALL
GASTEIGER

@<TRIPOS>ATOM
      1 C         -21.5356   -9.0769  -14.0697 C.2     1  UNL1        0.2491
      2 O         -21.3500   -8.3076  -15.0519 O.2     1  UNL1       -0.2699
      3 N         -21.3088   -8.5853  -12.7364 N.am    1  UNL1       -0.2760
      4 C         -21.7816   -7.2417  -12.3761 C.3     1  UNL1        0.0954
      5 C         -21.1318   -6.7465  -11.0758 C.3     1  UNL1        0.0399
      6 C         -21.2598   -7.7626   -9.9023 C.3     1  UNL1        0.0645
      7 C         -21.0847   -9.2408  -10.3888 C.3     1  UNL1        0.0399
      8 C         -20.4819   -9.3461  -11.7913 C.3     1  UNL1        0.0954
      9 C         -20.1478   -7.4220   -8.8483 C.3     1  UNL1        0.0479
     10 C         -20.4527   -8.0487   -7.5173 C.ar    1  UNL1        0.0269
     11 C         -21.7157   -8.3045   -7.0929 C.ar    1  UNL1        0.1517
     12 N         -21.7096   -8.7619   -5.8317 N.ar    1  UNL1       -0.1649
     13 N         -20.4437   -8.7949   -5.4180 N.ar    1  UNL1       -0.2485
     14 C         -19.6438   -8.3650   -6.4439 C.ar    1  UNL1        0.1506
     15 C         -22.8639   -8.0592   -7.9509 C.2     1  UNL1        0.2650
     16 O         -24.0415   -8.2005   -7.5278 O.2     1  UNL1       -0.2684
     17 N         -22.6076   -7.6279   -9.2961 N.am    1  UNL1       -0.3023
     18 H         -23.4265   -7.3928   -9.9013 H       1  UNL1        0.1497
     19 C         -25.2939  -13.9164  -13.6903 C.ar    1  UNL1        0.2249
     20 C         -24.5485  -14.8100  -14.4657 C.ar    1  UNL1        0.0577
     21 C         -23.3368  -14.3965  -15.0236 C.ar    1  UNL1        0.0063
     22 C         -22.8774  -13.0921  -14.8019 C.ar    1  UNL1        0.0179
     23 C         -21.6695  -12.6418  -15.3502 C.ar    1  UNL1        0.0016
     24 C         -21.2362  -11.3341  -15.1105 C.ar    1  UNL1        0.0046
     25 C         -21.9987  -10.4625  -14.3124 C.ar    1  UNL1        0.0551
     26 C         -23.2187  -10.9118  -13.7774 C.ar    1  UNL1        0.0237
     27 C         -23.6561  -12.2191  -14.0128 C.ar    1  UNL1        0.0845
     28 N         -24.8329  -12.6503  -13.4844 N.ar    1  UNL1       -0.2117
     29 C         -26.6905  -14.5112  -11.7349 C.3     1  UNL1        0.2542
     30 O         -26.5061  -14.3355  -13.1347 O.3     1  UNL1       -0.4561
     31 C         -20.0793   -9.2163   -4.0395 C.3     1  UNL1        0.0869
     32 C         -21.3101   -9.8125   -3.3324 C.3     1  UNL1        0.0244
     33 C         -19.6116   -7.9873   -3.2206 C.3     1  UNL1        0.0244
     34 C         -18.9113  -10.2282   -4.0516 C.3     1  UNL1        0.0244
     35 C         -18.1783   -8.2138   -6.4535 C.2     1  UNL1        0.3553
     36 O         -17.4262   -9.2215   -6.4938 O.2     1  UNL1       -0.2434
     37 O         -17.6217   -6.9396   -6.4998 O.3     1  UNL1       -0.4761
     38 H         -16.6175   -6.8119   -6.5361 H       1  UNL1        0.2955
@<TRIPOS>BOND
     1    29    30    1
     2    30    19    1
     3    19    20   ar
     4    20    21   ar
     5    21    22   ar
     6    22    23   ar
     7    23    24   ar
     8    24    25   ar
     9    25     1    1
    10     1     2    2
    11     1     3   am
    12     3     4    1
    13     4     5    1
    14     5     6    1
    15     6     7    1
    16     7     8    1
    17     6     9    1
    18     9    10    1
    19    10    11   ar
    20    11    12   ar
    21    12    13   ar
    22    13    31    1
    23    31    32    1
    24    31    33    1
    25    31    34    1
    26    13    14   ar
    27    14    35    1
    28    35    36    2
    29    35    37    1
    30    11    15    1
    31    15    16    2
    32    15    17   am
    33    25    26   ar
    34    26    27   ar
    35    27    28   ar
    36    28    19   ar
    37    27    22   ar
    38     8     3    1
    39    14    10   ar
    40    17     6    1
    41    37    38    1
    42    17    18    1
@<TRIPOS>MOLECULE
*****
 38 42 0 0 0
SMALL
GASTEIGER

@<TRIPOS>ATOM
      1 C         -24.0515   -8.7471  -12.2029 C.2     1  UNL1        0.2491
      2 O         -23.8078   -8.9571  -10.9833 O.2     1  UNL1       -0.2699
      3 N         -24.9353   -7.6725  -12.5702 N.am    1  UNL1       -0.2760
      4 C         -24.8155   -6.3780  -11.8859 C.3     1  UNL1        0.0954
      5 C         -26.0525   -5.4994  -12.1232 C.3     1  UNL1        0.0399
      6 C         -26.4169   -5.3503  -13.6301 C.3     1  UNL1        0.0645
      7 C         -26.2045   -6.6876  -14.4169 C.3     1  UNL1        0.0399
      8 C         -26.0446   -7.9049  -13.5036 C.3     1  UNL1        0.0954
      9 C         -27.9244   -4.9225  -13.7198 C.3     1  UNL1        0.0479
     10 C         -28.2449   -4.3475  -15.0704 C.ar    1  UNL1        0.0269
     11 C         -27.3261   -3.7118  -15.8398 C.ar    1  UNL1        0.1517
     12 N         -27.8990   -3.2026  -16.9409 N.ar    1  UNL1       -0.1649
     13 N         -29.1989   -3.4897  -16.8919 N.ar    1  UNL1       -0.2485
     14 C         -29.4396   -4.2038  -15.7476 C.ar    1  UNL1        0.1506
     15 C         -25.9332   -3.6214  -15.4318 C.2     1  UNL1        0.2650
     16 O         -25.0982   -2.9485  -16.0919 O.2     1  UNL1       -0.2684
     17 N         -25.5462   -4.3111  -14.2335 N.am    1  UNL1       -0.3023
     18 H         -24.5614   -4.2036  -13.9008 H       1  UNL1        0.1497
     19 C         -23.1765  -13.7761  -15.6135 C.ar    1  UNL1        0.2249
     20 C         -22.0953  -13.3175  -16.3726 C.ar    1  UNL1        0.0577
     21 C         -21.6013  -12.0281  -16.1630 C.ar    1  UNL1        0.0063
     22 C         -22.1909  -11.2055  -15.1951 C.ar    1  UNL1        0.0179
     23 C         -21.7249   -9.9051  -14.9618 C.ar    1  UNL1        0.0016
     24 C         -22.3334   -9.1074  -13.9877 C.ar    1  UNL1        0.0046
     25 C         -23.4085   -9.6014  -13.2276 C.ar    1  UNL1        0.0551
     26 C         -23.8850  -10.9008  -13.4754 C.ar    1  UNL1        0.0237
     27 C         -23.2793  -11.7032  -14.4474 C.ar    1  UNL1        0.0845
     28 N         -23.7392  -12.9628  -14.6756 N.ar    1  UNL1       -0.2117
     29 C         -24.9413  -15.3193  -16.4083 C.3     1  UNL1        0.2542
     30 O         -23.6670  -15.0673  -15.8278 O.3     1  UNL1       -0.4561
     31 C         -30.1440   -3.0324  -17.9447 C.3     1  UNL1        0.0869
     32 C         -30.7341   -4.2485  -18.6817 C.3     1  UNL1        0.0244
     33 C         -29.3918   -2.1667  -18.9861 C.3     1  UNL1        0.0244
     34 C         -31.2680   -2.1553  -17.3483 C.3     1  UNL1        0.0244
     35 C         -30.7257   -4.7264  -15.2544 C.2     1  UNL1        0.3553
     36 O         -31.5046   -3.9978  -14.5870 O.2     1  UNL1       -0.2434
     37 O         -31.1187   -6.0155  -15.5995 O.3     1  UNL1       -0.4761
     38 H         -32.0114   -6.3859  -15.2960 H       1  UNL1        0.2955
@<TRIPOS>BOND
     1    29    30    1
     2    30    19    1
     3    19    20   ar
     4    20    21   ar
     5    21    22   ar
     6    22    23   ar
     7    23    24   ar
     8    24    25   ar
     9    25     1    1
    10     1     2    2
    11     1     3   am
    12     3     4    1
    13     4     5    1
    14     5     6    1
    15     6     7    1
    16     7     8    1
    17     6     9    1
    18     9    10    1
    19    10    11   ar
    20    11    12   ar
    21    12    13   ar
    22    13    31    1
    23    31    32    1
    24    31    33    1
    25    31    34    1
    26    13    14   ar
    27    14    35    1
    28    35    36    2
    29    35    37    1
    30    11    15    1
    31    15    16    2
    32    15    17   am
    33    25    26   ar
    34    26    27   ar
    35    27    28   ar
    36    28    19   ar
    37    27    22   ar
    38     8     3    1
    39    14    10   ar
    40    17     6    1
    41    37    38    1
    42    17    18    1
@<TRIPOS>MOLECULE
*****
 38 42 0 0 0
SMALL
GASTEIGER

@<TRIPOS>ATOM
      1 C         -22.0849   -7.8458   -8.6059 C.2     1  UNL1        0.2491
      2 O         -22.6736   -6.8387   -8.1261 O.2     1  UNL1       -0.2699
      3 N         -22.6033   -8.4642   -9.7973 N.am    1  UNL1       -0.2760
      4 C         -23.0612   -7.6159  -10.9061 C.3     1  UNL1        0.0954
      5 C         -23.9154   -8.4092  -11.9057 C.3     1  UNL1        0.0399
      6 C         -23.2269   -9.7175  -12.3957 C.3     1  UNL1        0.0645
      7 C         -22.4477  -10.4341  -11.2417 C.3     1  UNL1        0.0399
      8 C         -22.8195   -9.9155   -9.8509 C.3     1  UNL1        0.0954
      9 C         -24.3451  -10.6720  -12.9453 C.3     1  UNL1        0.0479
     10 C         -23.7593  -11.7488  -13.8142 C.ar    1  UNL1        0.0269
     11 C         -22.6165  -11.5835  -14.5262 C.ar    1  UNL1        0.1517
     12 N         -22.3781  -12.6551  -15.2976 N.ar    1  UNL1       -0.1649
     13 N         -23.3710  -13.5223  -15.1056 N.ar    1  UNL1       -0.2485
     14 C         -24.2367  -12.9896  -14.1869 C.ar    1  UNL1        0.1506
     15 C         -21.8335  -10.3624  -14.4233 C.2     1  UNL1        0.2650
     16 O         -20.8280  -10.1637  -15.1551 O.2     1  UNL1       -0.2684
     17 N         -22.2610   -9.3779  -13.4697 N.am    1  UNL1       -0.3023
     18 H         -21.7396   -8.4731  -13.4302 H       1  UNL1        0.1497
     19 C         -18.3540   -9.1736   -3.9147 C.ar    1  UNL1        0.2249
     20 C         -17.3081   -9.7447   -4.6462 C.ar    1  UNL1        0.0577
     21 C         -17.4059   -9.8351   -6.0364 C.ar    1  UNL1        0.0063
     22 C         -18.5488   -9.3531   -6.6867 C.ar    1  UNL1        0.0179
     23 C         -18.6832   -9.4322   -8.0790 C.ar    1  UNL1        0.0016
     24 C         -19.8358   -8.9413   -8.7002 C.ar    1  UNL1        0.0046
     25 C         -20.8645   -8.3566   -7.9402 C.ar    1  UNL1        0.0551
     26 C         -20.7344   -8.2937   -6.5417 C.ar    1  UNL1        0.0237
     27 C         -19.5832   -8.7818   -5.9154 C.ar    1  UNL1        0.0845
     28 N         -19.4597   -8.7094   -4.5628 N.ar    1  UNL1       -0.2117
     29 C         -18.6834   -7.9458   -1.7906 C.3     1  UNL1        0.2542
     30 O         -18.2509   -9.0860   -2.5235 O.3     1  UNL1       -0.4561
     31 C         -23.4415  -14.8107  -15.8442 C.3     1  UNL1        0.0869
     32 C         -22.9984  -15.9646  -14.9261 C.3     1  UNL1        0.0244
     33 C         -22.4788  -14.7744  -17.0574 C.3     1  UNL1        0.0244
     34 C         -24.8624  -15.0650  -16.3961 C.3     1  UNL1        0.0244
     35 C         -25.4878  -13.5718  -13.6709 C.2     1  UNL1        0.3553
     36 O         -25.4830  -14.3140  -12.6550 O.2     1  UNL1       -0.2434
     37 O         -26.6982  -13.2315  -14.2665 O.3     1  UNL1       -0.4761
     38 H         -27.5736  -13.5967  -13.9109 H       1  UNL1        0.2955
@<TRIPOS>BOND
     1    29    30    1
     2    30    19    1
     3    19    20   ar
     4    20    21   ar
     5    21    22   ar
     6    22    23   ar
     7    23    24   ar
     8    24    25   ar
     9    25     1    1
    10     1     2    2
    11     1     3   am
    12     3     4    1
    13     4     5    1
    14     5     6    1
    15     6     7    1
    16     7     8    1
    17     6     9    1
    18     9    10    1
    19    10    11   ar
    20    11    12   ar
    21    12    13   ar
    22    13    31    1
    23    31    32    1
    24    31    33    1
    25    31    34    1
    26    13    14   ar
    27    14    35    1
    28    35    36    2
    29    35    37    1
    30    11    15    1
    31    15    16    2
    32    15    17   am
    33    25    26   ar
    34    26    27   ar
    35    27    28   ar
    36    28    19   ar
    37    27    22   ar
    38     8     3    1
    39    14    10   ar
    40    17     6    1
    41    37    38    1
    42    17    18    1
@<TRIPOS>MOLECULE
*****
 38 42 0 0 0
SMALL
GASTEIGER

@<TRIPOS>ATOM
      1 C         -25.0034   -9.3700  -11.8161 C.2     1  UNL1        0.2491
      2 O         -24.6764   -9.4703  -10.6020 O.2     1  UNL1       -0.2699
      3 N         -25.6347   -8.1624  -12.2787 N.am    1  UNL1       -0.2760
      4 C         -25.1224   -6.8634  -11.8217 C.3     1  UNL1        0.0954
      5 C         -26.1262   -5.7343  -12.0968 C.3     1  UNL1        0.0399
      6 C         -26.6180   -5.6995  -13.5742 C.3     1  UNL1        0.0645
      7 C         -26.8331   -7.1392  -14.1517 C.3     1  UNL1        0.0399
      8 C         -26.8691   -8.2224  -13.0714 C.3     1  UNL1        0.0954
      9 C         -27.9750   -4.9115  -13.6104 C.3     1  UNL1        0.0479
     10 C         -28.3021   -4.4598  -15.0056 C.ar    1  UNL1        0.0269
     11 C         -27.3529   -4.1934  -15.9376 C.ar    1  UNL1        0.1517
     12 N         -27.9097   -3.7055  -17.0566 N.ar    1  UNL1       -0.1649
     13 N         -29.2252   -3.6365  -16.8586 N.ar    1  UNL1       -0.2485
     14 C         -29.4966   -4.1035  -15.5995 C.ar    1  UNL1        0.1506
     15 C         -25.9421   -4.4132  -15.6617 C.2     1  UNL1        0.2650
     16 O         -25.0518   -4.0747  -16.4854 O.2     1  UNL1       -0.2684
     17 N         -25.5971   -5.0123  -14.4034 N.am    1  UNL1       -0.3023
     18 H         -24.5837   -5.1202  -14.1719 H       1  UNL1        0.1497
     19 C         -23.1531  -12.0646  -17.0127 C.ar    1  UNL1        0.2249
     20 C         -23.3629  -13.3943  -16.6344 C.ar    1  UNL1        0.0577
     21 C         -23.8608  -13.6802  -15.3613 C.ar    1  UNL1        0.0063
     22 C         -24.1466  -12.6346  -14.4745 C.ar    1  UNL1        0.0179
     23 C         -24.6420  -12.8846  -13.1882 C.ar    1  UNL1        0.0016
     24 C         -24.9190  -11.8197  -12.3253 C.ar    1  UNL1        0.0046
     25 C         -24.7140  -10.4914  -12.7392 C.ar    1  UNL1        0.0551
     26 C         -24.2009  -10.2441  -14.0246 C.ar    1  UNL1        0.0237
     27 C         -23.9235  -11.3052  -14.8921 C.ar    1  UNL1        0.0845
     28 N         -23.4360  -11.0586  -16.1377 N.ar    1  UNL1       -0.2117
     29 C         -23.4529  -11.8707  -19.4622 C.3     1  UNL1        0.2542
     30 O         -22.6542  -11.7843  -18.2880 O.3     1  UNL1       -0.4561
     31 C         -30.1470   -3.0955  -17.8921 C.3     1  UNL1        0.0869
     32 C         -30.8036   -4.2538  -18.6652 C.3     1  UNL1        0.0244
     33 C         -29.3521   -2.2382  -18.9085 C.3     1  UNL1        0.0244
     34 C         -31.2208   -2.1791  -17.2630 C.3     1  UNL1        0.0244
     35 C         -30.8041   -4.2037  -14.9280 C.2     1  UNL1        0.3553
     36 O         -31.2709   -3.2333  -14.2772 O.2     1  UNL1       -0.2434
     37 O         -31.5670   -5.3567  -15.0829 O.3     1  UNL1       -0.4761
     38 H         -32.4813   -5.4368  -14.6543 H       1  UNL1        0.2955
@<TRIPOS>BOND
     1    29    30    1
     2    30    19    1
     3    19    20   ar
     4    20    21   ar
     5    21    22   ar
     6    22    23   ar
     7    23    24   ar
     8    24    25   ar
     9    25     1    1
    10     1     2    2
    11     1     3   am
    12     3     4    1
    13     4     5    1
    14     5     6    1
    15     6     7    1
    16     7     8    1
    17     6     9    1
    18     9    10    1
    19    10    11   ar
    20    11    12   ar
    21    12    13   ar
    22    13    31    1
    23    31    32    1
    24    31    33    1
    25    31    34    1
    26    13    14   ar
    27    14    35    1
    28    35    36    2
    29    35    37    1
    30    11    15    1
    31    15    16    2
    32    15    17   am
    33    25    26   ar
    34    26    27   ar
    35    27    28   ar
    36    28    19   ar
    37    27    22   ar
    38     8     3    1
    39    14    10   ar
    40    17     6    1
    41    37    38    1
    42    17    18    1
@<TRIPOS>MOLECULE
*****
 38 42 0 0 0
SMALL
GASTEIGER

@<TRIPOS>ATOM
      1 C         -20.6586  -10.6032  -11.0568 C.2     1  UNL1        0.2491
      2 O         -20.1532  -11.7527  -11.1763 O.2     1  UNL1       -0.2699
      3 N         -21.6129  -10.1478  -12.0328 N.am    1  UNL1       -0.2760
      4 C         -22.6534  -11.0712  -12.5055 C.3     1  UNL1        0.0954
      5 C         -23.3214  -10.5568  -13.7890 C.3     1  UNL1        0.0399
      6 C         -23.8307   -9.0898  -13.6680 C.3     1  UNL1        0.0645
      7 C         -22.8404   -8.1941  -12.8498 C.3     1  UNL1        0.0399
      8 C         -21.4616   -8.8322  -12.6668 C.3     1  UNL1        0.0954
      9 C         -23.9829   -8.5129  -15.1197 C.3     1  UNL1        0.0479
     10 C         -24.8551   -7.2895  -15.1277 C.ar    1  UNL1        0.0269
     11 C         -25.8429   -7.0803  -14.2217 C.ar    1  UNL1        0.1517
     12 N         -26.5350   -5.9707  -14.5211 N.ar    1  UNL1       -0.1649
     13 N         -26.0134   -5.4546  -15.6329 N.ar    1  UNL1       -0.2485
     14 C         -24.9675   -6.2473  -16.0265 C.ar    1  UNL1        0.1506
     15 C         -26.0646   -8.0041  -13.1207 C.2     1  UNL1        0.2650
     16 O         -27.0405   -7.8684  -12.3364 O.2     1  UNL1       -0.2684
     17 N         -25.1408   -9.0930  -12.9712 N.am    1  UNL1       -0.3023
     18 H         -25.3257   -9.7946  -12.2191 H       1  UNL1        0.1497
     19 C         -17.5757   -9.0612   -5.9767 C.ar    1  UNL1        0.2249
     20 C         -18.1604   -7.8096   -5.7599 C.ar    1  UNL1        0.0577
     21 C         -19.1372   -7.3412   -6.6413 C.ar    1  UNL1        0.0063
     22 C         -19.5240   -8.1276   -7.7338 C.ar    1  UNL1        0.0179
     23 C         -20.4965   -7.6873   -8.6409 C.ar    1  UNL1        0.0016
     24 C         -20.8628   -8.4952   -9.7217 C.ar    1  UNL1        0.0046
     25 C         -20.2697   -9.7572   -9.9052 C.ar    1  UNL1        0.0551
     26 C         -19.2819  -10.1893   -9.0029 C.ar    1  UNL1        0.0237
     27 C         -18.9128   -9.3859   -7.9194 C.ar    1  UNL1        0.0845
     28 N         -17.9631   -9.8140   -7.0449 N.ar    1  UNL1       -0.2117
     29 C         -15.8248   -8.6535   -4.2750 C.3     1  UNL1        0.2542
     30 O         -16.5983   -9.5248   -5.0915 O.3     1  UNL1       -0.4561
     31 C         -26.5747   -4.2341  -16.2701 C.3     1  UNL1        0.0869
     32 C         -25.7515   -3.0013  -15.8541 C.3     1  UNL1        0.0244
     33 C         -28.0316   -4.0142  -15.7918 C.3     1  UNL1        0.0244
     34 C         -26.6151   -4.3715  -17.8089 C.3     1  UNL1        0.0244
     35 C         -24.0986   -6.0887  -17.2056 C.2     1  UNL1        0.3553
     36 O         -22.8569   -5.9334  -17.0756 O.2     1  UNL1       -0.2434
     37 O         -24.6476   -6.1927  -18.4797 O.3     1  UNL1       -0.4761
     38 H         -24.0651   -6.1158  -19.3049 H       1  UNL1        0.2955
@<TRIPOS>BOND
     1    29    30    1
     2    30    19    1
     3    19    20   ar
     4    20    21   ar
     5    21    22   ar
     6    22    23   ar
     7    23    24   ar
     8    24    25   ar
     9    25     1    1
    10     1     2    2
    11     1     3   am
    12     3     4    1
    13     4     5    1
    14     5     6    1
    15     6     7    1
    16     7     8    1
    17     6     9    1
    18     9    10    1
    19    10    11   ar
    20    11    12   ar
    21    12    13   ar
    22    13    31    1
    23    31    32    1
    24    31    33    1
    25    31    34    1
    26    13    14   ar
    27    14    35    1
    28    35    36    2
    29    35    37    1
    30    11    15    1
    31    15    16    2
    32    15    17   am
    33    25    26   ar
    34    26    27   ar
    35    27    28   ar
    36    28    19   ar
    37    27    22   ar
    38     8     3    1
    39    14    10   ar
    40    17     6    1
    41    37    38    1
    42    17    18    1
@<TRIPOS>MOLECULE
*****
 38 42 0 0 0
SMALL
GASTEIGER

@<TRIPOS>ATOM
      1 C         -21.2452   -7.4855   -8.8415 C.2     1  UNL1        0.2491
      2 O         -21.7059   -6.5170   -8.1776 O.2     1  UNL1       -0.2699
      3 N         -21.7388   -7.7266  -10.1715 N.am    1  UNL1       -0.2760
      4 C         -21.9419   -6.5896  -11.0796 C.3     1  UNL1        0.0954
      5 C         -22.8123   -6.9792  -12.2832 C.3     1  UNL1        0.0399
      6 C         -22.3019   -8.2525  -13.0207 C.3     1  UNL1        0.0645
      7 C         -21.7662   -9.3312  -12.0197 C.3     1  UNL1        0.0399
      8 C         -22.1824   -9.0681  -10.5709 C.3     1  UNL1        0.0954
      9 C         -23.5016   -8.8468  -13.8398 C.3     1  UNL1        0.0479
     10 C         -23.0173   -9.7972  -14.8979 C.ar    1  UNL1        0.0269
     11 C         -21.7988   -9.6909  -15.4848 C.ar    1  UNL1        0.1517
     12 N         -21.6642  -10.5946  -16.4673 N.ar    1  UNL1       -0.1649
     13 N         -22.7991  -11.2886  -16.5386 N.ar    1  UNL1       -0.2485
     14 C         -23.6519  -10.8203  -15.5739 C.ar    1  UNL1        0.1506
     15 C         -20.8411   -8.6833  -15.0577 C.2     1  UNL1        0.2650
     16 O         -19.7501   -8.5159  -15.6641 O.2     1  UNL1       -0.2684
     17 N         -21.1933   -7.8684  -13.9294 N.am    1  UNL1       -0.3023
     18 H         -20.5378   -7.1034  -13.6519 H       1  UNL1        0.1497
     19 C         -16.8126  -11.7314   -8.7255 C.ar    1  UNL1        0.2249
     20 C         -16.4971  -11.6543   -7.3655 C.ar    1  UNL1        0.0577
     21 C         -17.1857  -10.7571   -6.5461 C.ar    1  UNL1        0.0063
     22 C         -18.1862   -9.9430   -7.0917 C.ar    1  UNL1        0.0179
     23 C         -18.8934   -9.0282   -6.3008 C.ar    1  UNL1        0.0016
     24 C         -19.8879   -8.2293   -6.8738 C.ar    1  UNL1        0.0046
     25 C         -20.1954   -8.3406   -8.2416 C.ar    1  UNL1        0.0551
     26 C         -19.4725   -9.2476   -9.0364 C.ar    1  UNL1        0.0237
     27 C         -18.4780  -10.0499   -8.4682 C.ar    1  UNL1        0.0845
     28 N         -17.7888  -10.9319   -9.2409 N.ar    1  UNL1       -0.2117
     29 C         -14.7141  -12.5570   -9.7465 C.3     1  UNL1        0.2542
     30 O         -16.1200  -12.6310   -9.5409 O.3     1  UNL1       -0.4561
     31 C         -23.0063  -12.3517  -17.5572 C.3     1  UNL1        0.0869
     32 C         -23.9924  -13.4052  -17.0204 C.3     1  UNL1        0.0244
     33 C         -21.6637  -13.0662  -17.8517 C.3     1  UNL1        0.0244
     34 C         -23.5110  -11.7597  -18.8926 C.3     1  UNL1        0.0244
     35 C         -25.0255  -11.2644  -15.2798 C.2     1  UNL1        0.3553
     36 O         -25.3259  -11.7258  -14.1485 O.2     1  UNL1       -0.2434
     37 O         -26.0195  -11.0966  -16.2385 O.3     1  UNL1       -0.4761
     38 H         -26.9767  -11.3680  -16.0482 H       1  UNL1        0.2955
@<TRIPOS>BOND
     1    29    30    1
     2    30    19    1
     3    19    20   ar
     4    20    21   ar
     5    21    22   ar
     6    22    23   ar
     7    23    24   ar
     8    24    25   ar
     9    25     1    1
    10     1     2    2
    11     1     3   am
    12     3     4    1
    13     4     5    1
    14     5     6    1
    15     6     7    1
    16     7     8    1
    17     6     9    1
    18     9    10    1
    19    10    11   ar
    20    11    12   ar
    21    12    13   ar
    22    13    31    1
    23    31    32    1
    24    31    33    1
    25    31    34    1
    26    13    14   ar
    27    14    35    1
    28    35    36    2
    29    35    37    1
    30    11    15    1
    31    15    16    2
    32    15    17   am
    33    25    26   ar
    34    26    27   ar
    35    27    28   ar
    36    28    19   ar
    37    27    22   ar
    38     8     3    1
    39    14    10   ar
    40    17     6    1
    41    37    38    1
    42    17    18    1
@<TRIPOS>MOLECULE
*****
 38 42 0 0 0
SMALL
GASTEIGER

@<TRIPOS>ATOM
      1 C         -21.2293   -7.1833   -8.9329 C.2     1  UNL1        0.2491
      2 O         -21.6723   -6.1772   -8.3145 O.2     1  UNL1       -0.2699
      3 N         -21.7170   -7.4684  -10.2563 N.am    1  UNL1       -0.2760
      4 C         -21.8850   -6.3661  -11.2130 C.3     1  UNL1        0.0954
      5 C         -22.7541   -6.7854  -12.4076 C.3     1  UNL1        0.0399
      6 C         -22.2679   -8.1002  -13.0863 C.3     1  UNL1        0.0645
      7 C         -21.7668   -9.1482  -12.0360 C.3     1  UNL1        0.0399
      8 C         -22.1891   -8.8146  -10.6035 C.3     1  UNL1        0.0954
      9 C         -23.4744   -8.6999  -13.8914 C.3     1  UNL1        0.0479
     10 C         -23.0038   -9.7051  -14.9041 C.ar    1  UNL1        0.0269
     11 C         -21.7781   -9.6522  -15.4833 C.ar    1  UNL1        0.1517
     12 N         -21.6568  -10.5994  -16.4257 N.ar    1  UNL1       -0.1649
     13 N         -22.8072  -11.2688  -16.4789 N.ar    1  UNL1       -0.2485
     14 C         -23.6569  -10.7405  -15.5428 C.ar    1  UNL1        0.1506
     15 C         -20.8003   -8.6504  -15.0894 C.2     1  UNL1        0.2650
     16 O         -19.7005   -8.5343  -15.6917 O.2     1  UNL1       -0.2684
     17 N         -21.1427   -7.7808  -13.9995 N.am    1  UNL1       -0.3023
     18 H         -20.4714   -7.0204  -13.7480 H       1  UNL1        0.1497
     19 C         -17.7038   -9.2936   -4.3714 C.ar    1  UNL1        0.2249
     20 C         -17.0267  -10.2872   -5.0850 C.ar    1  UNL1        0.0577
     21 C         -17.3125  -10.4828   -6.4380 C.ar    1  UNL1        0.0063
     22 C         -18.2733   -9.6829   -7.0693 C.ar    1  UNL1        0.0179
     23 C         -18.5892   -9.8546   -8.4233 C.ar    1  UNL1        0.0016
     24 C         -19.5523   -9.0399   -9.0264 C.ar    1  UNL1        0.0046
     25 C         -20.2054   -8.0370   -8.2877 C.ar    1  UNL1        0.0551
     26 C         -19.8985   -7.8779   -6.9249 C.ar    1  UNL1        0.0237
     27 C         -18.9351   -8.6891   -6.3171 C.ar    1  UNL1        0.0845
     28 N         -18.6363   -8.5238   -5.0005 N.ar    1  UNL1       -0.2117
     29 C         -18.2242   -8.3042   -2.1627 C.3     1  UNL1        0.2542
     30 O         -17.4140   -9.1025   -3.0174 O.3     1  UNL1       -0.4561
     31 C         -23.0310  -12.3686  -17.4541 C.3     1  UNL1        0.0869
     32 C         -24.0168  -13.3953  -16.8673 C.3     1  UNL1        0.0244
     33 C         -21.6955  -13.1015  -17.7353 C.3     1  UNL1        0.0244
     34 C         -23.5468  -11.8248  -18.8056 C.3     1  UNL1        0.0244
     35 C         -25.0432  -11.1394  -15.2437 C.2     1  UNL1        0.3553
     36 O         -25.3865  -11.4511  -14.0741 O.2     1  UNL1       -0.2434
     37 O         -26.0016  -11.0932  -16.2510 O.3     1  UNL1       -0.4761
     38 H         -26.9669  -11.3352  -16.0619 H       1  UNL1        0.2955
@<TRIPOS>BOND
     1    29    30    1
     2    30    19    1
     3    19    20   ar
     4    20    21   ar
     5    21    22   ar
     6    22    23   ar
     7    23    24   ar
     8    24    25   ar
     9    25     1    1
    10     1     2    2
    11     1     3   am
    12     3     4    1
    13     4     5    1
    14     5     6    1
    15     6     7    1
    16     7     8    1
    17     6     9    1
    18     9    10    1
    19    10    11   ar
    20    11    12   ar
    21    12    13   ar
    22    13    31    1
    23    31    32    1
    24    31    33    1
    25    31    34    1
    26    13    14   ar
    27    14    35    1
    28    35    36    2
    29    35    37    1
    30    11    15    1
    31    15    16    2
    32    15    17   am
    33    25    26   ar
    34    26    27   ar
    35    27    28   ar
    36    28    19   ar
    37    27    22   ar
    38     8     3    1
    39    14    10   ar
    40    17     6    1
    41    37    38    1
    42    17    18    1
@<TRIPOS>MOLECULE
*****
 38 42 0 0 0
SMALL
GASTEIGER

@<TRIPOS>ATOM
      1 C         -25.0318   -9.2254  -11.7355 C.2     1  UNL1        0.2491
      2 O         -24.8276   -9.3765  -10.5000 O.2     1  UNL1       -0.2699
      3 N         -25.7289   -8.0541  -12.1968 N.am    1  UNL1       -0.2760
      4 C         -25.4020   -6.7466  -11.6117 C.3     1  UNL1        0.0954
      5 C         -26.4796   -5.7009  -11.9335 C.3     1  UNL1        0.0399
      6 C         -26.8121   -5.6125  -13.4525 C.3     1  UNL1        0.0645
      7 C         -26.8180   -7.0237  -14.1315 C.3     1  UNL1        0.0399
      8 C         -26.8594   -8.1761  -13.1257 C.3     1  UNL1        0.0954
      9 C         -28.2301   -4.9552  -13.5965 C.3     1  UNL1        0.0479
     10 C         -28.4506   -4.4427  -14.9916 C.ar    1  UNL1        0.0269
     11 C         -27.4393   -4.0257  -15.7940 C.ar    1  UNL1        0.1517
     12 N         -27.9200   -3.5178  -16.9390 N.ar    1  UNL1       -0.1649
     13 N         -29.2493   -3.5864  -16.8870 N.ar    1  UNL1       -0.2485
     14 C         -29.6048   -4.1611  -15.6951 C.ar    1  UNL1        0.1506
     15 C         -26.0510   -4.1300  -15.3738 C.2     1  UNL1        0.2650
     16 O         -25.1166   -3.6542  -16.0713 O.2     1  UNL1       -0.2684
     17 N         -25.7833   -4.7778  -14.1209 N.am    1  UNL1       -0.3023
     18 H         -24.7947   -4.8052  -13.7831 H       1  UNL1        0.1497
     19 C         -21.1212  -13.3710  -14.0183 C.ar    1  UNL1        0.2249
     20 C         -21.8746  -13.7673  -15.1276 C.ar    1  UNL1        0.0577
     21 C         -23.1235  -13.1862  -15.3581 C.ar    1  UNL1        0.0063
     22 C         -23.6110  -12.2116  -14.4782 C.ar    1  UNL1        0.0179
     23 C         -24.8614  -11.6115  -14.6755 C.ar    1  UNL1        0.0016
     24 C         -25.3210  -10.6405  -13.7804 C.ar    1  UNL1        0.0046
     25 C         -24.5339  -10.2495  -12.6825 C.ar    1  UNL1        0.0551
     26 C         -23.2868  -10.8655  -12.4775 C.ar    1  UNL1        0.0237
     27 C         -22.8217  -11.8361  -13.3704 C.ar    1  UNL1        0.0845
     28 N         -21.6101  -12.4215  -13.1714 N.ar    1  UNL1       -0.2117
     29 C         -19.2750  -14.0203  -12.5025 C.3     1  UNL1        0.2542
     30 O         -19.8721  -13.9562  -13.7923 O.3     1  UNL1       -0.4561
     31 C         -30.1056   -3.0658  -17.9853 C.3     1  UNL1        0.0869
     32 C         -30.7491   -4.2386  -18.7474 C.3     1  UNL1        0.0244
     33 C         -29.2414   -2.2648  -18.9909 C.3     1  UNL1        0.0244
     34 C         -31.1882   -2.1037  -17.4459 C.3     1  UNL1        0.0244
     35 C         -30.9596   -4.4291  -15.1821 C.2     1  UNL1        0.3553
     36 O         -31.6406   -3.5144  -14.6505 O.2     1  UNL1       -0.2434
     37 O         -31.5227   -5.6886  -15.3604 O.3     1  UNL1       -0.4761
     38 H         -32.4634   -5.8876  -15.0417 H       1  UNL1        0.2955
@<TRIPOS>BOND
     1    29    30    1
     2    30    19    1
     3    19    20   ar
     4    20    21   ar
     5    21    22   ar
     6    22    23   ar
     7    23    24   ar
     8    24    25   ar
     9    25     1    1
    10     1     2    2
    11     1     3   am
    12     3     4    1
    13     4     5    1
    14     5     6    1
    15     6     7    1
    16     7     8    1
    17     6     9    1
    18     9    10    1
    19    10    11   ar
    20    11    12   ar
    21    12    13   ar
    22    13    31    1
    23    31    32    1
    24    31    33    1
    25    31    34    1
    26    13    14   ar
    27    14    35    1
    28    35    36    2
    29    35    37    1
    30    11    15    1
    31    15    16    2
    32    15    17   am
    33    25    26   ar
    34    26    27   ar
    35    27    28   ar
    36    28    19   ar
    37    27    22   ar
    38     8     3    1
    39    14    10   ar
    40    17     6    1
    41    37    38    1
    42    17    18    1
@<TRIPOS>MOLECULE
*****
 38 42 0 0 0
SMALL
GASTEIGER

@<TRIPOS>ATOM
      1 C         -27.2747   -5.7286  -13.4592 C.2     1  UNL1        0.2491
      2 O         -28.3987   -5.3082  -13.0709 O.2     1  UNL1       -0.2699
      3 N         -26.4480   -6.4750  -12.5480 N.am    1  UNL1       -0.2760
      4 C         -27.0637   -7.5008  -11.6951 C.3     1  UNL1        0.0954
      5 C         -26.1308   -7.9118  -10.5467 C.3     1  UNL1        0.0399
      6 C         -24.7045   -8.3097  -11.0296 C.3     1  UNL1        0.0645
      7 C         -24.2056   -7.3904  -12.1951 C.3     1  UNL1        0.0399
      8 C         -25.0374   -6.1161  -12.3555 C.3     1  UNL1        0.0954
      9 C         -23.7298   -8.1815   -9.8061 C.3     1  UNL1        0.0479
     10 C         -22.4536   -8.9364  -10.0487 C.ar    1  UNL1        0.0269
     11 C         -22.3841  -10.0343  -10.8426 C.ar    1  UNL1        0.1517
     12 N         -21.1571  -10.5754  -10.7986 N.ar    1  UNL1       -0.1649
     13 N         -20.4202   -9.8431   -9.9648 N.ar    1  UNL1       -0.2485
     14 C         -21.1959   -8.8178   -9.4913 C.ar    1  UNL1        0.1506
     15 C         -23.5437  -10.5038  -11.5840 C.2     1  UNL1        0.2650
     16 O         -23.5114  -11.5768  -12.2423 O.2     1  UNL1       -0.2684
     17 N         -24.7379   -9.7093  -11.5216 N.am    1  UNL1       -0.3023
     18 H         -25.5931  -10.0689  -12.0028 H       1  UNL1        0.1497
     19 C         -27.5083   -3.2064  -19.0515 C.ar    1  UNL1        0.2249
     20 C         -26.3566   -3.7938  -19.5842 C.ar    1  UNL1        0.0577
     21 C         -25.5951   -4.6602  -18.7967 C.ar    1  UNL1        0.0063
     22 C         -25.9905   -4.9345  -17.4815 C.ar    1  UNL1        0.0179
     23 C         -25.2482   -5.7942  -16.6615 C.ar    1  UNL1        0.0016
     24 C         -25.6686   -6.0498  -15.3526 C.ar    1  UNL1        0.0046
     25 C         -26.8407   -5.4578  -14.8491 C.ar    1  UNL1        0.0551
     26 C         -27.5746   -4.5824  -15.6686 C.ar    1  UNL1        0.0237
     27 C         -27.1594   -4.3244  -16.9788 C.ar    1  UNL1        0.0845
     28 N         -27.8792   -3.4836  -17.7695 N.ar    1  UNL1       -0.2117
     29 C         -27.7374   -1.6865  -20.9919 C.3     1  UNL1        0.2542
     30 O         -28.2664   -2.3398  -19.8440 O.3     1  UNL1       -0.4561
     31 C         -19.0097  -10.1927   -9.6504 C.3     1  UNL1        0.0869
     32 C         -18.0558   -9.3142  -10.4804 C.3     1  UNL1        0.0244
     33 C         -18.7386  -11.6712  -10.0252 C.3     1  UNL1        0.0244
     34 C         -18.7169  -10.0433   -8.1403 C.3     1  UNL1        0.0244
     35 C         -20.8241   -7.7630   -8.5323 C.2     1  UNL1        0.3553
     36 O         -20.7078   -8.0182   -7.3058 O.2     1  UNL1       -0.2434
     37 O         -20.5198   -6.4886   -8.9999 O.3     1  UNL1       -0.4761
     38 H         -20.2338   -5.7552   -8.3624 H       1  UNL1        0.2955
@<TRIPOS>BOND
     1    29    30    1
     2    30    19    1
     3    19    20   ar
     4    20    21   ar
     5    21    22   ar
     6    22    23   ar
     7    23    24   ar
     8    24    25   ar
     9    25     1    1
    10     1     2    2
    11     1     3   am
    12     3     4    1
    13     4     5    1
    14     5     6    1
    15     6     7    1
    16     7     8    1
    17     6     9    1
    18     9    10    1
    19    10    11   ar
    20    11    12   ar
    21    12    13   ar
    22    13    31    1
    23    31    32    1
    24    31    33    1
    25    31    34    1
    26    13    14   ar
    27    14    35    1
    28    35    36    2
    29    35    37    1
    30    11    15    1
    31    15    16    2
    32    15    17   am
    33    25    26   ar
    34    26    27   ar
    35    27    28   ar
    36    28    19   ar
    37    27    22   ar
    38     8     3    1
    39    14    10   ar
    40    17     6    1
    41    37    38    1
    42    17    18    1
