@<TRIPOS>MOLECULE
*****
 52 57 0 0 0
SMALL
GASTEIGER

@<TRIPOS>ATOM
      1 N          61.9020   84.1048   13.6343 N.am    1  UNL1       -0.2945
      2 C          60.7034   84.1203   12.8424 C.2     1  UNL1        0.2483
      3 O          59.7902   83.2799   13.0696 O.2     1  UNL1       -0.2701
      4 H          62.5208   84.9462   13.6095 H       1  UNL1        0.1501
      5 C          60.5060   85.1360   11.7834 C.ar    1  UNL1        0.0808
      6 C          59.3799   85.0566   10.9484 C.ar    1  UNL1        0.0080
      7 C          59.1681   86.0076    9.9473 C.ar    1  UNL1        0.0148
      8 C          60.0846   87.0549    9.7499 C.ar    1  UNL1        0.0502
      9 C          61.2189   87.1259   10.5770 C.ar    1  UNL1        0.0443
     10 C          61.4336   86.1755   11.5802 C.ar    1  UNL1        0.1457
     11 F          62.5737   86.2489   12.3129 F       1  UNL1       -0.2040
     12 N          59.8649   88.0433    8.7188 N.pl3   1  UNL1       -0.3040
     13 C          60.4667   89.3791    8.8535 C.3     1  UNL1        0.1123
     14 C          59.7791   90.4032    7.9454 C.3     1  UNL1        0.1136
     15 N          59.6968   89.8976    6.5676 N.pl3   1  UNL1       -0.2897
     16 C          59.4030   88.4743    6.3295 C.3     1  UNL1        0.1136
     17 C          58.9443   87.7635    7.6076 C.3     1  UNL1        0.1123
     18 C          59.7683   90.8251    5.4608 C.ar    1  UNL1        0.1318
     19 C          58.6350   91.5324    5.0229 C.ar    1  UNL1        0.0343
     20 C          58.7453   92.4194    3.9509 C.ar    1  UNL1        0.0083
     21 C          59.9744   92.5906    3.2977 C.ar    1  UNL1        0.0906
     22 C          61.0873   91.8839    3.7775 C.ar    1  UNL1        0.1041
     23 N          60.9565   91.0275    4.8247 N.ar    1  UNL1       -0.2292
     24 C          60.1174   93.5823    2.1715 C.3     1  UNL1        0.4200
     25 F          61.3568   93.4241    1.5802 F       1  UNL1       -0.1658
     26 F          59.1340   93.3836    1.2179 F       1  UNL1       -0.1658
     27 F          60.0056   94.8781    2.6452 F       1  UNL1       -0.1658
     28 C          62.1591   83.0731   14.6472 C.3     1  UNL1        0.1535
     29 C          62.5428   81.7592   13.9992 C.2     1  UNL1        0.2443
     30 O          62.5606   80.6967   14.6797 O.2     1  UNL1       -0.2730
     31 N          62.9479   81.7299   12.6236 N.am    1  UNL1       -0.2825
     32 H          63.3751   82.5957   12.2232 H       1  UNL1        0.1549
     33 C          62.7561   80.5978   11.7559 C.ar    1  UNL1        0.0535
     34 C          62.3997   79.3331   12.2598 C.ar    1  UNL1        0.0353
     35 C          62.1507   78.2827   11.3738 C.ar    1  UNL1        0.1002
     36 N          62.2472   78.4833   10.0333 N.ar    1  UNL1       -0.2422
     37 C          62.5800   79.6956    9.5173 C.ar    1  UNL1        0.1002
     38 C          62.8316   80.7748   10.3678 C.ar    1  UNL1        0.0353
     39 C          63.2268   83.5691   15.6510 C.3     1  UNL1        0.0569
     40 C          63.3017   88.5399   15.5310 C.ar    1  UNL1       -0.0069
     41 C          61.9420   88.7200   15.8879 C.ar    1  UNL1       -0.0029
     42 C          61.0806   87.6177   16.0500 C.ar    1  UNL1       -0.0002
     43 C          61.5577   86.3109   15.8831 C.ar    1  UNL1        0.0011
     44 C          62.9036   86.1415   15.5608 C.ar    1  UNL1        0.0128
     45 C          63.6568   84.9922   15.4039 C.ar    1  UNL1       -0.0017
     46 C          64.9415   85.4267   15.1049 C.ar    1  UNL1        0.0681
     47 N          64.9947   86.7767   15.0936 N.ar    1  UNL1       -0.3525
     48 C          63.7489   87.2113   15.3772 C.ar    1  UNL1        0.0523
     49 H          65.8543   87.3406   14.9204 H       1  UNL1        0.1660
     50 C          64.3922   90.1766   13.9440 C.3     1  UNL1        0.0047
     51 C          64.2339   89.7334   15.4047 C.3     1  UNL1        0.0238
     52 C          63.7426   90.8902   16.2812 C.3     1  UNL1        0.0047
@<TRIPOS>BOND
     1    50    51    1
     2    51    52    1
     3    51    40    1
     4    40    41   ar
     5    41    42   ar
     6    42    43   ar
     7    43    44   ar
     8    44    45   ar
     9    45    39    1
    10    39    28    1
    11    28     1    1
    12     1     2   am
    13     2     3    2
    14     2     5    1
    15     5     6   ar
    16     6     7   ar
    17     7     8   ar
    18     8    12    1
    19    12    13    1
    20    13    14    1
    21    14    15    1
    22    15    18    1
    23    18    19   ar
    24    19    20   ar
    25    20    21   ar
    26    21    24    1
    27    24    25    1
    28    24    26    1
    29    24    27    1
    30    21    22   ar
    31    22    23   ar
    32    15    16    1
    33    16    17    1
    34     8     9   ar
    35     9    10   ar
    36    10    11    1
    37    28    29    1
    38    29    30    2
    39    29    31   am
    40    31    33    1
    41    33    34   ar
    42    34    35   ar
    43    35    36   ar
    44    36    37   ar
    45    37    38   ar
    46    45    46   ar
    47    46    47   ar
    48    47    48   ar
    49    48    40   ar
    50    48    44   ar
    51    10     5   ar
    52    38    33   ar
    53    17    12    1
    54    23    18   ar
    55     1     4    1
    56    31    32    1
    57    47    49    1
@<TRIPOS>MOLECULE
*****
 52 57 0 0 0
SMALL
GASTEIGER

@<TRIPOS>ATOM
      1 N          59.2721   84.2249   10.2575 N.am    1  UNL1       -0.2945
      2 C          59.6249   85.5266    9.7624 C.2     1  UNL1        0.2483
      3 O          59.1552   85.9283    8.6625 O.2     1  UNL1       -0.2701
      4 H          59.4543   84.0138   11.2643 H       1  UNL1        0.1501
      5 C          60.5055   86.4235   10.5448 C.ar    1  UNL1        0.0808
      6 C          61.1100   87.5233    9.9149 C.ar    1  UNL1        0.0080
      7 C          61.9386   88.3881   10.6339 C.ar    1  UNL1        0.0148
      8 C          62.1917   88.1664   11.9988 C.ar    1  UNL1        0.0502
      9 C          61.5975   87.0574   12.6254 C.ar    1  UNL1        0.0443
     10 C          60.7673   86.1901   11.9084 C.ar    1  UNL1        0.1457
     11 F          60.2659   85.0984   12.5400 F       1  UNL1       -0.2040
     12 N          63.0439   89.0627   12.7463 N.pl3   1  UNL1       -0.3040
     13 C          63.9055   88.5258   13.8113 C.3     1  UNL1        0.1123
     14 C          64.3714   89.6258   14.7700 C.3     1  UNL1        0.1136
     15 N          64.9431   90.7543   14.0214 N.pl3   1  UNL1       -0.2897
     16 C          64.3243   91.1766   12.7535 C.3     1  UNL1        0.1136
     17 C          62.9592   90.5148   12.5353 C.3     1  UNL1        0.1123
     18 C          66.0202   91.5244   14.6022 C.ar    1  UNL1        0.1318
     19 C          65.8435   92.2483   15.7943 C.ar    1  UNL1        0.0343
     20 C          66.9083   92.9793   16.3234 C.ar    1  UNL1        0.0083
     21 C          68.1436   93.0111   15.6602 C.ar    1  UNL1        0.0906
     22 C          68.2877   92.2584   14.4851 C.ar    1  UNL1        0.1041
     23 N          67.2375   91.5520   13.9900 N.ar    1  UNL1       -0.2292
     24 C          69.3150   93.7559   16.2477 C.3     1  UNL1        0.4200
     25 F          69.9755   92.9336   17.1413 F       1  UNL1       -0.1658
     26 F          70.1969   94.1418   15.2531 F       1  UNL1       -0.1658
     27 F          68.8872   94.8925   16.9119 F       1  UNL1       -0.1658
     28 C          58.4554   83.2850    9.4790 C.3     1  UNL1        0.1535
     29 C          59.0492   83.0587    8.1044 C.2     1  UNL1        0.2443
     30 O          58.3068   82.7324    7.1376 O.2     1  UNL1       -0.2730
     31 N          60.4673   83.1537    7.9118 N.am    1  UNL1       -0.2825
     32 H          61.0846   82.9529    8.7310 H       1  UNL1        0.1549
     33 C          61.0827   83.5545    6.6741 C.ar    1  UNL1        0.0535
     34 C          60.4686   83.3115    5.4314 C.ar    1  UNL1        0.0353
     35 C          61.0670   83.7854    4.2619 C.ar    1  UNL1        0.1002
     36 N          62.2325   84.4813    4.3253 N.ar    1  UNL1       -0.2422
     37 C          62.8435   84.7394    5.5114 C.ar    1  UNL1        0.1002
     38 C          62.2760   84.2886    6.7055 C.ar    1  UNL1        0.0353
     39 C          58.2698   81.9655   10.2653 C.3     1  UNL1        0.0569
     40 C          62.2901   81.8014   13.1876 C.ar    1  UNL1       -0.0069
     41 C          63.2312   81.6389   12.1406 C.ar    1  UNL1       -0.0029
     42 C          62.8137   81.4958   10.8032 C.ar    1  UNL1       -0.0002
     43 C          61.4522   81.5339   10.4747 C.ar    1  UNL1        0.0011
     44 C          60.5346   81.7234   11.5072 C.ar    1  UNL1        0.0128
     45 C          59.1595   81.8681   11.4779 C.ar    1  UNL1       -0.0017
     46 C          58.7755   82.0475   12.8005 C.ar    1  UNL1        0.0681
     47 N          59.8546   82.0346   13.6132 N.ar    1  UNL1       -0.3525
     48 C          60.9292   81.8411   12.8199 C.ar    1  UNL1        0.0523
     49 H          59.8282   82.1754   14.6459 H       1  UNL1        0.1660
     50 C          63.8017   80.9583   15.0291 C.3     1  UNL1        0.0047
     51 C          62.7531   82.0020   14.6210 C.3     1  UNL1        0.0238
     52 C          63.2872   83.4248   14.8158 C.3     1  UNL1        0.0047
@<TRIPOS>BOND
     1    50    51    1
     2    51    52    1
     3    51    40    1
     4    40    41   ar
     5    41    42   ar
     6    42    43   ar
     7    43    44   ar
     8    44    45   ar
     9    45    39    1
    10    39    28    1
    11    28     1    1
    12     1     2   am
    13     2     3    2
    14     2     5    1
    15     5     6   ar
    16     6     7   ar
    17     7     8   ar
    18     8    12    1
    19    12    13    1
    20    13    14    1
    21    14    15    1
    22    15    18    1
    23    18    19   ar
    24    19    20   ar
    25    20    21   ar
    26    21    24    1
    27    24    25    1
    28    24    26    1
    29    24    27    1
    30    21    22   ar
    31    22    23   ar
    32    15    16    1
    33    16    17    1
    34     8     9   ar
    35     9    10   ar
    36    10    11    1
    37    28    29    1
    38    29    30    2
    39    29    31   am
    40    31    33    1
    41    33    34   ar
    42    34    35   ar
    43    35    36   ar
    44    36    37   ar
    45    37    38   ar
    46    45    46   ar
    47    46    47   ar
    48    47    48   ar
    49    48    40   ar
    50    48    44   ar
    51    10     5   ar
    52    38    33   ar
    53    17    12    1
    54    23    18   ar
    55     1     4    1
    56    31    32    1
    57    47    49    1
@<TRIPOS>MOLECULE
*****
 52 57 0 0 0
SMALL
GASTEIGER

@<TRIPOS>ATOM
      1 N          60.0924   83.7582    8.9545 N.am    1  UNL1       -0.2945
      2 C          60.1024   85.1699    8.6883 C.2     1  UNL1        0.2483
      3 O          59.4113   85.6348    7.7408 O.2     1  UNL1       -0.2701
      4 H          60.4534   83.4275    9.8775 H       1  UNL1        0.1501
      5 C          60.8855   86.0970    9.5364 C.ar    1  UNL1        0.0808
      6 C          61.3295   87.3173    9.0021 C.ar    1  UNL1        0.0080
      7 C          62.0634   88.2118    9.7849 C.ar    1  UNL1        0.0148
      8 C          62.3808   87.9014   11.1187 C.ar    1  UNL1        0.0502
      9 C          61.9480   86.6736   11.6487 C.ar    1  UNL1        0.0443
     10 C          61.2130   85.7762   10.8676 C.ar    1  UNL1        0.1457
     11 F          60.8703   84.5769   11.4027 F       1  UNL1       -0.2040
     12 N          63.1348   88.8274   11.9325 N.pl3   1  UNL1       -0.3040
     13 C          63.7739   88.3525   13.1698 C.3     1  UNL1        0.1123
     14 C          64.1216   89.5126   14.1077 C.3     1  UNL1        0.1136
     15 N          64.8674   90.5536   13.3860 N.pl3   1  UNL1       -0.2897
     16 C          64.4964   90.8888   12.0008 C.3     1  UNL1        0.1136
     17 C          63.1583   90.2587   11.5989 C.3     1  UNL1        0.1123
     18 C          65.8652   91.3321   14.0851 C.ar    1  UNL1        0.1318
     19 C          65.6000   91.9048   15.3414 C.ar    1  UNL1        0.0343
     20 C          66.5900   92.6494   15.9845 C.ar    1  UNL1        0.0083
     21 C          67.8371   92.8453   15.3736 C.ar    1  UNL1        0.0906
     22 C          68.0716   92.2398   14.1300 C.ar    1  UNL1        0.1041
     23 N          67.0933   91.5170   13.5239 N.ar    1  UNL1       -0.2292
     24 C          68.9308   93.6051   16.0800 C.3     1  UNL1        0.4200
     25 F          68.4004   94.7539   16.6367 F       1  UNL1       -0.1658
     26 F          69.4909   92.8343   17.0841 F       1  UNL1       -0.1658
     27 F          69.9336   93.9552   15.1924 F       1  UNL1       -0.1658
     28 C          59.3804   82.8035    8.0955 C.3     1  UNL1        0.1535
     29 C          59.9133   81.3988    8.2863 C.2     1  UNL1        0.2443
     30 O          60.0440   80.6289    7.2951 O.2     1  UNL1       -0.2730
     31 N          60.2119   80.9185    9.6043 N.am    1  UNL1       -0.2825
     32 H          59.6869   81.3366   10.4056 H       1  UNL1        0.1549
     33 C          61.2219   79.9334    9.8884 C.ar    1  UNL1        0.0535
     34 C          61.0267   78.9345   10.8602 C.ar    1  UNL1        0.0353
     35 C          62.0040   77.9547   11.0484 C.ar    1  UNL1        0.1002
     36 N          63.1338   77.9640   10.2934 N.ar    1  UNL1       -0.2422
     37 C          63.3456   78.9101    9.3411 C.ar    1  UNL1        0.1002
     38 C          62.3912   79.9050    9.1163 C.ar    1  UNL1        0.0353
     39 C          57.8569   82.8953    8.3486 C.3     1  UNL1        0.0569
     40 C          57.6178   84.7207   12.9681 C.ar    1  UNL1       -0.0069
     41 C          58.2153   83.6034   13.6031 C.ar    1  UNL1       -0.0029
     42 C          58.5573   82.4489   12.8726 C.ar    1  UNL1       -0.0002
     43 C          58.3336   82.3885   11.4908 C.ar    1  UNL1        0.0011
     44 C          57.7723   83.5032   10.8692 C.ar    1  UNL1        0.0128
     45 C          57.5041   83.7540    9.5358 C.ar    1  UNL1       -0.0017
     46 C          56.9640   85.0329    9.4986 C.ar    1  UNL1        0.0681
     47 N          56.9139   85.5626   10.7404 N.ar    1  UNL1       -0.3525
     48 C          57.4129   84.6276   11.5759 C.ar    1  UNL1        0.0523
     49 H          56.5730   86.5209   10.9694 H       1  UNL1        0.1660
     50 C          58.3744   87.0553   13.5714 C.3     1  UNL1        0.0047
     51 C          57.2960   85.9792   13.7568 C.3     1  UNL1        0.0238
     52 C          55.9128   86.5130   13.3701 C.3     1  UNL1        0.0047
@<TRIPOS>BOND
     1    50    51    1
     2    51    52    1
     3    51    40    1
     4    40    41   ar
     5    41    42   ar
     6    42    43   ar
     7    43    44   ar
     8    44    45   ar
     9    45    39    1
    10    39    28    1
    11    28     1    1
    12     1     2   am
    13     2     3    2
    14     2     5    1
    15     5     6   ar
    16     6     7   ar
    17     7     8   ar
    18     8    12    1
    19    12    13    1
    20    13    14    1
    21    14    15    1
    22    15    18    1
    23    18    19   ar
    24    19    20   ar
    25    20    21   ar
    26    21    24    1
    27    24    25    1
    28    24    26    1
    29    24    27    1
    30    21    22   ar
    31    22    23   ar
    32    15    16    1
    33    16    17    1
    34     8     9   ar
    35     9    10   ar
    36    10    11    1
    37    28    29    1
    38    29    30    2
    39    29    31   am
    40    31    33    1
    41    33    34   ar
    42    34    35   ar
    43    35    36   ar
    44    36    37   ar
    45    37    38   ar
    46    45    46   ar
    47    46    47   ar
    48    47    48   ar
    49    48    40   ar
    50    48    44   ar
    51    10     5   ar
    52    38    33   ar
    53    17    12    1
    54    23    18   ar
    55     1     4    1
    56    31    32    1
    57    47    49    1
@<TRIPOS>MOLECULE
*****
 52 57 0 0 0
SMALL
GASTEIGER

@<TRIPOS>ATOM
      1 N          61.4360   84.4711   13.5541 N.am    1  UNL1       -0.2945
      2 C          60.1591   84.7323   12.9499 C.2     1  UNL1        0.2483
      3 O          59.1219   84.1821   13.4116 O.2     1  UNL1       -0.2701
      4 H          62.2276   85.1164   13.3338 H       1  UNL1        0.1501
      5 C          60.0354   85.6712   11.8118 C.ar    1  UNL1        0.0808
      6 C          60.6143   86.9475   11.9003 C.ar    1  UNL1        0.0080
      7 C          60.5176   87.8480   10.8368 C.ar    1  UNL1        0.0148
      8 C          59.8289   87.4971    9.6627 C.ar    1  UNL1        0.0502
      9 C          59.2376   86.2246    9.5801 C.ar    1  UNL1        0.0443
     10 C          59.3330   85.3208   10.6430 C.ar    1  UNL1        0.1457
     11 F          58.6938   84.1278   10.5422 F       1  UNL1       -0.2040
     12 N          59.7322   88.4246    8.5587 N.pl3   1  UNL1       -0.3040
     13 C          60.3918   89.7364    8.6528 C.3     1  UNL1        0.1123
     14 C          59.8224   90.7298    7.6354 C.3     1  UNL1        0.1136
     15 N          59.8090   90.1390    6.2895 N.pl3   1  UNL1       -0.2897
     16 C          59.4589   88.7186    6.1201 C.3     1  UNL1        0.1136
     17 C          58.8771   88.1161    7.4038 C.3     1  UNL1        0.1123
     18 C          60.0046   90.9871    5.1350 C.ar    1  UNL1        0.1318
     19 C          58.9544   91.7567    4.6047 C.ar    1  UNL1        0.0343
     20 C          59.1837   92.5635    3.4891 C.ar    1  UNL1        0.0083
     21 C          60.4488   92.5922    2.8845 C.ar    1  UNL1        0.0906
     22 C          61.4769   91.8275    3.4557 C.ar    1  UNL1        0.1041
     23 N          61.2308   91.0513    4.5438 N.ar    1  UNL1       -0.2292
     24 C          60.7217   93.4972    1.7103 C.3     1  UNL1        0.4200
     25 F          61.2984   92.7608    0.6925 F       1  UNL1       -0.1658
     26 F          59.5469   94.0641    1.2471 F       1  UNL1       -0.1658
     27 F          61.5826   94.5191    2.0715 F       1  UNL1       -0.1658
     28 C          61.6048   83.4974   14.6403 C.3     1  UNL1        0.1535
     29 C          61.4505   82.0804   14.1286 C.2     1  UNL1        0.2443
     30 O          62.1267   81.1442   14.6371 O.2     1  UNL1       -0.2730
     31 N          60.5804   81.8092   13.0211 N.am    1  UNL1       -0.2825
     32 H          60.4105   82.5794   12.3353 H       1  UNL1        0.1549
     33 C          59.8944   80.5587   12.8287 C.ar    1  UNL1        0.0535
     34 C          59.5400   79.7362   13.9141 C.ar    1  UNL1        0.0353
     35 C          58.8087   78.5687   13.6850 C.ar    1  UNL1        0.1002
     36 N          58.4376   78.2328   12.4217 N.ar    1  UNL1       -0.2422
     37 C          58.7572   79.0121   11.3552 C.ar    1  UNL1        0.1002
     38 C          59.4827   80.1913   11.5405 C.ar    1  UNL1        0.0353
     39 C          62.9609   83.7233   15.3499 C.3     1  UNL1        0.0569
     40 C          63.3593   88.6779   15.4985 C.ar    1  UNL1       -0.0069
     41 C          62.0058   88.9281   15.8359 C.ar    1  UNL1       -0.0029
     42 C          61.0713   87.8778   15.9205 C.ar    1  UNL1       -0.0002
     43 C          61.4670   86.5531   15.6938 C.ar    1  UNL1        0.0011
     44 C          62.8066   86.3126   15.3911 C.ar    1  UNL1        0.0128
     45 C          63.4877   85.1260   15.1886 C.ar    1  UNL1       -0.0017
     46 C          64.8047   85.4902   14.9403 C.ar    1  UNL1        0.0681
     47 N          64.9452   86.8324   15.0026 N.ar    1  UNL1       -0.3525
     48 C          63.7235   87.3326   15.2829 C.ar    1  UNL1        0.0523
     49 H          65.8434   87.3469   14.8780 H       1  UNL1        0.1660
     50 C          64.6619   90.2571   14.0165 C.3     1  UNL1        0.0047
     51 C          64.3693   89.8125   15.4559 C.3     1  UNL1        0.0238
     52 C          63.8862   90.9902   16.3088 C.3     1  UNL1        0.0047
@<TRIPOS>BOND
     1    50    51    1
     2    51    52    1
     3    51    40    1
     4    40    41   ar
     5    41    42   ar
     6    42    43   ar
     7    43    44   ar
     8    44    45   ar
     9    45    39    1
    10    39    28    1
    11    28     1    1
    12     1     2   am
    13     2     3    2
    14     2     5    1
    15     5     6   ar
    16     6     7   ar
    17     7     8   ar
    18     8    12    1
    19    12    13    1
    20    13    14    1
    21    14    15    1
    22    15    18    1
    23    18    19   ar
    24    19    20   ar
    25    20    21   ar
    26    21    24    1
    27    24    25    1
    28    24    26    1
    29    24    27    1
    30    21    22   ar
    31    22    23   ar
    32    15    16    1
    33    16    17    1
    34     8     9   ar
    35     9    10   ar
    36    10    11    1
    37    28    29    1
    38    29    30    2
    39    29    31   am
    40    31    33    1
    41    33    34   ar
    42    34    35   ar
    43    35    36   ar
    44    36    37   ar
    45    37    38   ar
    46    45    46   ar
    47    46    47   ar
    48    47    48   ar
    49    48    40   ar
    50    48    44   ar
    51    10     5   ar
    52    38    33   ar
    53    17    12    1
    54    23    18   ar
    55     1     4    1
    56    31    32    1
    57    47    49    1
@<TRIPOS>MOLECULE
*****
 52 57 0 0 0
SMALL
GASTEIGER

@<TRIPOS>ATOM
      1 N          62.1702   84.7402   14.1291 N.am    1  UNL1       -0.2945
      2 C          61.0751   84.4889   13.2339 C.2     1  UNL1        0.2483
      3 O          60.3364   83.4820   13.4130 O.2     1  UNL1       -0.2701
      4 H          62.6026   85.6913   14.1252 H       1  UNL1        0.1501
      5 C          60.7754   85.4183   12.1210 C.ar    1  UNL1        0.0808
      6 C          61.3118   86.7159   12.1384 C.ar    1  UNL1        0.0080
      7 C          61.0495   87.6082   11.0961 C.ar    1  UNL1        0.0148
      8 C          60.2341   87.2273   10.0163 C.ar    1  UNL1        0.0502
      9 C          59.6861   85.9330   10.0064 C.ar    1  UNL1        0.0443
     10 C          59.9470   85.0373   11.0482 C.ar    1  UNL1        0.1457
     11 F          59.3461   83.8206   11.0263 F       1  UNL1       -0.2040
     12 N          59.9659   88.1464    8.9340 N.pl3   1  UNL1       -0.3040
     13 C          60.4271   89.5401    9.0339 C.3     1  UNL1        0.1123
     14 C          59.6846   90.4530    8.0534 C.3     1  UNL1        0.1136
     15 N          59.7151   89.8868    6.6972 N.pl3   1  UNL1       -0.2897
     16 C          59.5734   88.4328    6.5108 C.3     1  UNL1        0.1136
     17 C          59.1288   87.7318    7.7992 C.3     1  UNL1        0.1123
     18 C          59.7459   90.7715    5.5542 C.ar    1  UNL1        0.1318
     19 C          58.5927   91.4486    5.1203 C.ar    1  UNL1        0.0343
     20 C          58.6635   92.2946    4.0125 C.ar    1  UNL1        0.0083
     21 C          59.8727   92.4543    3.3202 C.ar    1  UNL1        0.0906
     22 C          61.0065   91.7792    3.7965 C.ar    1  UNL1        0.1041
     23 N          60.9141   90.9626    4.8789 N.ar    1  UNL1       -0.2292
     24 C          59.9734   93.4033    2.1533 C.3     1  UNL1        0.4200
     25 F          59.7884   94.6976    2.6021 F       1  UNL1       -0.1658
     26 F          61.2164   93.3077    1.5519 F       1  UNL1       -0.1658
     27 F          59.0093   93.1130    1.2035 F       1  UNL1       -0.1658
     28 C          62.5357   83.8067   15.2021 C.3     1  UNL1        0.1535
     29 C          62.8366   82.4306   14.6459 C.2     1  UNL1        0.2443
     30 O          62.8662   81.4283   15.4119 O.2     1  UNL1       -0.2730
     31 N          63.1509   82.2727   13.2554 N.am    1  UNL1       -0.2825
     32 H          63.5775   83.0864   12.7570 H       1  UNL1        0.1549
     33 C          62.8691   81.0800   12.5007 C.ar    1  UNL1        0.0535
     34 C          62.4919   79.8795   13.1306 C.ar    1  UNL1        0.0353
     35 C          62.1552   78.7690   12.3535 C.ar    1  UNL1        0.1002
     36 N          62.1870   78.8501   10.9974 N.ar    1  UNL1       -0.2422
     37 C          62.5381   79.9986   10.3613 C.ar    1  UNL1        0.1002
     38 C          62.8766   81.1345   11.1004 C.ar    1  UNL1        0.0353
     39 C          63.7131   84.3796   16.0261 C.3     1  UNL1        0.0569
     40 C          63.7840   89.3109   15.3888 C.ar    1  UNL1       -0.0069
     41 C          62.4648   89.5420   15.8522 C.ar    1  UNL1       -0.0029
     42 C          61.6210   88.4719   16.2076 C.ar    1  UNL1       -0.0002
     43 C          62.0780   87.1496   16.1317 C.ar    1  UNL1        0.0011
     44 C          63.3868   86.9329   15.7027 C.ar    1  UNL1        0.0128
     45 C          64.1198   85.7651   15.5944 C.ar    1  UNL1       -0.0017
     46 C          65.3709   86.1521   15.1321 C.ar    1  UNL1        0.0681
     47 N          65.4249   87.4931   14.9769 N.ar    1  UNL1       -0.3525
     48 C          64.2125   87.9686   15.3308 C.ar    1  UNL1        0.0523
     49 H          66.2650   88.0266   14.6661 H       1  UNL1        0.1660
     50 C          64.6101   90.8586   13.5697 C.3     1  UNL1        0.0047
     51 C          64.7018   90.4746   15.0527 C.3     1  UNL1        0.0238
     52 C          64.3933   91.6756   15.9528 C.3     1  UNL1        0.0047
@<TRIPOS>BOND
     1    50    51    1
     2    51    52    1
     3    51    40    1
     4    40    41   ar
     5    41    42   ar
     6    42    43   ar
     7    43    44   ar
     8    44    45   ar
     9    45    39    1
    10    39    28    1
    11    28     1    1
    12     1     2   am
    13     2     3    2
    14     2     5    1
    15     5     6   ar
    16     6     7   ar
    17     7     8   ar
    18     8    12    1
    19    12    13    1
    20    13    14    1
    21    14    15    1
    22    15    18    1
    23    18    19   ar
    24    19    20   ar
    25    20    21   ar
    26    21    24    1
    27    24    25    1
    28    24    26    1
    29    24    27    1
    30    21    22   ar
    31    22    23   ar
    32    15    16    1
    33    16    17    1
    34     8     9   ar
    35     9    10   ar
    36    10    11    1
    37    28    29    1
    38    29    30    2
    39    29    31   am
    40    31    33    1
    41    33    34   ar
    42    34    35   ar
    43    35    36   ar
    44    36    37   ar
    45    37    38   ar
    46    45    46   ar
    47    46    47   ar
    48    47    48   ar
    49    48    40   ar
    50    48    44   ar
    51    10     5   ar
    52    38    33   ar
    53    17    12    1
    54    23    18   ar
    55     1     4    1
    56    31    32    1
    57    47    49    1
@<TRIPOS>MOLECULE
*****
 52 57 0 0 0
SMALL
GASTEIGER

@<TRIPOS>ATOM
      1 N          59.4883   86.0480   12.2356 N.am    1  UNL1       -0.2945
      2 C          58.7282   85.9616   11.0196 C.2     1  UNL1        0.2483
      3 O          57.8245   85.0888   10.9050 O.2     1  UNL1       -0.2701
      4 H          60.0402   86.9175   12.4119 H       1  UNL1        0.1501
      5 C          58.9643   86.9101    9.9075 C.ar    1  UNL1        0.0808
      6 C          59.5734   88.1477   10.1698 C.ar    1  UNL1        0.0080
      7 C          59.8136   89.0559    9.1359 C.ar    1  UNL1        0.0148
      8 C          59.4392   88.7521    7.8155 C.ar    1  UNL1        0.0502
      9 C          58.8168   87.5189    7.5557 C.ar    1  UNL1        0.0443
     10 C          58.5753   86.6075    8.5886 C.ar    1  UNL1        0.1457
     11 F          57.9162   85.4567    8.3002 F       1  UNL1       -0.2040
     12 N          59.6916   89.6874    6.7432 N.pl3   1  UNL1       -0.3040
     13 C          60.9084   89.5461    5.9281 C.3     1  UNL1        0.1123
     14 C          61.2375   90.8387    5.1749 C.3     1  UNL1        0.1136
     15 N          60.0575   91.3257    4.4461 N.pl3   1  UNL1       -0.2897
     16 C          58.7246   91.2207    5.0634 C.3     1  UNL1        0.1136
     17 C          58.8096   90.8467    6.5473 C.3     1  UNL1        0.1123
     18 C          60.2305   92.0258    3.1930 C.ar    1  UNL1        0.1318
     19 C          61.5085   92.3504    2.7052 C.ar    1  UNL1        0.0343
     20 C          61.6337   93.0266    1.4907 C.ar    1  UNL1        0.0083
     21 C          60.4914   93.4011    0.7683 C.ar    1  UNL1        0.0906
     22 C          59.2345   93.0403    1.2765 C.ar    1  UNL1        0.1041
     23 N          59.1373   92.3795    2.4601 N.ar    1  UNL1       -0.2292
     24 C          60.6150   94.0871   -0.5682 C.3     1  UNL1        0.4200
     25 F          60.7039   93.1321   -1.5636 F       1  UNL1       -0.1658
     26 F          59.5129   94.8890   -0.8095 F       1  UNL1       -0.1658
     27 F          61.7464   94.8838   -0.6050 F       1  UNL1       -0.1658
     28 C          59.3261   85.0844   13.3317 C.3     1  UNL1        0.1535
     29 C          59.7199   83.6898   12.8918 C.2     1  UNL1        0.2443
     30 O          60.8686   83.2404   13.1582 O.2     1  UNL1       -0.2730
     31 N          58.8090   82.8991   12.1158 N.am    1  UNL1       -0.2825
     32 H          58.1125   83.4022   11.5207 H       1  UNL1        0.1549
     33 C          58.7691   81.4608   12.1475 C.ar    1  UNL1        0.0535
     34 C          59.1638   80.7360   13.2873 C.ar    1  UNL1        0.0353
     35 C          59.0366   79.3453   13.2986 C.ar    1  UNL1        0.1002
     36 N          58.5298   78.6975   12.2169 N.ar    1  UNL1       -0.2422
     37 C          58.1316   79.3714   11.1060 C.ar    1  UNL1        0.1002
     38 C          58.2361   80.7635   11.0550 C.ar    1  UNL1        0.0353
     39 C          60.1176   85.5558   14.5746 C.3     1  UNL1        0.0569
     40 C          63.4121   89.2362   13.9996 C.ar    1  UNL1       -0.0069
     41 C          64.5596   88.4593   14.2963 C.ar    1  UNL1       -0.0029
     42 C          64.4433   87.1145   14.6981 C.ar    1  UNL1       -0.0002
     43 C          63.1848   86.5059   14.7919 C.ar    1  UNL1        0.0011
     44 C          62.0630   87.2688   14.4700 C.ar    1  UNL1        0.0128
     45 C          60.7250   86.9248   14.4062 C.ar    1  UNL1       -0.0017
     46 C          60.0616   88.0801   14.0140 C.ar    1  UNL1        0.0681
     47 N          60.9393   89.0894   13.8240 N.ar    1  UNL1       -0.3525
     48 C          62.1625   88.5898   14.0988 C.ar    1  UNL1        0.0523
     49 H          60.6882   90.0489   13.5026 H       1  UNL1        0.1660
     50 C          64.9152   91.2653   13.8994 C.3     1  UNL1        0.0047
     51 C          63.5512   90.6720   13.5217 C.3     1  UNL1        0.0238
     52 C          63.3127   90.7576   12.0105 C.3     1  UNL1        0.0047
@<TRIPOS>BOND
     1    50    51    1
     2    51    52    1
     3    51    40    1
     4    40    41   ar
     5    41    42   ar
     6    42    43   ar
     7    43    44   ar
     8    44    45   ar
     9    45    39    1
    10    39    28    1
    11    28     1    1
    12     1     2   am
    13     2     3    2
    14     2     5    1
    15     5     6   ar
    16     6     7   ar
    17     7     8   ar
    18     8    12    1
    19    12    13    1
    20    13    14    1
    21    14    15    1
    22    15    18    1
    23    18    19   ar
    24    19    20   ar
    25    20    21   ar
    26    21    24    1
    27    24    25    1
    28    24    26    1
    29    24    27    1
    30    21    22   ar
    31    22    23   ar
    32    15    16    1
    33    16    17    1
    34     8     9   ar
    35     9    10   ar
    36    10    11    1
    37    28    29    1
    38    29    30    2
    39    29    31   am
    40    31    33    1
    41    33    34   ar
    42    34    35   ar
    43    35    36   ar
    44    36    37   ar
    45    37    38   ar
    46    45    46   ar
    47    46    47   ar
    48    47    48   ar
    49    48    40   ar
    50    48    44   ar
    51    10     5   ar
    52    38    33   ar
    53    17    12    1
    54    23    18   ar
    55     1     4    1
    56    31    32    1
    57    47    49    1
@<TRIPOS>MOLECULE
*****
 52 57 0 0 0
SMALL
GASTEIGER

@<TRIPOS>ATOM
      1 N          62.8703   84.1944   12.7225 N.am    1  UNL1       -0.2945
      2 C          61.6397   84.9357   12.7112 C.2     1  UNL1        0.2483
      3 O          60.8223   84.8096   13.6639 O.2     1  UNL1       -0.2701
      4 H          63.6340   84.4959   12.0764 H       1  UNL1        0.1501
      5 C          61.3313   85.8786   11.6121 C.ar    1  UNL1        0.0808
      6 C          60.3775   85.5260   10.6439 C.ar    1  UNL1        0.0080
      7 C          60.0640   86.4020    9.6019 C.ar    1  UNL1        0.0148
      8 C          60.7063   87.6480    9.4970 C.ar    1  UNL1        0.0502
      9 C          61.6711   87.9945   10.4586 C.ar    1  UNL1        0.0443
     10 C          61.9869   87.1198   11.5031 C.ar    1  UNL1        0.1457
     11 F          62.9688   87.4710   12.3717 F       1  UNL1       -0.2040
     12 N          60.3797   88.5585    8.4234 N.pl3   1  UNL1       -0.3040
     13 C          61.0264   89.8790    8.3694 C.3     1  UNL1        0.1123
     14 C          60.2528   90.8512    7.4736 C.3     1  UNL1        0.1136
     15 N          59.9812   90.2411    6.1641 N.pl3   1  UNL1       -0.2897
     16 C          59.6244   88.8145    6.0842 C.3     1  UNL1        0.1136
     17 C          59.3171   88.2238    7.4647 C.3     1  UNL1        0.1123
     18 C          59.9322   91.0748    4.9839 C.ar    1  UNL1        0.1318
     19 C          61.1019   91.4355    4.2924 C.ar    1  UNL1        0.0343
     20 C          61.0126   92.2418    3.1566 C.ar    1  UNL1        0.0083
     21 C          59.7656   92.7094    2.7170 C.ar    1  UNL1        0.0906
     22 C          58.6194   92.3102    3.4204 C.ar    1  UNL1        0.1041
     23 N          58.7306   91.5223    4.5222 N.ar    1  UNL1       -0.2292
     24 C          59.6516   93.5391    1.4636 C.3     1  UNL1        0.4200
     25 F          58.4623   93.2395    0.8261 F       1  UNL1       -0.1658
     26 F          59.6727   94.8892    1.7681 F       1  UNL1       -0.1658
     27 F          60.7037   93.2725    0.6045 F       1  UNL1       -0.1658
     28 C          63.1791   83.2035   13.7613 C.3     1  UNL1        0.1535
     29 C          63.2656   83.8554   15.1254 C.2     1  UNL1        0.2443
     30 O          64.1241   83.4638   15.9633 O.2     1  UNL1       -0.2730
     31 N          62.3295   84.8785   15.4915 N.am    1  UNL1       -0.2825
     32 H          61.3898   84.8651   15.0340 H       1  UNL1        0.1549
     33 C          62.6267   85.9443   16.4119 C.ar    1  UNL1        0.0535
     34 C          62.9924   87.2270   15.9633 C.ar    1  UNL1        0.0353
     35 C          63.1980   88.2498   16.8918 C.ar    1  UNL1        0.1002
     36 N          63.0405   88.0080   18.2196 N.ar    1  UNL1       -0.2422
     37 C          62.6788   86.7822   18.6816 C.ar    1  UNL1        0.1002
     38 C          62.4575   85.7326   17.7869 C.ar    1  UNL1        0.0353
     39 C          62.1448   82.0535   13.7223 C.3     1  UNL1        0.0569
     40 C          59.3000   81.8561    9.6483 C.ar    1  UNL1       -0.0069
     41 C          58.1154   82.3257   10.2684 C.ar    1  UNL1       -0.0029
     42 C          58.0702   82.5770   11.6534 C.ar    1  UNL1       -0.0002
     43 C          59.2083   82.3887   12.4485 C.ar    1  UNL1        0.0011
     44 C          60.3776   81.9544   11.8256 C.ar    1  UNL1        0.0128
     45 C          61.6483   81.7500   12.3321 C.ar    1  UNL1       -0.0017
     46 C          62.4174   81.3355   11.2525 C.ar    1  UNL1        0.0681
     47 N          61.6728   81.3003   10.1258 N.ar    1  UNL1       -0.3525
     48 C          60.4275   81.6835   10.4776 C.ar    1  UNL1        0.0523
     49 H          62.0297   81.0458    9.1799 H       1  UNL1        0.1660
     50 C          57.9578   81.3581    7.5657 C.3     1  UNL1        0.0047
     51 C          59.3517   81.6330    8.1460 C.3     1  UNL1        0.0238
     52 C          60.0119   82.8282    7.4507 C.3     1  UNL1        0.0047
@<TRIPOS>BOND
     1    50    51    1
     2    51    52    1
     3    51    40    1
     4    40    41   ar
     5    41    42   ar
     6    42    43   ar
     7    43    44   ar
     8    44    45   ar
     9    45    39    1
    10    39    28    1
    11    28     1    1
    12     1     2   am
    13     2     3    2
    14     2     5    1
    15     5     6   ar
    16     6     7   ar
    17     7     8   ar
    18     8    12    1
    19    12    13    1
    20    13    14    1
    21    14    15    1
    22    15    18    1
    23    18    19   ar
    24    19    20   ar
    25    20    21   ar
    26    21    24    1
    27    24    25    1
    28    24    26    1
    29    24    27    1
    30    21    22   ar
    31    22    23   ar
    32    15    16    1
    33    16    17    1
    34     8     9   ar
    35     9    10   ar
    36    10    11    1
    37    28    29    1
    38    29    30    2
    39    29    31   am
    40    31    33    1
    41    33    34   ar
    42    34    35   ar
    43    35    36   ar
    44    36    37   ar
    45    37    38   ar
    46    45    46   ar
    47    46    47   ar
    48    47    48   ar
    49    48    40   ar
    50    48    44   ar
    51    10     5   ar
    52    38    33   ar
    53    17    12    1
    54    23    18   ar
    55     1     4    1
    56    31    32    1
    57    47    49    1
