@<TRIPOS>MOLECULE
*****
 45 50 0 0 0
SMALL
GASTEIGER

@<TRIPOS>ATOM
      1 C          61.8123   87.5997    9.9968 C.ar    1  UNL1        0.0702
      2 C          60.9004   87.8695    8.9704 C.ar    1  UNL1        0.0191
      3 C          60.0692   86.8602    8.4823 C.ar    1  UNL1        0.0356
      4 C          60.1632   85.5616    9.0151 C.ar    1  UNL1        0.1319
      5 N          61.0789   85.3202    9.9954 N.ar    1  UNL1       -0.2279
      6 C          61.8956   86.2880   10.4885 C.ar    1  UNL1        0.1149
      7 N          59.3125   84.4895    8.5446 N.pl3   1  UNL1       -0.2904
      8 C          57.9231   84.3674    9.0211 C.3     1  UNL1        0.0925
      9 C          57.3246   82.9916    8.6914 C.3     1  UNL1        0.0280
     10 C          58.3559   81.8857    8.9787 C.3     1  UNL1        0.0797
     11 C          59.6445   82.0674    8.1264 C.3     1  UNL1        0.1842
     12 F          60.7485   81.7373    8.8958 F       1  UNL1       -0.2353
     13 C          59.8178   83.4971    7.5829 C.3     1  UNL1        0.1274
     14 C          57.7279   80.4951    8.7618 C.3     1  UNL1        0.2081
     15 O          57.4612   79.8506   10.0087 O.3     1  UNL1       -0.4754
     16 C          58.1975   80.0232   11.1924 C.ar    1  UNL1        0.1388
     17 C          58.4067   78.9835   12.1181 C.ar    1  UNL1        0.0369
     18 C          59.1459   79.2157   13.2796 C.ar    1  UNL1        0.0033
     19 C          59.6859   80.4788   13.5303 C.ar    1  UNL1        0.0066
     20 C          59.4933   81.5275   12.6158 C.ar    1  UNL1        0.0785
     21 C          58.7474   81.2859   11.4473 C.ar    1  UNL1        0.0433
     22 C          60.0676   82.8650   12.8821 C.2     1  UNL1        0.3381
     23 O          60.9171   83.0242   13.8001 O.2     1  UNL1       -0.2451
     24 O          59.6745   83.9621   12.1198 O.3     1  UNL1       -0.4771
     25 H          60.0614   84.8820   12.2937 H       1  UNL1        0.2954
     26 C          62.4588   89.3769   11.6905 C.2     1  UNL1        0.2839
     27 O          61.3468   89.3100   12.2803 O.2     1  UNL1       -0.2665
     28 N          62.6774   88.6446   10.4737 N.am    1  UNL1       -0.2766
     29 H          63.4646   88.9453    9.8552 H       1  UNL1        0.1553
     30 C          64.2023   88.8679   14.3314 C.3     1  UNL1        0.0345
     31 C          64.2910   90.0223   13.3793 C.ar    1  UNL1        0.0202
     32 C          63.5270   90.2413   12.2273 C.ar    1  UNL1        0.1946
     33 O          63.8970   91.3690   11.6470 O.2     1  UNL1       -0.4492
     34 C          64.8613   91.8931   12.3634 C.ar    1  UNL1        0.1452
     35 C          65.5458   93.0785   12.1187 C.ar    1  UNL1        0.0375
     36 C          66.5544   93.4568   13.0216 C.ar    1  UNL1        0.0031
     37 C          66.8627   92.6495   14.1498 C.ar    1  UNL1        0.0002
     38 C          66.1412   91.4502   14.3627 C.ar    1  UNL1        0.0028
     39 C          65.1464   91.1054   13.4464 C.ar    1  UNL1        0.0337
     40 C          67.9305   93.0594   15.0968 C.ar    1  UNL1        0.0000
     41 C          68.1825   94.4221   15.3453 C.ar    1  UNL1        0.0000
     42 C          69.1894   94.8051   16.2368 C.ar    1  UNL1        0.0000
     43 C          69.9539   93.8356   16.8895 C.ar    1  UNL1        0.0000
     44 C          69.7136   92.4806   16.6517 C.ar    1  UNL1        0.0000
     45 C          68.7087   92.0918   15.7606 C.ar    1  UNL1        0.0000
@<TRIPOS>BOND
     1    30    31    1
     2    31    32   ar
     3    32    26    1
     4    26    27    2
     5    26    28   am
     6    28     1    1
     7     1     2   ar
     8     2     3   ar
     9     3     4   ar
    10     4     7    1
    11     7     8    1
    12     8     9    1
    13     9    10    1
    14    10    14    1
    15    14    15    1
    16    15    16    1
    17    16    17   ar
    18    17    18   ar
    19    18    19   ar
    20    19    20   ar
    21    20    22    1
    22    22    23    2
    23    22    24    1
    24    20    21   ar
    25    10    11    1
    26    11    12    1
    27    11    13    1
    28     4     5   ar
    29     5     6   ar
    30    32    33   ar
    31    33    34   ar
    32    34    35   ar
    33    35    36   ar
    34    36    37   ar
    35    37    40    1
    36    40    41   ar
    37    41    42   ar
    38    42    43   ar
    39    43    44   ar
    40    44    45   ar
    41    37    38   ar
    42    38    39   ar
    43    39    31   ar
    44     6     1   ar
    45    39    34   ar
    46    13     7    1
    47    45    40   ar
    48    21    16   ar
    49    28    29    1
    50    24    25    1
@<TRIPOS>MOLECULE
*****
 45 50 0 0 0
SMALL
GASTEIGER

@<TRIPOS>ATOM
      1 C          60.8209   89.6255    9.2152 C.ar    1  UNL1        0.0702
      2 C          61.5129   88.5014    9.6792 C.ar    1  UNL1        0.0191
      3 C          61.4074   88.1100   11.0147 C.ar    1  UNL1        0.0356
      4 C          60.6140   88.8617   11.9005 C.ar    1  UNL1        0.1319
      5 N          59.9724   89.9676   11.4281 N.ar    1  UNL1       -0.2279
      6 C          60.0576   90.3652   10.1313 C.ar    1  UNL1        0.1149
      7 N          60.4694   88.4839   13.2900 N.pl3   1  UNL1       -0.2904
      8 C          61.2001   89.2070   14.3462 C.3     1  UNL1        0.0925
      9 C          61.1927   88.4376   15.6757 C.3     1  UNL1        0.0280
     10 C          61.4526   86.9421   15.4206 C.3     1  UNL1        0.0797
     11 C          60.3657   86.3200   14.4978 C.3     1  UNL1        0.1842
     12 F          60.9653   85.4185   13.6333 F       1  UNL1       -0.2353
     13 C          59.5923   87.3677   13.6772 C.3     1  UNL1        0.1274
     14 C          61.5624   86.1799   16.7556 C.3     1  UNL1        0.2081
     15 O          62.7943   85.4607   16.8379 O.3     1  UNL1       -0.4754
     16 C          63.3643   84.6947   15.8078 C.ar    1  UNL1        0.1388
     17 C          64.5037   85.1081   15.0917 C.ar    1  UNL1        0.0369
     18 C          65.0242   84.3046   14.0755 C.ar    1  UNL1        0.0033
     19 C          64.4217   83.0840   13.7641 C.ar    1  UNL1        0.0066
     20 C          63.2877   82.6511   14.4712 C.ar    1  UNL1        0.0785
     21 C          62.7688   83.4662   15.4942 C.ar    1  UNL1        0.0433
     22 C          62.6514   81.3567   14.1411 C.2     1  UNL1        0.3381
     23 O          63.3579   80.3487   13.8680 O.2     1  UNL1       -0.2451
     24 O          61.2638   81.2395   14.1289 O.3     1  UNL1       -0.4771
     25 H          60.8180   80.3581   13.9043 H       1  UNL1        0.2954
     26 C          59.8623   90.1118    6.9153 C.2     1  UNL1        0.2839
     27 O          58.7516   89.5865    7.1970 O.2     1  UNL1       -0.2665
     28 N          60.9574   90.0290    7.8418 N.am    1  UNL1       -0.2766
     29 H          61.9230   90.1900    7.4751 H       1  UNL1        0.1553
     30 C          57.5778   91.3115    5.0139 C.3     1  UNL1        0.0345
     31 C          59.0586   91.3046    4.7806 C.ar    1  UNL1        0.0202
     32 C          60.0529   90.7788    5.6133 C.ar    1  UNL1        0.1946
     33 O          61.2426   90.9629    5.0688 O.2     1  UNL1       -0.4492
     34 C          61.0711   91.5806    3.9257 C.ar    1  UNL1        0.1452
     35 C          62.0532   91.9733    3.0230 C.ar    1  UNL1        0.0375
     36 C          61.6460   92.6298    1.8488 C.ar    1  UNL1        0.0031
     37 C          60.2708   92.8830    1.5949 C.ar    1  UNL1        0.0002
     38 C          59.3027   92.4661    2.5399 C.ar    1  UNL1        0.0028
     39 C          59.7424   91.8168    3.6946 C.ar    1  UNL1        0.0337
     40 C          59.8527   93.5776    0.3509 C.ar    1  UNL1        0.0000
     41 C          58.4879   93.7303    0.0404 C.ar    1  UNL1        0.0000
     42 C          58.0971   94.3840   -1.1322 C.ar    1  UNL1        0.0000
     43 C          59.0607   94.8923   -2.0060 C.ar    1  UNL1        0.0000
     44 C          60.4177   94.7475   -1.7092 C.ar    1  UNL1        0.0000
     45 C          60.8143   94.0940   -0.5385 C.ar    1  UNL1        0.0000
@<TRIPOS>BOND
     1    30    31    1
     2    31    32   ar
     3    32    26    1
     4    26    27    2
     5    26    28   am
     6    28     1    1
     7     1     2   ar
     8     2     3   ar
     9     3     4   ar
    10     4     7    1
    11     7     8    1
    12     8     9    1
    13     9    10    1
    14    10    14    1
    15    14    15    1
    16    15    16    1
    17    16    17   ar
    18    17    18   ar
    19    18    19   ar
    20    19    20   ar
    21    20    22    1
    22    22    23    2
    23    22    24    1
    24    20    21   ar
    25    10    11    1
    26    11    12    1
    27    11    13    1
    28     4     5   ar
    29     5     6   ar
    30    32    33   ar
    31    33    34   ar
    32    34    35   ar
    33    35    36   ar
    34    36    37   ar
    35    37    40    1
    36    40    41   ar
    37    41    42   ar
    38    42    43   ar
    39    43    44   ar
    40    44    45   ar
    41    37    38   ar
    42    38    39   ar
    43    39    31   ar
    44     6     1   ar
    45    39    34   ar
    46    13     7    1
    47    45    40   ar
    48    21    16   ar
    49    28    29    1
    50    24    25    1
@<TRIPOS>MOLECULE
*****
 45 50 0 0 0
SMALL
GASTEIGER

@<TRIPOS>ATOM
      1 C          60.0856   87.9439    8.2994 C.ar    1  UNL1        0.0702
      2 C          59.9376   86.5527    8.3151 C.ar    1  UNL1        0.0191
      3 C          60.0319   85.8470    9.5155 C.ar    1  UNL1        0.0356
      4 C          60.2944   86.5391   10.7119 C.ar    1  UNL1        0.1319
      5 N          60.4609   87.8911   10.6638 N.ar    1  UNL1       -0.2279
      6 C          60.3697   88.5991    9.5074 C.ar    1  UNL1        0.1149
      7 N          60.3892   85.8465   11.9790 N.pl3   1  UNL1       -0.2904
      8 C          59.7777   86.4141   13.1941 C.3     1  UNL1        0.0925
      9 C          60.2916   85.7257   14.4676 C.3     1  UNL1        0.0280
     10 C          61.8138   85.5163   14.3759 C.3     1  UNL1        0.0797
     11 C          62.1984   84.6272   13.1588 C.3     1  UNL1        0.1842
     12 F          63.3642   85.1146   12.5904 F       1  UNL1       -0.2353
     13 C          61.1008   84.5627   12.0816 C.3     1  UNL1        0.1274
     14 C          62.3568   84.9324   15.6947 C.3     1  UNL1        0.2081
     15 O          63.2251   85.8594   16.3491 O.3     1  UNL1       -0.4754
     16 C          63.2591   87.2456   16.1257 C.ar    1  UNL1        0.1388
     17 C          63.1105   88.1882   17.1607 C.ar    1  UNL1        0.0369
     18 C          63.1507   89.5547   16.8771 C.ar    1  UNL1        0.0033
     19 C          63.3422   89.9969   15.5665 C.ar    1  UNL1        0.0066
     20 C          63.4986   89.0720   14.5209 C.ar    1  UNL1        0.0785
     21 C          63.4571   87.6964   14.8144 C.ar    1  UNL1        0.0433
     22 C          63.7031   89.5422   13.1328 C.2     1  UNL1        0.3381
     23 O          64.4382   90.5392   12.8978 O.2     1  UNL1       -0.2451
     24 O          63.0843   88.8867   12.0714 O.3     1  UNL1       -0.4771
     25 H          63.2175   89.2003   11.1174 H       1  UNL1        0.2954
     26 C          59.7943   90.0712    6.9449 C.2     1  UNL1        0.2839
     27 O          59.4089   90.7322    7.9466 O.2     1  UNL1       -0.2665
     28 N          60.0079   88.6543    7.0516 N.am    1  UNL1       -0.2766
     29 H          60.0236   88.0931    6.1699 H       1  UNL1        0.1553
     30 C          57.5131   91.2678    5.0376 C.3     1  UNL1        0.0345
     31 C          58.9951   91.2701    4.8119 C.ar    1  UNL1        0.0202
     32 C          59.9880   90.7456    5.6471 C.ar    1  UNL1        0.1946
     33 O          61.1794   90.9389    5.1097 O.2     1  UNL1       -0.4492
     34 C          61.0104   91.5613    3.9687 C.ar    1  UNL1        0.1452
     35 C          61.9949   91.9637    3.0730 C.ar    1  UNL1        0.0375
     36 C          61.5902   92.6237    1.8999 C.ar    1  UNL1        0.0031
     37 C          60.2150   92.8707    1.6402 C.ar    1  UNL1        0.0002
     38 C          59.2443   92.4439    2.5782 C.ar    1  UNL1        0.0028
     39 C          59.6816   91.7913    3.7320 C.ar    1  UNL1        0.0337
     40 C          59.7994   93.5691    0.3975 C.ar    1  UNL1        0.0000
     41 C          58.4494   93.5765   -0.0023 C.ar    1  UNL1        0.0000
     42 C          58.0611   94.2342   -1.1735 C.ar    1  UNL1        0.0000
     43 C          59.0125   94.8909   -1.9571 C.ar    1  UNL1        0.0000
     44 C          60.3547   94.8912   -1.5712 C.ar    1  UNL1        0.0000
     45 C          60.7489   94.2344   -0.4015 C.ar    1  UNL1        0.0000
@<TRIPOS>BOND
     1    30    31    1
     2    31    32   ar
     3    32    26    1
     4    26    27    2
     5    26    28   am
     6    28     1    1
     7     1     2   ar
     8     2     3   ar
     9     3     4   ar
    10     4     7    1
    11     7     8    1
    12     8     9    1
    13     9    10    1
    14    10    14    1
    15    14    15    1
    16    15    16    1
    17    16    17   ar
    18    17    18   ar
    19    18    19   ar
    20    19    20   ar
    21    20    22    1
    22    22    23    2
    23    22    24    1
    24    20    21   ar
    25    10    11    1
    26    11    12    1
    27    11    13    1
    28     4     5   ar
    29     5     6   ar
    30    32    33   ar
    31    33    34   ar
    32    34    35   ar
    33    35    36   ar
    34    36    37   ar
    35    37    40    1
    36    40    41   ar
    37    41    42   ar
    38    42    43   ar
    39    43    44   ar
    40    44    45   ar
    41    37    38   ar
    42    38    39   ar
    43    39    31   ar
    44     6     1   ar
    45    39    34   ar
    46    13     7    1
    47    45    40   ar
    48    21    16   ar
    49    28    29    1
    50    24    25    1
@<TRIPOS>MOLECULE
*****
 45 50 0 0 0
SMALL
GASTEIGER

@<TRIPOS>ATOM
      1 C          59.8228   88.6650    7.4852 C.ar    1  UNL1        0.0702
      2 C          59.2870   87.3725    7.4852 C.ar    1  UNL1        0.0191
      3 C          59.0917   86.6901    8.6869 C.ar    1  UNL1        0.0356
      4 C          59.4525   87.3011    9.9017 C.ar    1  UNL1        0.1319
      5 N          59.9973   88.5501    9.8706 N.ar    1  UNL1       -0.2279
      6 C          60.1931   89.2346    8.7130 C.ar    1  UNL1        0.1149
      7 N          59.2566   86.6323   11.1700 N.pl3   1  UNL1       -0.2904
      8 C          58.4219   87.2419   12.2208 C.3     1  UNL1        0.0925
      9 C          58.6343   86.5655   13.5836 C.3     1  UNL1        0.0280
     10 C          60.1342   86.3112   13.8177 C.3     1  UNL1        0.0797
     11 C          60.7373   85.3866   12.7216 C.3     1  UNL1        0.1842
     12 F          62.0116   85.8288   12.4049 F       1  UNL1       -0.2353
     13 C          59.8891   85.3311   11.4383 C.3     1  UNL1        0.1274
     14 C          60.3688   85.7393   15.2294 C.3     1  UNL1        0.2081
     15 O          61.1306   86.6439   16.0312 O.3     1  UNL1       -0.4754
     16 C          62.2976   87.3122   15.6256 C.ar    1  UNL1        0.1388
     17 C          63.4016   86.6443   15.0626 C.ar    1  UNL1        0.0369
     18 C          64.5364   87.3622   14.6804 C.ar    1  UNL1        0.0033
     19 C          64.5839   88.7475   14.8500 C.ar    1  UNL1        0.0066
     20 C          63.4901   89.4328   15.4042 C.ar    1  UNL1        0.0785
     21 C          62.3498   88.7026   15.7870 C.ar    1  UNL1        0.0433
     22 C          63.5414   90.9009   15.5817 C.2     1  UNL1        0.3381
     23 O          63.7630   91.6562   14.5966 O.2     1  UNL1       -0.2451
     24 O          63.3451   91.4631   16.8406 O.3     1  UNL1       -0.4771
     25 H          63.3781   92.4668   16.9730 H       1  UNL1        0.2954
     26 C          59.3810   90.5681    5.8640 C.2     1  UNL1        0.2839
     27 O          58.3811   90.9751    6.5147 O.2     1  UNL1       -0.2665
     28 N          60.0387   89.3464    6.2374 N.am    1  UNL1       -0.2766
     29 H          60.6465   88.8797    5.5265 H       1  UNL1        0.1553
     30 C          62.3610   90.6289    4.6855 C.3     1  UNL1        0.0345
     31 C          61.1540   91.3543    4.1717 C.ar    1  UNL1        0.0202
     32 C          59.8543   91.3257    4.6899 C.ar    1  UNL1        0.1946
     33 O          59.0612   92.0937    3.9642 O.2     1  UNL1       -0.4492
     34 C          59.7795   92.6195    3.0023 C.ar    1  UNL1        0.1452
     35 C          59.3490   93.4887    2.0060 C.ar    1  UNL1        0.0375
     36 C          60.2933   93.9338    1.0649 C.ar    1  UNL1        0.0031
     37 C          61.6469   93.5059    1.1324 C.ar    1  UNL1        0.0002
     38 C          62.0440   92.6206    2.1633 C.ar    1  UNL1        0.0028
     39 C          61.0803   92.1992    3.0808 C.ar    1  UNL1        0.0337
     40 C          62.6355   93.9826    0.1323 C.ar    1  UNL1        0.0000
     41 C          62.2142   94.4250   -1.1362 C.ar    1  UNL1        0.0000
     42 C          63.1476   94.8724   -2.0763 C.ar    1  UNL1        0.0000
     43 C          64.5084   94.8843   -1.7624 C.ar    1  UNL1        0.0000
     44 C          64.9390   94.4484   -0.5074 C.ar    1  UNL1        0.0000
     45 C          64.0102   93.9990    0.4363 C.ar    1  UNL1        0.0000
@<TRIPOS>BOND
     1    30    31    1
     2    31    32   ar
     3    32    26    1
     4    26    27    2
     5    26    28   am
     6    28     1    1
     7     1     2   ar
     8     2     3   ar
     9     3     4   ar
    10     4     7    1
    11     7     8    1
    12     8     9    1
    13     9    10    1
    14    10    14    1
    15    14    15    1
    16    15    16    1
    17    16    17   ar
    18    17    18   ar
    19    18    19   ar
    20    19    20   ar
    21    20    22    1
    22    22    23    2
    23    22    24    1
    24    20    21   ar
    25    10    11    1
    26    11    12    1
    27    11    13    1
    28     4     5   ar
    29     5     6   ar
    30    32    33   ar
    31    33    34   ar
    32    34    35   ar
    33    35    36   ar
    34    36    37   ar
    35    37    40    1
    36    40    41   ar
    37    41    42   ar
    38    42    43   ar
    39    43    44   ar
    40    44    45   ar
    41    37    38   ar
    42    38    39   ar
    43    39    31   ar
    44     6     1   ar
    45    39    34   ar
    46    13     7    1
    47    45    40   ar
    48    21    16   ar
    49    28    29    1
    50    24    25    1
@<TRIPOS>MOLECULE
*****
 45 50 0 0 0
SMALL
GASTEIGER

@<TRIPOS>ATOM
      1 C          59.4488   90.8881    5.8958 C.ar    1  UNL1        0.0702
      2 C          58.2229   91.3386    5.3939 C.ar    1  UNL1        0.0191
      3 C          58.1679   92.0289    4.1821 C.ar    1  UNL1        0.0356
      4 C          59.3550   92.2867    3.4726 C.ar    1  UNL1        0.1319
      5 N          60.5382   91.8602    3.9979 N.ar    1  UNL1       -0.2279
      6 C          60.6153   91.1832    5.1737 C.ar    1  UNL1        0.1149
      7 N          59.3405   92.9896    2.2077 N.pl3   1  UNL1       -0.2904
      8 C          59.1973   92.2528    0.9392 C.3     1  UNL1        0.0925
      9 C          59.5631   93.1237   -0.2721 C.3     1  UNL1        0.0280
     10 C          60.8357   93.9360    0.0277 C.3     1  UNL1        0.0797
     11 C          60.6427   94.8731    1.2543 C.3     1  UNL1        0.1842
     12 F          61.8102   94.8917    2.0000 F       1  UNL1       -0.2353
     13 C          59.4714   94.4545    2.1612 C.3     1  UNL1        0.1274
     14 C          61.2770   94.7248   -1.2206 C.3     1  UNL1        0.2081
     15 O          62.6949   94.6719   -1.3883 O.3     1  UNL1       -0.4754
     16 C          63.6165   94.2312   -0.4243 C.ar    1  UNL1        0.1388
     17 C          64.9142   94.7649   -0.3105 C.ar    1  UNL1        0.0369
     18 C          65.7878   94.2845    0.6669 C.ar    1  UNL1        0.0033
     19 C          65.3805   93.2745    1.5409 C.ar    1  UNL1        0.0066
     20 C          64.0876   92.7333    1.4473 C.ar    1  UNL1        0.0785
     21 C          63.2126   93.2226    0.4598 C.ar    1  UNL1        0.0433
     22 C          63.6570   91.6642    2.3753 C.2     1  UNL1        0.3381
     23 O          62.5499   91.0835    2.2111 O.2     1  UNL1       -0.2451
     24 O          64.4719   91.2890    3.4404 O.3     1  UNL1       -0.4771
     25 H          64.1867   90.5584    4.0814 H       1  UNL1        0.2954
     26 C          59.5550   88.7685    7.2890 C.2     1  UNL1        0.2839
     27 O          59.3197   88.0281    6.2963 O.2     1  UNL1       -0.2665
     28 N          59.4917   90.1978    7.1566 N.am    1  UNL1       -0.2766
     29 H          59.3855   90.7666    8.0271 H       1  UNL1        0.1553
     30 C          61.5100   89.9426    9.5413 C.3     1  UNL1        0.0345
     31 C          60.7085   88.6766    9.5882 C.ar    1  UNL1        0.0202
     32 C          59.8564   88.1670    8.6019 C.ar    1  UNL1        0.1946
     33 O          59.3250   87.0277    9.0083 O.2     1  UNL1       -0.4492
     34 C          59.7888   86.7719   10.2071 C.ar    1  UNL1        0.1452
     35 C          59.4928   85.6761   11.0103 C.ar    1  UNL1        0.0375
     36 C          60.1049   85.5988   12.2732 C.ar    1  UNL1        0.0031
     37 C          60.9991   86.6122   12.7128 C.ar    1  UNL1        0.0002
     38 C          61.2738   87.7111   11.8636 C.ar    1  UNL1        0.0028
     39 C          60.6487   87.7555   10.6164 C.ar    1  UNL1        0.0337
     40 C          61.6397   86.5199   14.0493 C.ar    1  UNL1        0.0000
     41 C          60.8553   86.4809   15.2179 C.ar    1  UNL1        0.0000
     42 C          61.4614   86.3949   16.4751 C.ar    1  UNL1        0.0000
     43 C          62.8531   86.3463   16.5806 C.ar    1  UNL1        0.0000
     44 C          63.6422   86.3839   15.4290 C.ar    1  UNL1        0.0000
     45 C          63.0417   86.4708   14.1692 C.ar    1  UNL1        0.0000
@<TRIPOS>BOND
     1    30    31    1
     2    31    32   ar
     3    32    26    1
     4    26    27    2
     5    26    28   am
     6    28     1    1
     7     1     2   ar
     8     2     3   ar
     9     3     4   ar
    10     4     7    1
    11     7     8    1
    12     8     9    1
    13     9    10    1
    14    10    14    1
    15    14    15    1
    16    15    16    1
    17    16    17   ar
    18    17    18   ar
    19    18    19   ar
    20    19    20   ar
    21    20    22    1
    22    22    23    2
    23    22    24    1
    24    20    21   ar
    25    10    11    1
    26    11    12    1
    27    11    13    1
    28     4     5   ar
    29     5     6   ar
    30    32    33   ar
    31    33    34   ar
    32    34    35   ar
    33    35    36   ar
    34    36    37   ar
    35    37    40    1
    36    40    41   ar
    37    41    42   ar
    38    42    43   ar
    39    43    44   ar
    40    44    45   ar
    41    37    38   ar
    42    38    39   ar
    43    39    31   ar
    44     6     1   ar
    45    39    34   ar
    46    13     7    1
    47    45    40   ar
    48    21    16   ar
    49    28    29    1
    50    24    25    1
