@<TRIPOS>MOLECULE
*****
 50 55 0 0 0
SMALL
GASTEIGER

@<TRIPOS>ATOM
      1 O         -60.7800  -46.1170  -26.7276 O.2     1  UNL1       -0.2701
      2 C         -61.9642  -45.7357  -26.5224 C.2     1  UNL1        0.2483
      3 N         -63.0457  -46.2934  -27.2904 N.am    1  UNL1       -0.2945
      4 H         -63.9721  -45.8106  -27.2688 H       1  UNL1        0.1501
      5 C         -62.2174  -44.6843  -25.5118 C.ar    1  UNL1        0.0808
      6 C         -62.0100  -44.9653  -24.1518 C.ar    1  UNL1        0.0080
      7 C         -62.2383  -43.9875  -23.1807 C.ar    1  UNL1        0.0148
      8 C         -62.6889  -42.7071  -23.5465 C.ar    1  UNL1        0.0502
      9 C         -62.9179  -42.4338  -24.9063 C.ar    1  UNL1        0.0443
     10 C         -62.6881  -43.4100  -25.8810 C.ar    1  UNL1        0.1457
     11 F         -62.9724  -43.1179  -27.1756 F       1  UNL1       -0.2040
     12 N         -62.9305  -41.6959  -22.5426 N.pl3   1  UNL1       -0.3040
     13 C         -64.3129  -41.3587  -22.1683 C.3     1  UNL1        0.1123
     14 C         -64.3729  -40.6349  -20.8197 C.3     1  UNL1        0.1136
     15 N         -63.4328  -39.5051  -20.7984 N.pl3   1  UNL1       -0.2897
     16 C         -62.1126  -39.6430  -21.4361 C.3     1  UNL1        0.1136
     17 C         -61.8065  -41.0981  -21.8080 C.3     1  UNL1        0.1123
     18 C         -63.7569  -38.3203  -20.0357 C.ar    1  UNL1        0.1318
     19 C         -64.8663  -38.2850  -19.1727 C.ar    1  UNL1        0.0343
     20 C         -65.1461  -37.1217  -18.4539 C.ar    1  UNL1        0.0083
     21 C         -64.3144  -35.9990  -18.5732 C.ar    1  UNL1        0.0906
     22 C         -63.2300  -36.0651  -19.4607 C.ar    1  UNL1        0.1041
     23 N         -62.9785  -37.2077  -20.1522 N.ar    1  UNL1       -0.2292
     24 C         -64.6347  -34.7209  -17.8406 C.3     1  UNL1        0.4200
     25 F         -64.9291  -34.9797  -16.5131 F       1  UNL1       -0.1658
     26 F         -63.5435  -33.8746  -17.9035 F       1  UNL1       -0.1658
     27 F         -65.7272  -34.0917  -18.4118 F       1  UNL1       -0.1658
     28 C         -62.9268  -47.4731  -28.1543 C.3     1  UNL1        0.1535
     29 C         -63.2082  -48.7331  -27.3720 C.2     1  UNL1        0.2443
     30 O         -63.4058  -49.8241  -27.9740 O.2     1  UNL1       -0.2730
     31 N         -63.3185  -48.6695  -25.9427 N.am    1  UNL1       -0.2821
     32 H         -63.4411  -47.7299  -25.5028 H       1  UNL1        0.1549
     33 C         -63.3002  -49.8317  -25.0966 C.ar    1  UNL1        0.0597
     34 C         -64.2524  -50.8514  -25.2630 C.ar    1  UNL1        0.0358
     35 C         -64.1993  -51.9862  -24.4520 C.ar    1  UNL1        0.1002
     36 N         -63.2256  -52.1080  -23.5128 N.ar    1  UNL1       -0.2417
     37 C         -62.2828  -51.1457  -23.3347 C.ar    1  UNL1        0.1068
     38 C         -62.2945  -49.9915  -24.1248 C.ar    1  UNL1        0.0671
     39 BR        -60.9605  -48.6500  -23.8185 Br      1  UNL1       -0.0461
     40 C         -63.8055  -47.3279  -29.4135 C.3     1  UNL1        0.0569
     41 C         -64.1316  -45.8876  -29.6903 C.ar    1  UNL1       -0.0017
     42 C         -65.3956  -45.3045  -29.6775 C.ar    1  UNL1        0.0681
     43 N         -65.3214  -44.0082  -30.0562 N.ar    1  UNL1       -0.3523
     44 C         -64.0242  -43.7710  -30.3175 C.ar    1  UNL1        0.0563
     45 C         -63.4560  -42.5779  -30.7620 C.ar    1  UNL1        0.0170
     46 C         -62.0685  -42.5570  -30.9945 C.ar    1  UNL1        0.0015
     47 C         -61.2897  -43.7165  -30.7833 C.ar    1  UNL1        0.0001
     48 C         -61.8907  -44.9074  -30.3364 C.ar    1  UNL1        0.0012
     49 C         -63.2672  -44.8956  -30.1099 C.ar    1  UNL1        0.0131
     50 H         -66.1158  -43.3358  -30.1420 H       1  UNL1        0.1660
@<TRIPOS>BOND
     1     1     2    2
     2     2     3   am
     3     3    28    1
     4    28    40    1
     5    40    41    1
     6    41    42   ar
     7    42    43   ar
     8    43    44   ar
     9    44    45   ar
    10    45    46   ar
    11    46    47   ar
    12    47    48   ar
    13    48    49   ar
    14    28    29    1
    15    29    30    2
    16    29    31   am
    17    31    33    1
    18    33    34   ar
    19    34    35   ar
    20    35    36   ar
    21    36    37   ar
    22    37    38   ar
    23    38    39    1
    24     2     5    1
    25     5     6   ar
    26     6     7   ar
    27     7     8   ar
    28     8    12    1
    29    12    13    1
    30    13    14    1
    31    14    15    1
    32    15    18    1
    33    18    19   ar
    34    19    20   ar
    35    20    21   ar
    36    21    24    1
    37    24    25    1
    38    24    26    1
    39    24    27    1
    40    21    22   ar
    41    22    23   ar
    42    15    16    1
    43    16    17    1
    44     8     9   ar
    45     9    10   ar
    46    10    11    1
    47    49    41   ar
    48    38    33   ar
    49    10     5   ar
    50    49    44   ar
    51    17    12    1
    52    23    18   ar
    53     3     4    1
    54    43    50    1
    55    31    32    1
@<TRIPOS>MOLECULE
*****
 50 55 0 0 0
SMALL
GASTEIGER

@<TRIPOS>ATOM
      1 O         -60.7344  -46.6069  -26.2166 O.2     1  UNL1       -0.2701
      2 C         -61.8945  -46.1278  -26.0967 C.2     1  UNL1        0.2483
      3 N         -62.9608  -46.5984  -26.9406 N.am    1  UNL1       -0.2945
      4 H         -63.8432  -46.0404  -26.9853 H       1  UNL1        0.1501
      5 C         -62.1313  -45.0536  -25.1064 C.ar    1  UNL1        0.0808
      6 C         -62.3487  -43.7387  -25.5482 C.ar    1  UNL1        0.0080
      7 C         -62.5786  -42.7094  -24.6322 C.ar    1  UNL1        0.0148
      8 C         -62.5871  -42.9696  -23.2508 C.ar    1  UNL1        0.0502
      9 C         -62.3469  -44.2822  -22.8084 C.ar    1  UNL1        0.0443
     10 C         -62.1188  -45.3151  -23.7232 C.ar    1  UNL1        0.1457
     11 F         -61.8400  -46.5558  -23.2489 F       1  UNL1       -0.2040
     12 N         -62.8196  -41.9050  -22.3015 N.pl3   1  UNL1       -0.3040
     13 C         -64.1817  -41.6615  -21.8011 C.3     1  UNL1        0.1123
     14 C         -64.1709  -40.8379  -20.5097 C.3     1  UNL1        0.1136
     15 N         -63.3472  -39.6317  -20.6741 N.pl3   1  UNL1       -0.2897
     16 C         -62.0932  -39.7043  -21.4429 C.3     1  UNL1        0.1136
     17 C         -61.6884  -41.1522  -21.7411 C.3     1  UNL1        0.1123
     18 C         -63.7031  -38.4218  -19.9672 C.ar    1  UNL1        0.1318
     19 C         -64.7865  -38.3879  -19.0717 C.ar    1  UNL1        0.0343
     20 C         -65.0985  -37.1999  -18.4089 C.ar    1  UNL1        0.0083
     21 C         -64.3241  -36.0494  -18.6165 C.ar    1  UNL1        0.0906
     22 C         -63.2650  -36.1164  -19.5339 C.ar    1  UNL1        0.1041
     23 N         -62.9814  -37.2836  -20.1697 N.ar    1  UNL1       -0.2292
     24 C         -64.6815  -34.7479  -17.9448 C.3     1  UNL1        0.4200
     25 F         -65.0474  -34.9627  -16.6273 F       1  UNL1       -0.1658
     26 F         -63.5874  -33.9037  -17.9767 F       1  UNL1       -0.1658
     27 F         -65.7409  -34.1382  -18.5945 F       1  UNL1       -0.1658
     28 C         -62.8786  -47.7885  -27.7943 C.3     1  UNL1        0.1535
     29 C         -63.2693  -49.0239  -27.0199 C.2     1  UNL1        0.2443
     30 O         -63.7723  -50.0154  -27.6165 O.2     1  UNL1       -0.2730
     31 N         -63.1300  -49.0381  -25.5918 N.am    1  UNL1       -0.2821
     32 H         -62.9927  -48.1243  -25.1045 H       1  UNL1        0.1549
     33 C         -63.2014  -50.2381  -24.8031 C.ar    1  UNL1        0.0597
     34 C         -64.2781  -51.1283  -24.9529 C.ar    1  UNL1        0.0358
     35 C         -64.3139  -52.3032  -24.2003 C.ar    1  UNL1        0.1002
     36 N         -63.3073  -52.5889  -23.3341 N.ar    1  UNL1       -0.2417
     37 C         -62.2462  -51.7552  -23.1746 C.ar    1  UNL1        0.1068
     38 C         -62.1658  -50.5669  -23.9083 C.ar    1  UNL1        0.0671
     39 BR        -60.6635  -49.4101  -23.6294 Br      1  UNL1       -0.0461
     40 C         -63.6933  -47.5978  -29.0900 C.3     1  UNL1        0.0569
     41 C         -63.9378  -46.1426  -29.3735 C.ar    1  UNL1       -0.0017
     42 C         -65.1706  -45.4967  -29.3984 C.ar    1  UNL1        0.0681
     43 N         -65.0197  -44.2055  -29.7717 N.ar    1  UNL1       -0.3523
     44 C         -63.7047  -44.0337  -29.9924 C.ar    1  UNL1        0.0563
     45 C         -63.0638  -42.8704  -30.4165 C.ar    1  UNL1        0.0170
     46 C         -61.6705  -42.9192  -30.6060 C.ar    1  UNL1        0.0015
     47 C         -60.9578  -44.1167  -30.3735 C.ar    1  UNL1        0.0001
     48 C         -61.6315  -45.2761  -29.9480 C.ar    1  UNL1        0.0012
     49 C         -63.0121  -45.1951  -29.7641 C.ar    1  UNL1        0.0131
     50 H         -65.7762  -43.4939  -29.8806 H       1  UNL1        0.1660
@<TRIPOS>BOND
     1     1     2    2
     2     2     3   am
     3     3    28    1
     4    28    40    1
     5    40    41    1
     6    41    42   ar
     7    42    43   ar
     8    43    44   ar
     9    44    45   ar
    10    45    46   ar
    11    46    47   ar
    12    47    48   ar
    13    48    49   ar
    14    28    29    1
    15    29    30    2
    16    29    31   am
    17    31    33    1
    18    33    34   ar
    19    34    35   ar
    20    35    36   ar
    21    36    37   ar
    22    37    38   ar
    23    38    39    1
    24     2     5    1
    25     5     6   ar
    26     6     7   ar
    27     7     8   ar
    28     8    12    1
    29    12    13    1
    30    13    14    1
    31    14    15    1
    32    15    18    1
    33    18    19   ar
    34    19    20   ar
    35    20    21   ar
    36    21    24    1
    37    24    25    1
    38    24    26    1
    39    24    27    1
    40    21    22   ar
    41    22    23   ar
    42    15    16    1
    43    16    17    1
    44     8     9   ar
    45     9    10   ar
    46    10    11    1
    47    49    41   ar
    48    38    33   ar
    49    10     5   ar
    50    49    44   ar
    51    17    12    1
    52    23    18   ar
    53     3     4    1
    54    43    50    1
    55    31    32    1
@<TRIPOS>MOLECULE
*****
 50 55 0 0 0
SMALL
GASTEIGER

@<TRIPOS>ATOM
      1 O         -63.1543  -54.2788  -22.3735 O.2     1  UNL1       -0.2701
      2 C         -64.0519  -53.5243  -22.8368 C.2     1  UNL1        0.2483
      3 N         -65.4302  -53.9359  -22.8020 N.am    1  UNL1       -0.2945
      4 H         -66.1209  -53.4121  -23.3854 H       1  UNL1        0.1501
      5 C         -63.6631  -52.2333  -23.4476 C.ar    1  UNL1        0.0808
      6 C         -64.4333  -51.7014  -24.4942 C.ar    1  UNL1        0.0080
      7 C         -64.0881  -50.4827  -25.0831 C.ar    1  UNL1        0.0148
      8 C         -62.9578  -49.7709  -24.6448 C.ar    1  UNL1        0.0502
      9 C         -62.1744  -50.3153  -23.6122 C.ar    1  UNL1        0.0443
     10 C         -62.5188  -51.5341  -23.0192 C.ar    1  UNL1        0.1457
     11 F         -61.7044  -52.0462  -22.0619 F       1  UNL1       -0.2040
     12 N         -62.5963  -48.5124  -25.2564 N.pl3   1  UNL1       -0.3040
     13 C         -63.0388  -47.2513  -24.6411 C.3     1  UNL1        0.1123
     14 C         -62.2124  -46.0603  -25.1357 C.3     1  UNL1        0.1136
     15 N         -62.1561  -46.0459  -26.6045 N.pl3   1  UNL1       -0.2897
     16 C         -62.0266  -47.3143  -27.3416 C.3     1  UNL1        0.1136
     17 C         -61.6874  -48.4841  -26.4112 C.3     1  UNL1        0.1123
     18 C         -62.0899  -44.7827  -27.3045 C.ar    1  UNL1        0.1318
     19 C         -62.5650  -43.5953  -26.7204 C.ar    1  UNL1        0.0343
     20 C         -62.4837  -42.3956  -27.4292 C.ar    1  UNL1        0.0083
     21 C         -61.9120  -42.3675  -28.7093 C.ar    1  UNL1        0.0906
     22 C         -61.4693  -43.5760  -29.2674 C.ar    1  UNL1        0.1041
     23 N         -61.5610  -44.7324  -28.5596 N.ar    1  UNL1       -0.2292
     24 C         -61.8641  -41.0875  -29.5044 C.3     1  UNL1        0.4200
     25 F         -61.5640  -41.3473  -30.8304 F       1  UNL1       -0.1658
     26 F         -63.0950  -40.4624  -29.4351 F       1  UNL1       -0.1658
     27 F         -60.8965  -40.2358  -29.0003 F       1  UNL1       -0.1658
     28 C         -65.9333  -55.0846  -22.0407 C.3     1  UNL1        0.1535
     29 C         -67.0680  -54.6655  -21.1376 C.2     1  UNL1        0.2443
     30 O         -67.1041  -53.4970  -20.6628 O.2     1  UNL1       -0.2730
     31 N         -68.0687  -55.6245  -20.7660 N.am    1  UNL1       -0.2821
     32 H         -67.8615  -56.6355  -20.9282 H       1  UNL1        0.1549
     33 C         -69.3202  -55.2645  -20.1567 C.ar    1  UNL1        0.0597
     34 C         -70.4696  -55.0772  -20.9429 C.ar    1  UNL1        0.0358
     35 C         -71.6822  -54.7580  -20.3298 C.ar    1  UNL1        0.1002
     36 N         -71.7524  -54.6386  -18.9786 N.ar    1  UNL1       -0.2417
     37 C         -70.6622  -54.8252  -18.1891 C.ar    1  UNL1        0.1068
     38 C         -69.4258  -55.1480  -18.7580 C.ar    1  UNL1        0.0671
     39 BR        -67.9111  -55.3749  -17.6060 Br      1  UNL1       -0.0461
     40 C         -66.2998  -56.2528  -22.9785 C.3     1  UNL1        0.0569
     41 C         -67.2427  -55.8102  -24.0614 C.ar    1  UNL1       -0.0017
     42 C         -66.9921  -54.8538  -25.0415 C.ar    1  UNL1        0.0681
     43 N         -68.0964  -54.6498  -25.7954 N.ar    1  UNL1       -0.3523
     44 C         -69.0439  -55.4608  -25.2936 C.ar    1  UNL1        0.0563
     45 C         -70.3626  -55.5896  -25.7276 C.ar    1  UNL1        0.0170
     46 C         -71.1963  -56.4901  -25.0394 C.ar    1  UNL1        0.0015
     47 C         -70.7000  -57.2304  -23.9433 C.ar    1  UNL1        0.0001
     48 C         -69.3651  -57.0783  -23.5261 C.ar    1  UNL1        0.0012
     49 C         -68.5618  -56.1818  -24.2313 C.ar    1  UNL1        0.0131
     50 H         -68.1935  -53.9844  -26.5943 H       1  UNL1        0.1660
@<TRIPOS>BOND
     1     1     2    2
     2     2     3   am
     3     3    28    1
     4    28    40    1
     5    40    41    1
     6    41    42   ar
     7    42    43   ar
     8    43    44   ar
     9    44    45   ar
    10    45    46   ar
    11    46    47   ar
    12    47    48   ar
    13    48    49   ar
    14    28    29    1
    15    29    30    2
    16    29    31   am
    17    31    33    1
    18    33    34   ar
    19    34    35   ar
    20    35    36   ar
    21    36    37   ar
    22    37    38   ar
    23    38    39    1
    24     2     5    1
    25     5     6   ar
    26     6     7   ar
    27     7     8   ar
    28     8    12    1
    29    12    13    1
    30    13    14    1
    31    14    15    1
    32    15    18    1
    33    18    19   ar
    34    19    20   ar
    35    20    21   ar
    36    21    24    1
    37    24    25    1
    38    24    26    1
    39    24    27    1
    40    21    22   ar
    41    22    23   ar
    42    15    16    1
    43    16    17    1
    44     8     9   ar
    45     9    10   ar
    46    10    11    1
    47    49    41   ar
    48    38    33   ar
    49    10     5   ar
    50    49    44   ar
    51    17    12    1
    52    23    18   ar
    53     3     4    1
    54    43    50    1
    55    31    32    1
@<TRIPOS>MOLECULE
*****
 50 55 0 0 0
SMALL
GASTEIGER

@<TRIPOS>ATOM
      1 O         -60.5376  -45.7601  -26.7229 O.2     1  UNL1       -0.2701
      2 C         -61.7269  -45.5850  -26.3425 C.2     1  UNL1        0.2483
      3 N         -62.7944  -46.3455  -26.9364 N.am    1  UNL1       -0.2945
      4 H         -63.7780  -46.0311  -26.7767 H       1  UNL1        0.1501
      5 C         -62.0095  -44.5640  -25.3088 C.ar    1  UNL1        0.0808
      6 C         -62.7191  -43.4033  -25.6563 C.ar    1  UNL1        0.0080
      7 C         -63.0011  -42.4281  -24.6968 C.ar    1  UNL1        0.0148
      8 C         -62.5715  -42.5865  -23.3677 C.ar    1  UNL1        0.0502
      9 C         -61.8417  -43.7384  -23.0258 C.ar    1  UNL1        0.0443
     10 C         -61.5597  -44.7175  -23.9838 C.ar    1  UNL1        0.1457
     11 F         -60.8078  -45.7873  -23.6203 F       1  UNL1       -0.2040
     12 N         -62.8580  -41.5762  -22.3749 N.pl3   1  UNL1       -0.3040
     13 C         -64.2558  -41.2542  -22.0475 C.3     1  UNL1        0.1123
     14 C         -64.3690  -40.5283  -20.7035 C.3     1  UNL1        0.1136
     15 N         -63.4432  -39.3877  -20.6537 N.pl3   1  UNL1       -0.2897
     16 C         -62.1009  -39.5117  -21.2468 C.3     1  UNL1        0.1136
     17 C         -61.7660  -40.9639  -21.6048 C.3     1  UNL1        0.1123
     18 C         -63.8060  -38.2052  -19.9051 C.ar    1  UNL1        0.1318
     19 C         -64.9025  -38.2027  -19.0251 C.ar    1  UNL1        0.0343
     20 C         -65.2209  -37.0405  -18.3207 C.ar    1  UNL1        0.0083
     21 C         -64.4401  -35.8855  -18.4714 C.ar    1  UNL1        0.0906
     22 C         -63.3676  -35.9203  -19.3750 C.ar    1  UNL1        0.1041
     23 N         -63.0780  -37.0625  -20.0520 N.ar    1  UNL1       -0.2292
     24 C         -64.8036  -34.6101  -17.7545 C.3     1  UNL1        0.4200
     25 F         -66.0296  -34.1377  -18.1899 F       1  UNL1       -0.1658
     26 F         -64.8719  -34.8554  -16.3958 F       1  UNL1       -0.1658
     27 F         -63.8540  -33.6308  -17.9890 F       1  UNL1       -0.1658
     28 C         -62.5980  -47.5118  -27.8043 C.3     1  UNL1        0.1535
     29 C         -62.9827  -48.7803  -27.0822 C.2     1  UNL1        0.2443
     30 O         -63.2885  -49.8157  -27.7352 O.2     1  UNL1       -0.2730
     31 N         -63.0662  -48.7822  -25.6496 N.am    1  UNL1       -0.2821
     32 H         -63.0956  -47.8598  -25.1600 H       1  UNL1        0.1549
     33 C         -63.1427  -49.9841  -24.8645 C.ar    1  UNL1        0.0597
     34 C         -64.1856  -50.9038  -25.0660 C.ar    1  UNL1        0.0358
     35 C         -64.2255  -52.0797  -24.3151 C.ar    1  UNL1        0.1002
     36 N         -63.2549  -52.3378  -23.4006 N.ar    1  UNL1       -0.2417
     37 C         -62.2264  -51.4750  -23.1901 C.ar    1  UNL1        0.1068
     38 C         -62.1433  -50.2846  -23.9198 C.ar    1  UNL1        0.0671
     39 BR        -60.6892  -49.0866  -23.5688 Br      1  UNL1       -0.0461
     40 C         -63.3298  -47.3300  -29.1498 C.3     1  UNL1        0.0569
     41 C         -63.1467  -45.9396  -29.6889 C.ar    1  UNL1       -0.0017
     42 C         -61.9427  -45.3383  -30.0449 C.ar    1  UNL1        0.0681
     43 N         -62.1470  -44.0521  -30.4100 N.ar    1  UNL1       -0.3523
     44 C         -63.4668  -43.8335  -30.2777 C.ar    1  UNL1        0.0563
     45 C         -64.1549  -42.6449  -30.5183 C.ar    1  UNL1        0.0170
     46 C         -65.5437  -42.6321  -30.2931 C.ar    1  UNL1        0.0015
     47 C         -66.2054  -43.7931  -29.8346 C.ar    1  UNL1        0.0001
     48 C         -65.4848  -44.9780  -29.5982 C.ar    1  UNL1        0.0012
     49 C         -64.1101  -44.9610  -29.8354 C.ar    1  UNL1        0.0131
     50 H         -61.4213  -43.3667  -30.7166 H       1  UNL1        0.1660
@<TRIPOS>BOND
     1     1     2    2
     2     2     3   am
     3     3    28    1
     4    28    40    1
     5    40    41    1
     6    41    42   ar
     7    42    43   ar
     8    43    44   ar
     9    44    45   ar
    10    45    46   ar
    11    46    47   ar
    12    47    48   ar
    13    48    49   ar
    14    28    29    1
    15    29    30    2
    16    29    31   am
    17    31    33    1
    18    33    34   ar
    19    34    35   ar
    20    35    36   ar
    21    36    37   ar
    22    37    38   ar
    23    38    39    1
    24     2     5    1
    25     5     6   ar
    26     6     7   ar
    27     7     8   ar
    28     8    12    1
    29    12    13    1
    30    13    14    1
    31    14    15    1
    32    15    18    1
    33    18    19   ar
    34    19    20   ar
    35    20    21   ar
    36    21    24    1
    37    24    25    1
    38    24    26    1
    39    24    27    1
    40    21    22   ar
    41    22    23   ar
    42    15    16    1
    43    16    17    1
    44     8     9   ar
    45     9    10   ar
    46    10    11    1
    47    49    41   ar
    48    38    33   ar
    49    10     5   ar
    50    49    44   ar
    51    17    12    1
    52    23    18   ar
    53     3     4    1
    54    43    50    1
    55    31    32    1
@<TRIPOS>MOLECULE
*****
 50 55 0 0 0
SMALL
GASTEIGER

@<TRIPOS>ATOM
      1 O         -60.3139  -41.8409  -21.6943 O.2     1  UNL1       -0.2701
      2 C         -61.4999  -41.7561  -22.1140 C.2     1  UNL1        0.2483
      3 N         -62.4708  -40.9848  -21.3840 N.am    1  UNL1       -0.2945
      4 H         -63.4821  -41.1107  -21.6151 H       1  UNL1        0.1501
      5 C         -61.8838  -42.4894  -23.3411 C.ar    1  UNL1        0.0808
      6 C         -62.6389  -41.8389  -24.3300 C.ar    1  UNL1        0.0080
      7 C         -63.0092  -42.5094  -25.4982 C.ar    1  UNL1        0.0148
      8 C         -62.6404  -43.8507  -25.7008 C.ar    1  UNL1        0.0502
      9 C         -61.9037  -44.5080  -24.7001 C.ar    1  UNL1        0.0443
     10 C         -61.5297  -43.8386  -23.5306 C.ar    1  UNL1        0.1457
     11 F         -60.8640  -44.5282  -22.5696 F       1  UNL1       -0.2040
     12 N         -63.0270  -44.5475  -26.9065 N.pl3   1  UNL1       -0.3040
     13 C         -63.6174  -43.7944  -28.0241 C.3     1  UNL1        0.1123
     14 C         -63.5402  -44.5784  -29.3377 C.3     1  UNL1        0.1136
     15 N         -64.0703  -45.9376  -29.1590 N.pl3   1  UNL1       -0.2897
     16 C         -63.7901  -46.6717  -27.9134 C.3     1  UNL1        0.1136
     17 C         -62.7176  -45.9753  -27.0684 C.3     1  UNL1        0.1123
     18 C         -64.7433  -46.5922  -30.2585 C.ar    1  UNL1        0.1318
     19 C         -65.0910  -45.8914  -31.4266 C.ar    1  UNL1        0.0343
     20 C         -65.7407  -46.5592  -32.4659 C.ar    1  UNL1        0.0083
     21 C         -66.0275  -47.9276  -32.3575 C.ar    1  UNL1        0.0906
     22 C         -65.6849  -48.5873  -31.1679 C.ar    1  UNL1        0.1041
     23 N         -65.0551  -47.9159  -30.1683 N.ar    1  UNL1       -0.2292
     24 C         -66.7731  -48.6481  -33.4519 C.3     1  UNL1        0.4200
     25 F         -65.9930  -48.7466  -34.5911 F       1  UNL1       -0.1658
     26 F         -67.1007  -49.9193  -33.0188 F       1  UNL1       -0.1658
     27 F         -67.9343  -47.9698  -33.7797 F       1  UNL1       -0.1658
     28 C         -62.1450  -40.0642  -20.2893 C.3     1  UNL1        0.1535
     29 C         -62.8780  -38.7559  -20.4616 C.2     1  UNL1        0.2443
     30 O         -62.9579  -38.2172  -21.5997 O.2     1  UNL1       -0.2730
     31 N         -63.4237  -38.0931  -19.3117 N.am    1  UNL1       -0.2821
     32 H         -63.0973  -38.4015  -18.3685 H       1  UNL1        0.1549
     33 C         -64.3673  -37.0118  -19.3972 C.ar    1  UNL1        0.0597
     34 C         -65.7073  -37.2586  -19.7403 C.ar    1  UNL1        0.0358
     35 C         -66.6153  -36.1996  -19.7880 C.ar    1  UNL1        0.1002
     36 N         -66.2069  -34.9377  -19.4946 N.ar    1  UNL1       -0.2417
     37 C         -64.9213  -34.6672  -19.1476 C.ar    1  UNL1        0.1068
     38 C         -63.9759  -35.6963  -19.0847 C.ar    1  UNL1        0.0671
     39 BR        -62.1689  -35.2620  -18.6169 Br      1  UNL1       -0.0461
     40 C         -62.3914  -40.7255  -18.9179 C.3     1  UNL1        0.0569
     41 C         -63.7151  -41.4355  -18.8827 C.ar    1  UNL1       -0.0017
     42 C         -64.8689  -41.0105  -18.2300 C.ar    1  UNL1        0.0681
     43 N         -65.8444  -41.9407  -18.3415 N.ar    1  UNL1       -0.3523
     44 C         -65.3135  -42.9528  -19.0495 C.ar    1  UNL1        0.0563
     45 C         -65.9315  -44.1511  -19.4047 C.ar    1  UNL1        0.0170
     46 C         -65.1779  -45.0880  -20.1354 C.ar    1  UNL1        0.0015
     47 C         -63.8382  -44.8110  -20.4876 C.ar    1  UNL1        0.0001
     48 C         -63.2398  -43.5939  -20.1136 C.ar    1  UNL1        0.0012
     49 C         -64.0138  -42.6831  -19.3941 C.ar    1  UNL1        0.0131
     50 H         -66.8081  -41.8865  -17.9431 H       1  UNL1        0.1660
@<TRIPOS>BOND
     1     1     2    2
     2     2     3   am
     3     3    28    1
     4    28    40    1
     5    40    41    1
     6    41    42   ar
     7    42    43   ar
     8    43    44   ar
     9    44    45   ar
    10    45    46   ar
    11    46    47   ar
    12    47    48   ar
    13    48    49   ar
    14    28    29    1
    15    29    30    2
    16    29    31   am
    17    31    33    1
    18    33    34   ar
    19    34    35   ar
    20    35    36   ar
    21    36    37   ar
    22    37    38   ar
    23    38    39    1
    24     2     5    1
    25     5     6   ar
    26     6     7   ar
    27     7     8   ar
    28     8    12    1
    29    12    13    1
    30    13    14    1
    31    14    15    1
    32    15    18    1
    33    18    19   ar
    34    19    20   ar
    35    20    21   ar
    36    21    24    1
    37    24    25    1
    38    24    26    1
    39    24    27    1
    40    21    22   ar
    41    22    23   ar
    42    15    16    1
    43    16    17    1
    44     8     9   ar
    45     9    10   ar
    46    10    11    1
    47    49    41   ar
    48    38    33   ar
    49    10     5   ar
    50    49    44   ar
    51    17    12    1
    52    23    18   ar
    53     3     4    1
    54    43    50    1
    55    31    32    1
