@<TRIPOS>MOLECULE
*****
 47 52 0 0 0
SMALL
GASTEIGER

@<TRIPOS>ATOM
      1 C         -25.8987   50.1889   -9.4960 C.ar    1  UNL1        0.0702
      2 C         -25.9345   48.8445   -9.0954 C.ar    1  UNL1        0.0191
      3 C         -26.9867   48.0211   -9.4997 C.ar    1  UNL1        0.0356
      4 C         -28.0204   48.5533  -10.2867 C.ar    1  UNL1        0.1318
      5 N         -27.9674   49.8633  -10.6557 N.ar    1  UNL1       -0.2279
      6 C         -26.9527   50.6831  -10.2740 C.ar    1  UNL1        0.1149
      7 N         -29.1106   47.7296  -10.7416 N.pl3   1  UNL1       -0.2932
      8 C         -28.9821   46.2687  -10.8378 C.3     1  UNL1        0.0923
      9 C         -29.4609   45.7678  -12.2110 C.3     1  UNL1        0.0252
     10 C         -30.6130   46.6195  -12.8113 C.3     1  UNL1        0.0472
     11 C         -31.3733   47.3936  -11.7189 C.3     1  UNL1        0.0252
     12 C         -30.4193   48.3527  -10.9903 C.3     1  UNL1        0.0923
     13 C         -31.5836   45.7508  -13.6340 C.3     1  UNL1        0.2054
     14 O         -30.9898   45.3453  -14.8687 O.3     1  UNL1       -0.4755
     15 C         -30.4246   46.2031  -15.8269 C.ar    1  UNL1        0.1388
     16 C         -30.2707   45.7211  -17.1281 C.ar    1  UNL1        0.0382
     17 C         -29.7172   46.5263  -18.1232 C.ar    1  UNL1        0.0174
     18 C         -29.3087   47.8370  -17.8385 C.ar    1  UNL1        0.0480
     19 N         -28.8131   48.6522  -18.9098 N.pl3   1  UNL1       -0.3568
     20 C         -29.4443   48.3363  -16.5196 C.ar    1  UNL1        0.0913
     21 C         -30.0142   47.5162  -15.5292 C.ar    1  UNL1        0.0446
     22 H         -28.7073   49.6856  -18.8176 H       1  UNL1        0.1424
     23 H         -28.6424   48.2384  -19.8534 H       1  UNL1        0.1424
     24 C         -28.9641   49.6826  -16.1336 C.2     1  UNL1        0.3393
     25 O         -29.1201   50.0964  -14.9544 O.2     1  UNL1       -0.2450
     26 O         -28.3731   50.5266  -17.0714 O.3     1  UNL1       -0.4771
     27 H         -28.1932   50.2236  -18.0210 H       1  UNL1        0.2954
     28 C         -23.7039   51.4063   -9.8883 C.2     1  UNL1        0.2839
     29 O         -23.5325   50.8550  -11.0083 O.2     1  UNL1       -0.2665
     30 N         -24.8479   51.0771   -9.0807 N.am    1  UNL1       -0.2766
     31 H         -24.9624   51.5468   -8.1564 H       1  UNL1        0.1553
     32 C         -23.7249   54.6225  -10.2617 C.3     1  UNL1        0.0345
     33 C         -22.7109   53.7656   -9.5662 C.ar    1  UNL1        0.0202
     34 C         -22.6942   52.3726   -9.4227 C.ar    1  UNL1        0.1946
     35 O         -21.5914   51.9961   -8.7995 O.2     1  UNL1       -0.4492
     36 C         -20.9045   53.0739   -8.5095 C.ar    1  UNL1        0.1452
     37 C         -19.6823   53.1463   -7.8502 C.ar    1  UNL1        0.0375
     38 C         -19.1173   54.4174   -7.6454 C.ar    1  UNL1        0.0031
     39 C         -19.7781   55.5907   -8.1006 C.ar    1  UNL1        0.0002
     40 C         -21.0207   55.4719   -8.7683 C.ar    1  UNL1        0.0028
     41 C         -21.5518   54.1952   -8.9519 C.ar    1  UNL1        0.0337
     42 C         -19.1718   56.9280   -7.8788 C.ar    1  UNL1        0.0000
     43 C         -18.3688   57.1714   -6.7484 C.ar    1  UNL1        0.0000
     44 C         -17.7982   58.4314   -6.5428 C.ar    1  UNL1        0.0000
     45 C         -18.0224   59.4606   -7.4599 C.ar    1  UNL1        0.0000
     46 C         -18.8174   59.2318   -8.5851 C.ar    1  UNL1        0.0000
     47 C         -19.3895   57.9736   -8.7963 C.ar    1  UNL1        0.0000
@<TRIPOS>BOND
     1    32    33    1
     2    33    34   ar
     3    34    28    1
     4    28    29    2
     5    28    30   am
     6    30     1    1
     7     1     2   ar
     8     2     3   ar
     9     3     4   ar
    10     4     7    1
    11     7     8    1
    12     8     9    1
    13     9    10    1
    14    10    13    1
    15    13    14    1
    16    14    15    1
    17    15    16   ar
    18    16    17   ar
    19    17    18   ar
    20    18    19    1
    21    18    20   ar
    22    20    24    1
    23    24    25    2
    24    24    26    1
    25    20    21   ar
    26    10    11    1
    27    11    12    1
    28     4     5   ar
    29     5     6   ar
    30    34    35   ar
    31    35    36   ar
    32    36    37   ar
    33    37    38   ar
    34    38    39   ar
    35    39    42    1
    36    42    43   ar
    37    43    44   ar
    38    44    45   ar
    39    45    46   ar
    40    46    47   ar
    41    39    40   ar
    42    40    41   ar
    43    41    33   ar
    44     6     1   ar
    45    41    36   ar
    46    12     7    1
    47    47    42   ar
    48    21    15   ar
    49    30    31    1
    50    19    22    1
    51    19    23    1
    52    26    27    1
@<TRIPOS>MOLECULE
*****
 47 52 0 0 0
SMALL
GASTEIGER

@<TRIPOS>ATOM
      1 C         -28.8811   50.2226   -6.3531 C.ar    1  UNL1        0.0702
      2 C         -29.3597   49.2354   -7.2281 C.ar    1  UNL1        0.0191
      3 C         -29.0254   49.2784   -8.5826 C.ar    1  UNL1        0.0356
      4 C         -28.2300   50.3289   -9.0674 C.ar    1  UNL1        0.1318
      5 N         -27.7846   51.2798   -8.1999 N.ar    1  UNL1       -0.2279
      6 C         -28.0973   51.2576   -6.8774 C.ar    1  UNL1        0.1149
      7 N         -27.8459   50.3947  -10.4538 N.pl3   1  UNL1       -0.2932
      8 C         -26.5878   49.8042  -10.9317 C.3     1  UNL1        0.0923
      9 C         -25.8044   50.8106  -11.7916 C.3     1  UNL1        0.0252
     10 C         -26.7168   51.7773  -12.5954 C.3     1  UNL1        0.0472
     11 C         -28.1270   51.1917  -12.7933 C.3     1  UNL1        0.0252
     12 C         -28.7945   50.9502  -11.4306 C.3     1  UNL1        0.0923
     13 C         -26.0879   52.1445  -13.9530 C.3     1  UNL1        0.2054
     14 O         -27.0160   51.9434  -15.0206 O.3     1  UNL1       -0.4755
     15 C         -26.9429   50.9289  -15.9897 C.ar    1  UNL1        0.1388
     16 C         -25.7417   50.7709  -16.6833 C.ar    1  UNL1        0.0382
     17 C         -25.6080   49.7805  -17.6561 C.ar    1  UNL1        0.0174
     18 C         -26.6748   48.9208  -17.9536 C.ar    1  UNL1        0.0480
     19 N         -26.4678   47.8707  -18.9087 N.pl3   1  UNL1       -0.3568
     20 C         -27.9054   49.0776  -17.2692 C.ar    1  UNL1        0.0913
     21 C         -28.0218   50.0739  -16.2833 C.ar    1  UNL1        0.0446
     22 H         -27.1313   47.0724  -19.0084 H       1  UNL1        0.1424
     23 H         -25.5829   47.8263  -19.4618 H       1  UNL1        0.1424
     24 C         -29.0944   48.2546  -17.5875 C.2     1  UNL1        0.3393
     25 O         -30.2401   48.6302  -17.2240 O.2     1  UNL1       -0.2450
     26 O         -28.9638   47.0378  -18.2534 O.3     1  UNL1       -0.4771
     27 H         -28.0682   46.7131  -18.5975 H       1  UNL1        0.2954
     28 C         -30.1624   49.3246   -4.3519 C.2     1  UNL1        0.2839
     29 O         -30.8024   48.5012   -5.0590 O.2     1  UNL1       -0.2665
     30 N         -29.2227   50.2301   -4.9572 N.am    1  UNL1       -0.2766
     31 H         -28.7093   50.9031   -4.3475 H       1  UNL1        0.1553
     32 C         -29.6181   46.9614   -2.2065 C.3     1  UNL1        0.0345
     33 C         -30.1672   48.3356   -1.9691 C.ar    1  UNL1        0.0202
     34 C         -30.4198   49.3494   -2.9017 C.ar    1  UNL1        0.1946
     35 O         -30.9676   50.3905   -2.2997 O.2     1  UNL1       -0.4492
     36 C         -31.0602   50.1142   -1.0219 C.ar    1  UNL1        0.1452
     37 C         -31.5712   50.9266   -0.0156 C.ar    1  UNL1        0.0375
     38 C         -31.5776   50.4250    1.2979 C.ar    1  UNL1        0.0031
     39 C         -31.0766   49.1260    1.5845 C.ar    1  UNL1        0.0002
     40 C         -30.5660   48.3315    0.5301 C.ar    1  UNL1        0.0028
     41 C         -30.5739   48.8625   -0.7598 C.ar    1  UNL1        0.0337
     42 C         -31.0885   48.6067    2.9757 C.ar    1  UNL1        0.0000
     43 C         -30.6280   49.4032    4.0413 C.ar    1  UNL1        0.0000
     44 C         -30.6415   48.9119    5.3503 C.ar    1  UNL1        0.0000
     45 C         -31.1127   47.6232    5.6106 C.ar    1  UNL1        0.0000
     46 C         -31.5720   46.8229    4.5622 C.ar    1  UNL1        0.0000
     47 C         -31.5617   47.3095    3.2513 C.ar    1  UNL1        0.0000
@<TRIPOS>BOND
     1    32    33    1
     2    33    34   ar
     3    34    28    1
     4    28    29    2
     5    28    30   am
     6    30     1    1
     7     1     2   ar
     8     2     3   ar
     9     3     4   ar
    10     4     7    1
    11     7     8    1
    12     8     9    1
    13     9    10    1
    14    10    13    1
    15    13    14    1
    16    14    15    1
    17    15    16   ar
    18    16    17   ar
    19    17    18   ar
    20    18    19    1
    21    18    20   ar
    22    20    24    1
    23    24    25    2
    24    24    26    1
    25    20    21   ar
    26    10    11    1
    27    11    12    1
    28     4     5   ar
    29     5     6   ar
    30    34    35   ar
    31    35    36   ar
    32    36    37   ar
    33    37    38   ar
    34    38    39   ar
    35    39    42    1
    36    42    43   ar
    37    43    44   ar
    38    44    45   ar
    39    45    46   ar
    40    46    47   ar
    41    39    40   ar
    42    40    41   ar
    43    41    33   ar
    44     6     1   ar
    45    41    36   ar
    46    12     7    1
    47    47    42   ar
    48    21    15   ar
    49    30    31    1
    50    19    22    1
    51    19    23    1
    52    26    27    1
@<TRIPOS>MOLECULE
*****
 47 52 0 0 0
SMALL
GASTEIGER

@<TRIPOS>ATOM
      1 C         -25.2074   50.2924   -9.0960 C.ar    1  UNL1        0.0702
      2 C         -25.8583   50.3083  -10.3392 C.ar    1  UNL1        0.0191
      3 C         -26.7773   49.3083  -10.6613 C.ar    1  UNL1        0.0356
      4 C         -27.0259   48.2739   -9.7451 C.ar    1  UNL1        0.1318
      5 N         -26.3754   48.2759   -8.5485 N.ar    1  UNL1       -0.2279
      6 C         -25.4771   49.2394   -8.2136 C.ar    1  UNL1        0.1149
      7 N         -27.9834   47.2374  -10.0327 N.pl3   1  UNL1       -0.2932
      8 C         -29.3485   47.5535  -10.4763 C.3     1  UNL1        0.0923
      9 C         -30.3855   46.7771   -9.6470 C.3     1  UNL1        0.0252
     10 C         -29.8828   45.3842   -9.1778 C.3     1  UNL1        0.0472
     11 C         -28.7367   44.8670  -10.0665 C.3     1  UNL1        0.0252
     12 C         -27.5443   45.8341  -10.0064 C.3     1  UNL1        0.0923
     13 C         -31.0327   44.3601   -9.1271 C.3     1  UNL1        0.2054
     14 O         -31.5832   44.2703   -7.8117 O.3     1  UNL1       -0.4755
     15 C         -30.8918   44.5223   -6.6150 C.ar    1  UNL1        0.1388
     16 C         -31.4861   44.1194   -5.4177 C.ar    1  UNL1        0.0382
     17 C         -30.8476   44.3411   -4.1978 C.ar    1  UNL1        0.0174
     18 C         -29.5946   44.9683   -4.1494 C.ar    1  UNL1        0.0480
     19 N         -28.9431   45.1090   -2.8790 N.pl3   1  UNL1       -0.3568
     20 C         -28.9846   45.3966   -5.3543 C.ar    1  UNL1        0.0913
     21 C         -29.6358   45.1566   -6.5776 C.ar    1  UNL1        0.0446
     22 H         -27.9330   45.3547   -2.7975 H       1  UNL1        0.1424
     23 H         -29.4463   44.8640   -1.9972 H       1  UNL1        0.1424
     24 C         -27.6997   46.1320   -5.3688 C.2     1  UNL1        0.3393
     25 O         -27.0757   46.2951   -6.4505 O.2     1  UNL1       -0.2450
     26 O         -27.1404   46.6169   -4.1884 O.3     1  UNL1       -0.4771
     27 H         -27.6231   46.5423   -3.3012 H       1  UNL1        0.2954
     28 C         -23.1056   51.6446   -9.5508 C.2     1  UNL1        0.2839
     29 O         -22.8720   51.0273  -10.6241 O.2     1  UNL1       -0.2665
     30 N         -24.2355   51.2877   -8.7352 N.am    1  UNL1       -0.2766
     31 H         -24.4026   51.8139   -7.8502 H       1  UNL1        0.1553
     32 C         -23.3234   54.8023  -10.2327 C.3     1  UNL1        0.0345
     33 C         -22.2842   54.0870   -9.4236 C.ar    1  UNL1        0.0202
     34 C         -22.1815   52.7181   -9.1461 C.ar    1  UNL1        0.1946
     35 O         -21.0825   52.4793   -8.4523 O.2     1  UNL1       -0.4492
     36 C         -20.4806   53.6247   -8.2441 C.ar    1  UNL1        0.1452
     37 C         -19.2936   53.8434   -7.5534 C.ar    1  UNL1        0.0375
     38 C         -18.8225   55.1643   -7.4528 C.ar    1  UNL1        0.0031
     39 C         -19.5402   56.2409   -8.0412 C.ar    1  UNL1        0.0002
     40 C         -20.7441   55.9739   -8.7364 C.ar    1  UNL1        0.0028
     41 C         -21.1819   54.6518   -8.8143 C.ar    1  UNL1        0.0337
     42 C         -19.0330   57.6320   -7.9286 C.ar    1  UNL1        0.0000
     43 C         -19.2916   58.5728   -8.9437 C.ar    1  UNL1        0.0000
     44 C         -18.8136   59.8823   -8.8343 C.ar    1  UNL1        0.0000
     45 C         -18.0734   60.2671   -7.7143 C.ar    1  UNL1        0.0000
     46 C         -17.8099   59.3433   -6.7006 C.ar    1  UNL1        0.0000
     47 C         -18.2863   58.0327   -6.8042 C.ar    1  UNL1        0.0000
@<TRIPOS>BOND
     1    32    33    1
     2    33    34   ar
     3    34    28    1
     4    28    29    2
     5    28    30   am
     6    30     1    1
     7     1     2   ar
     8     2     3   ar
     9     3     4   ar
    10     4     7    1
    11     7     8    1
    12     8     9    1
    13     9    10    1
    14    10    13    1
    15    13    14    1
    16    14    15    1
    17    15    16   ar
    18    16    17   ar
    19    17    18   ar
    20    18    19    1
    21    18    20   ar
    22    20    24    1
    23    24    25    2
    24    24    26    1
    25    20    21   ar
    26    10    11    1
    27    11    12    1
    28     4     5   ar
    29     5     6   ar
    30    34    35   ar
    31    35    36   ar
    32    36    37   ar
    33    37    38   ar
    34    38    39   ar
    35    39    42    1
    36    42    43   ar
    37    43    44   ar
    38    44    45   ar
    39    45    46   ar
    40    46    47   ar
    41    39    40   ar
    42    40    41   ar
    43    41    33   ar
    44     6     1   ar
    45    41    36   ar
    46    12     7    1
    47    47    42   ar
    48    21    15   ar
    49    30    31    1
    50    19    22    1
    51    19    23    1
    52    26    27    1
