@<TRIPOS>MOLECULE
*****
 37 41 0 0 0
SMALL
GASTEIGER

@<TRIPOS>ATOM
      1 C         -30.1352   48.7955  -10.0730 C.ar    1  UNL1        0.1317
      2 C         -31.2959   48.7177   -9.2774 C.ar    1  UNL1        0.0286
      3 C         -31.3203   49.2945   -7.9946 C.ar    1  UNL1        0.0777
      4 C         -30.1828   49.9551   -7.5112 C.ar    1  UNL1        0.2969
      5 N         -29.0834   50.0114   -8.3071 N.ar    1  UNL1       -0.1229
      6 C         -27.8954   50.6056   -8.1047 C.ar    1  UNL1        0.2751
      7 I         -27.4130   51.7906   -6.4117 I       1  UNL1        0.0389
      8 C         -27.1404   50.3980   -9.2583 C.ar    1  UNL1        0.1314
      9 N         -27.8616   49.6949  -10.1645 N.ar    1  UNL1       -0.2939
     10 C         -29.0329   49.4711   -9.5366 C.ar    1  UNL1        0.3125
     11 H         -27.5931   49.4137  -11.0690 H       1  UNL1        0.1718
     12 N         -30.3184   47.0082  -13.9335 N.3     1  UNL1       -0.2647
     13 C         -30.2130   46.1698  -12.7208 C.3     1  UNL1        0.0941
     14 C         -29.4667   46.9185  -11.6131 C.3     1  UNL1        0.1084
     15 N         -30.0922   48.2240  -11.3919 N.pl3   1  UNL1       -0.2988
     16 C         -30.3483   49.0627  -12.5652 C.3     1  UNL1        0.1084
     17 C         -31.0758   48.2433  -13.6313 C.3     1  UNL1        0.0941
     18 C         -30.9750   46.2451  -15.0144 C.3     1  UNL1        0.1199
     19 C         -29.3385   47.4815  -17.9505 C.ar    1  UNL1        0.1165
     20 N         -29.8451   47.7025  -16.7174 N.ar    1  UNL1       -0.2344
     21 C         -30.2857   46.4899  -16.3253 C.ar    1  UNL1        0.0878
     22 C         -30.0546   45.5691  -17.3294 C.ar    1  UNL1        0.0499
     23 C         -30.4182   44.1183  -17.3268 C.3     1  UNL1        0.0511
     24 N         -29.4606   46.2010  -18.3538 N.ar    1  UNL1       -0.3443
     25 H         -29.1716   45.7939  -19.2714 H       1  UNL1        0.1668
     26 C         -27.2806   48.7018  -18.6121 C.3     1  UNL1        0.0084
     27 C         -28.7852   48.5705  -18.8152 C.3     1  UNL1        0.0637
     28 C         -25.7721   50.8813   -9.5333 C.ar    1  UNL1        0.0221
     29 C         -24.8284   51.0126   -8.5067 C.ar    1  UNL1        0.0013
     30 C         -23.5308   51.4515   -8.7842 C.ar    1  UNL1       -0.0042
     31 C         -23.1342   51.7622  -10.1061 C.ar    1  UNL1       -0.0228
     32 C         -24.0912   51.5997  -11.1322 C.ar    1  UNL1       -0.0042
     33 C         -25.3863   51.1596  -10.8500 C.ar    1  UNL1        0.0013
     34 C         -21.7140   52.2509  -10.4591 C.3     1  UNL1        0.0189
     35 C         -21.0063   52.7457   -9.1788 C.3     1  UNL1        0.0044
     36 C         -21.8066   53.4104  -11.4746 C.3     1  UNL1        0.0044
     37 C         -20.8303   51.1456  -11.0861 C.3     1  UNL1        0.0044
@<TRIPOS>BOND
     1    26    27    1
     2    27    19    1
     3    19    20   ar
     4    20    21   ar
     5    21    18    1
     6    18    12    1
     7    12    13    1
     8    13    14    1
     9    14    15    1
    10    15     1    1
    11     1     2   ar
    12     2     3   ar
    13     3     4   ar
    14     4     5   ar
    15     5     6   ar
    16     6     7    1
    17     6     8   ar
    18     8    28    1
    19    28    29   ar
    20    29    30   ar
    21    30    31   ar
    22    31    34    1
    23    34    35    1
    24    34    36    1
    25    34    37    1
    26    31    32   ar
    27    32    33   ar
    28     8     9   ar
    29     9    10   ar
    30    15    16    1
    31    16    17    1
    32    21    22   ar
    33    22    23    1
    34    22    24   ar
    35    24    19   ar
    36    17    12    1
    37    10     1   ar
    38    10     5   ar
    39    33    28   ar
    40    24    25    1
    41     9    11    1
@<TRIPOS>MOLECULE
*****
 37 41 0 0 0
SMALL
GASTEIGER

@<TRIPOS>ATOM
      1 C         -29.3928   48.5152   -7.2307 C.ar    1  UNL1        0.1317
      2 C         -30.7687   48.3526   -7.4886 C.ar    1  UNL1        0.0286
      3 C         -31.3605   48.9634   -8.6091 C.ar    1  UNL1        0.0777
      4 C         -30.5718   49.7325   -9.4752 C.ar    1  UNL1        0.2969
      5 N         -29.2491   49.8652   -9.1953 N.ar    1  UNL1       -0.1229
      6 C         -28.2794   50.5048   -9.8706 C.ar    1  UNL1        0.2751
      7 I         -28.5461   51.4623  -11.7454 I       1  UNL1        0.0389
      8 C         -27.0928   50.2890   -9.1709 C.ar    1  UNL1        0.1314
      9 N         -27.3291   49.5145   -8.0846 N.ar    1  UNL1       -0.2939
     10 C         -28.6574   49.2918   -8.1336 C.ar    1  UNL1        0.3125
     11 H         -26.6825   49.1905   -7.4166 H       1  UNL1        0.1718
     12 N         -27.8322   46.5804   -3.7734 N.3     1  UNL1       -0.2647
     13 C         -28.4965   47.8962   -3.6635 C.3     1  UNL1        0.0941
     14 C         -28.3232   48.6955   -4.9579 C.3     1  UNL1        0.1084
     15 N         -28.7646   47.8897   -6.0983 N.pl3   1  UNL1       -0.2988
     16 C         -28.2476   46.5235   -6.2061 C.3     1  UNL1        0.1084
     17 C         -28.4373   45.7976   -4.8741 C.3     1  UNL1        0.0941
     18 C         -27.9459   45.8533   -2.4927 C.3     1  UNL1        0.1199
     19 C         -30.1423   47.6331   -0.2938 C.ar    1  UNL1        0.1165
     20 N         -28.9308   47.5036   -0.8780 N.ar    1  UNL1       -0.2344
     21 C         -29.0642   46.4168   -1.6649 C.ar    1  UNL1        0.0878
     22 C         -30.3398   45.9033   -1.5285 C.ar    1  UNL1        0.0499
     23 C         -30.8998   44.6852   -2.1917 C.3     1  UNL1        0.0511
     24 N         -31.0143   46.6721   -0.6592 N.ar    1  UNL1       -0.3443
     25 H         -31.9955   46.5443   -0.3244 H       1  UNL1        0.1668
     26 C         -29.8775   48.2929    2.0846 C.3     1  UNL1        0.0084
     27 C         -30.4505   48.6829    0.7274 C.3     1  UNL1        0.0637
     28 C         -25.7417   50.7666   -9.5284 C.ar    1  UNL1        0.0221
     29 C         -25.3654   50.9467  -10.8654 C.ar    1  UNL1        0.0013
     30 C         -24.0904   51.4190  -11.1888 C.ar    1  UNL1       -0.0042
     31 C         -23.1537   51.7378  -10.1777 C.ar    1  UNL1       -0.0228
     32 C         -23.5590   51.5741   -8.8345 C.ar    1  UNL1       -0.0042
     33 C         -24.8347   51.1030   -8.5164 C.ar    1  UNL1        0.0013
     34 C         -21.7357   52.2606  -10.4874 C.3     1  UNL1        0.0189
     35 C         -21.0567   52.7157   -9.1771 C.3     1  UNL1        0.0044
     36 C         -21.8294   53.4573  -11.4588 C.3     1  UNL1        0.0044
     37 C         -20.8248   51.1937  -11.1415 C.3     1  UNL1        0.0044
@<TRIPOS>BOND
     1    26    27    1
     2    27    19    1
     3    19    20   ar
     4    20    21   ar
     5    21    18    1
     6    18    12    1
     7    12    13    1
     8    13    14    1
     9    14    15    1
    10    15     1    1
    11     1     2   ar
    12     2     3   ar
    13     3     4   ar
    14     4     5   ar
    15     5     6   ar
    16     6     7    1
    17     6     8   ar
    18     8    28    1
    19    28    29   ar
    20    29    30   ar
    21    30    31   ar
    22    31    34    1
    23    34    35    1
    24    34    36    1
    25    34    37    1
    26    31    32   ar
    27    32    33   ar
    28     8     9   ar
    29     9    10   ar
    30    15    16    1
    31    16    17    1
    32    21    22   ar
    33    22    23    1
    34    22    24   ar
    35    24    19   ar
    36    17    12    1
    37    10     1   ar
    38    10     5   ar
    39    33    28   ar
    40    24    25    1
    41     9    11    1
@<TRIPOS>MOLECULE
*****
 37 41 0 0 0
SMALL
GASTEIGER

@<TRIPOS>ATOM
      1 C         -28.9972   50.1732   -8.5176 C.ar    1  UNL1        0.1317
      2 C         -30.2592   49.9618   -9.1083 C.ar    1  UNL1        0.0286
      3 C         -30.4534   50.2056  -10.4801 C.ar    1  UNL1        0.0777
      4 C         -29.3808   50.6556  -11.2616 C.ar    1  UNL1        0.2969
      5 N         -28.1790   50.8462  -10.6577 N.ar    1  UNL1       -0.1229
      6 C         -26.9994   51.2291  -11.1748 C.ar    1  UNL1        0.2751
      7 I         -26.6396   51.5637  -13.2391 I       1  UNL1        0.0389
      8 C         -26.0795   51.2206  -10.1270 C.ar    1  UNL1        0.1314
      9 N         -26.6848   50.8244   -8.9814 N.ar    1  UNL1       -0.2939
     10 C         -27.9647   50.6197   -9.3504 C.ar    1  UNL1        0.3125
     11 H         -26.2839   50.7124   -8.0893 H       1  UNL1        0.1718
     12 N         -28.0131   49.4617   -4.4362 N.3     1  UNL1       -0.2647
     13 C         -27.7413   48.4361   -5.4653 C.3     1  UNL1        0.0941
     14 C         -28.7497   48.5451   -6.6122 C.3     1  UNL1        0.1084
     15 N         -28.7730   49.9185   -7.1201 N.pl3   1  UNL1       -0.2988
     16 C         -28.9104   51.0020   -6.1440 C.3     1  UNL1        0.1084
     17 C         -27.8875   50.8145   -5.0235 C.3     1  UNL1        0.0941
     18 C         -27.0788   49.2957   -3.3044 C.3     1  UNL1        0.1199
     19 C         -26.8063   45.8830   -2.2524 C.ar    1  UNL1        0.1165
     20 N         -26.2903   46.9458   -2.9084 N.ar    1  UNL1       -0.2344
     21 C         -27.2028   47.9200   -2.7169 C.ar    1  UNL1        0.0878
     22 C         -28.2542   47.4255   -1.9688 C.ar    1  UNL1        0.0499
     23 C         -29.4931   48.1556   -1.5574 C.3     1  UNL1        0.0511
     24 N         -28.0008   46.1390   -1.6821 N.ar    1  UNL1       -0.3443
     25 H         -28.6051   45.4746   -1.1485 H       1  UNL1        0.1668
     26 C         -25.7672   44.1192   -3.6564 C.3     1  UNL1        0.0084
     27 C         -26.1590   44.5337   -2.2432 C.3     1  UNL1        0.0637
     28 C         -24.6394   51.5414  -10.1957 C.ar    1  UNL1        0.0221
     29 C         -24.0382   51.9273  -11.4003 C.ar    1  UNL1        0.0013
     30 C         -22.6787   52.2481  -11.4469 C.ar    1  UNL1       -0.0042
     31 C         -21.8795   52.2033  -10.2804 C.ar    1  UNL1       -0.0228
     32 C         -22.5080   51.8367   -9.0698 C.ar    1  UNL1       -0.0042
     33 C         -23.8672   51.5182   -9.0282 C.ar    1  UNL1        0.0013
     34 C         -20.3756   52.5476  -10.2844 C.3     1  UNL1        0.0189
     35 C         -20.1875   54.0299  -10.6747 C.3     1  UNL1        0.0044
     36 C         -19.6454   51.6512  -11.3079 C.3     1  UNL1        0.0044
     37 C         -19.7009   52.3360   -8.9076 C.3     1  UNL1        0.0044
@<TRIPOS>BOND
     1    26    27    1
     2    27    19    1
     3    19    20   ar
     4    20    21   ar
     5    21    18    1
     6    18    12    1
     7    12    13    1
     8    13    14    1
     9    14    15    1
    10    15     1    1
    11     1     2   ar
    12     2     3   ar
    13     3     4   ar
    14     4     5   ar
    15     5     6   ar
    16     6     7    1
    17     6     8   ar
    18     8    28    1
    19    28    29   ar
    20    29    30   ar
    21    30    31   ar
    22    31    34    1
    23    34    35    1
    24    34    36    1
    25    34    37    1
    26    31    32   ar
    27    32    33   ar
    28     8     9   ar
    29     9    10   ar
    30    15    16    1
    31    16    17    1
    32    21    22   ar
    33    22    23    1
    34    22    24   ar
    35    24    19   ar
    36    17    12    1
    37    10     1   ar
    38    10     5   ar
    39    33    28   ar
    40    24    25    1
    41     9    11    1
@<TRIPOS>MOLECULE
*****
 37 41 0 0 0
SMALL
GASTEIGER

@<TRIPOS>ATOM
      1 C         -29.1454   50.0321   -8.3372 C.ar    1  UNL1        0.1317
      2 C         -30.4225   49.8384   -8.9010 C.ar    1  UNL1        0.0286
      3 C         -30.6492   50.1120  -10.2622 C.ar    1  UNL1        0.0777
      4 C         -29.5940   50.5741  -11.0602 C.ar    1  UNL1        0.2969
      5 N         -28.3769   50.7470  -10.4823 N.ar    1  UNL1       -0.1229
      6 C         -27.2086   51.1359  -11.0200 C.ar    1  UNL1        0.2751
      7 I         -26.8981   51.5127  -13.0851 I       1  UNL1        0.0389
      8 C         -26.2633   51.1015   -9.9957 C.ar    1  UNL1        0.1314
      9 N         -26.8421   50.6836   -8.8441 N.ar    1  UNL1       -0.2939
     10 C         -28.1317   50.4920   -9.1857 C.ar    1  UNL1        0.3125
     11 H         -26.4200   50.5510   -7.9647 H       1  UNL1        0.1718
     12 N         -28.0729   49.1246   -4.3175 N.3     1  UNL1       -0.2647
     13 C         -28.2350   48.0456   -5.3147 C.3     1  UNL1        0.0941
     14 C         -29.2561   48.4489   -6.3819 C.3     1  UNL1        0.1084
     15 N         -28.8881   49.7470   -6.9514 N.pl3   1  UNL1       -0.2988
     16 C         -28.5855   50.8367   -6.0205 C.3     1  UNL1        0.1084
     17 C         -27.5781   50.3538   -4.9769 C.3     1  UNL1        0.0941
     18 C         -27.1412   48.6906   -3.2568 C.3     1  UNL1        0.1199
     19 C         -28.9782   46.3464   -1.2675 C.ar    1  UNL1        0.1165
     20 N         -28.8699   47.5755   -1.8185 N.ar    1  UNL1       -0.2344
     21 C         -27.7090   47.5236   -2.5025 C.ar    1  UNL1        0.0878
     22 C         -27.1330   46.2782   -2.3383 C.ar    1  UNL1        0.0499
     23 C         -25.8270   45.8059   -2.8935 C.3     1  UNL1        0.0511
     24 N         -27.9359   45.5411   -1.5551 N.ar    1  UNL1       -0.3443
     25 H         -27.7796   44.5624   -1.2248 H       1  UNL1        0.1668
     26 C         -30.3240   47.0286    0.7036 C.3     1  UNL1        0.0084
     27 C         -30.0968   45.9548   -0.3536 C.3     1  UNL1        0.0637
     28 C         -24.8239   51.4178  -10.0930 C.ar    1  UNL1        0.0221
     29 C         -24.2274   51.7146  -11.3250 C.ar    1  UNL1        0.0013
     30 C         -22.8685   52.0325  -11.4000 C.ar    1  UNL1       -0.0042
     31 C         -22.0651   52.0743  -10.2363 C.ar    1  UNL1       -0.0228
     32 C         -22.6888   51.7972   -8.9997 C.ar    1  UNL1       -0.0042
     33 C         -24.0475   51.4813   -8.9299 C.ar    1  UNL1        0.0013
     34 C         -20.5617   52.4189  -10.2711 C.3     1  UNL1        0.0189
     35 C         -19.9923   52.3866   -8.8360 C.3     1  UNL1        0.0044
     36 C         -20.3712   53.8308  -10.8667 C.3     1  UNL1        0.0044
     37 C         -19.7324   51.4313  -11.1270 C.3     1  UNL1        0.0044
@<TRIPOS>BOND
     1    26    27    1
     2    27    19    1
     3    19    20   ar
     4    20    21   ar
     5    21    18    1
     6    18    12    1
     7    12    13    1
     8    13    14    1
     9    14    15    1
    10    15     1    1
    11     1     2   ar
    12     2     3   ar
    13     3     4   ar
    14     4     5   ar
    15     5     6   ar
    16     6     7    1
    17     6     8   ar
    18     8    28    1
    19    28    29   ar
    20    29    30   ar
    21    30    31   ar
    22    31    34    1
    23    34    35    1
    24    34    36    1
    25    34    37    1
    26    31    32   ar
    27    32    33   ar
    28     8     9   ar
    29     9    10   ar
    30    15    16    1
    31    16    17    1
    32    21    22   ar
    33    22    23    1
    34    22    24   ar
    35    24    19   ar
    36    17    12    1
    37    10     1   ar
    38    10     5   ar
    39    33    28   ar
    40    24    25    1
    41     9    11    1
@<TRIPOS>MOLECULE
*****
 37 41 0 0 0
SMALL
GASTEIGER

@<TRIPOS>ATOM
      1 C         -30.2654   48.5345   -8.4189 C.ar    1  UNL1        0.1317
      2 C         -31.2650   48.3668   -7.4397 C.ar    1  UNL1        0.0286
      3 C         -31.0820   48.8748   -6.1407 C.ar    1  UNL1        0.0777
      4 C         -29.8993   49.5566   -5.8245 C.ar    1  UNL1        0.2969
      5 N         -28.9593   49.7003   -6.7948 N.ar    1  UNL1       -0.1229
      6 C         -27.7741   50.3325   -6.7675 C.ar    1  UNL1        0.2751
      7 I         -27.0400   51.4473   -5.1178 I       1  UNL1        0.0389
      8 C         -27.2273   50.2170   -8.0449 C.ar    1  UNL1        0.1314
      9 N         -28.0736   49.5322   -8.8515 N.ar    1  UNL1       -0.2939
     10 C         -29.1084   49.2271   -8.0438 C.ar    1  UNL1        0.3125
     11 H         -27.9594   49.3098   -9.8037 H       1  UNL1        0.1718
     12 N         -30.4777   46.9133  -12.3507 N.3     1  UNL1       -0.2647
     13 C         -29.6077   48.0727  -12.0611 C.3     1  UNL1        0.0941
     14 C         -30.1825   48.9014  -10.9091 C.3     1  UNL1        0.1084
     15 N         -30.4366   48.0346   -9.7564 N.pl3   1  UNL1       -0.2988
     16 C         -31.1849   46.7969   -9.9884 C.3     1  UNL1        0.1084
     17 C         -30.5661   46.0366  -11.1615 C.3     1  UNL1        0.0941
     18 C         -29.9485   46.1673  -13.5104 C.3     1  UNL1        0.1199
     19 C         -30.7365   48.4284  -16.1738 C.ar    1  UNL1        0.1165
     20 N         -30.4017   48.2205  -14.8812 N.ar    1  UNL1       -0.2344
     21 C         -30.2761   46.8811  -14.7896 C.ar    1  UNL1        0.0878
     22 C         -30.5528   46.3077  -16.0160 C.ar    1  UNL1        0.0499
     23 C         -30.5658   44.8498  -16.3501 C.3     1  UNL1        0.0511
     24 N         -30.8466   47.2880  -16.8845 N.ar    1  UNL1       -0.3443
     25 H         -31.1189   47.1891  -17.8881 H       1  UNL1        0.1668
     26 C         -30.7306   49.8308  -18.2220 C.3     1  UNL1        0.0084
     27 C         -31.0455   49.7822  -16.7317 C.3     1  UNL1        0.0637
     28 C         -25.9450   50.7710   -8.5247 C.ar    1  UNL1        0.0221
     29 C         -24.7437   50.5057   -7.8555 C.ar    1  UNL1        0.0013
     30 C         -23.5345   51.0193   -8.3323 C.ar    1  UNL1       -0.0042
     31 C         -23.4907   51.8081   -9.5059 C.ar    1  UNL1       -0.0228
     32 C         -24.7081   52.0444  -10.1819 C.ar    1  UNL1       -0.0042
     33 C         -25.9137   51.5278   -9.7021 C.ar    1  UNL1        0.0013
     34 C         -22.1801   52.3967  -10.0683 C.3     1  UNL1        0.0189
     35 C         -21.1951   52.6621   -8.9088 C.3     1  UNL1        0.0044
     36 C         -22.4834   53.7237  -10.7973 C.3     1  UNL1        0.0044
     37 C         -21.4757   51.4564  -11.0759 C.3     1  UNL1        0.0044
@<TRIPOS>BOND
     1    26    27    1
     2    27    19    1
     3    19    20   ar
     4    20    21   ar
     5    21    18    1
     6    18    12    1
     7    12    13    1
     8    13    14    1
     9    14    15    1
    10    15     1    1
    11     1     2   ar
    12     2     3   ar
    13     3     4   ar
    14     4     5   ar
    15     5     6   ar
    16     6     7    1
    17     6     8   ar
    18     8    28    1
    19    28    29   ar
    20    29    30   ar
    21    30    31   ar
    22    31    34    1
    23    34    35    1
    24    34    36    1
    25    34    37    1
    26    31    32   ar
    27    32    33   ar
    28     8     9   ar
    29     9    10   ar
    30    15    16    1
    31    16    17    1
    32    21    22   ar
    33    22    23    1
    34    22    24   ar
    35    24    19   ar
    36    17    12    1
    37    10     1   ar
    38    10     5   ar
    39    33    28   ar
    40    24    25    1
    41     9    11    1
@<TRIPOS>MOLECULE
*****
 37 41 0 0 0
SMALL
GASTEIGER

@<TRIPOS>ATOM
      1 C         -29.6722   47.6590   -8.6041 C.ar    1  UNL1        0.1317
      2 C         -31.0284   47.5609   -8.9747 C.ar    1  UNL1        0.0286
      3 C         -31.5821   48.4669   -9.8975 C.ar    1  UNL1        0.0777
      4 C         -30.7747   49.4681  -10.4539 C.ar    1  UNL1        0.2969
      5 N         -29.4718   49.5304  -10.0741 N.ar    1  UNL1       -0.1229
      6 C         -28.4894   50.3539  -10.4764 C.ar    1  UNL1        0.2751
      7 I         -28.6916   51.8183  -11.9989 I       1  UNL1        0.0389
      8 C         -27.3329   49.9576   -9.8061 C.ar    1  UNL1        0.1314
      9 N         -27.5994   48.8939   -9.0103 N.ar    1  UNL1       -0.2939
     10 C         -28.9164   48.6774   -9.1965 C.ar    1  UNL1        0.3125
     11 H         -26.9772   48.3962   -8.4320 H       1  UNL1        0.1718
     12 N         -28.1347   45.0395   -5.6198 N.3     1  UNL1       -0.2647
     13 C         -27.8098   46.4812   -5.5949 C.3     1  UNL1        0.0941
     14 C         -27.8148   47.0578   -7.0133 C.3     1  UNL1        0.1084
     15 N         -29.0823   46.7360   -7.6724 N.pl3   1  UNL1       -0.2988
     16 C         -29.5374   45.3444   -7.6282 C.3     1  UNL1        0.1084
     17 C         -29.4859   44.8343   -6.1880 C.3     1  UNL1        0.0941
     18 C         -28.0535   44.4840   -4.2536 C.3     1  UNL1        0.1199
     19 C         -28.5194   47.1813   -1.9440 C.ar    1  UNL1        0.1165
     20 N         -29.0428   46.2696   -2.7929 N.ar    1  UNL1       -0.2344
     21 C         -27.9686   45.5884   -3.2405 C.ar    1  UNL1        0.0878
     22 C         -26.8226   46.1097   -2.6709 C.ar    1  UNL1        0.0499
     23 C         -25.4125   45.6763   -2.9179 C.3     1  UNL1        0.0511
     24 N         -27.1756   47.1170   -1.8570 N.ar    1  UNL1       -0.3443
     25 H         -26.5457   47.7299   -1.2925 H       1  UNL1        0.1668
     26 C         -30.7982   47.7727   -1.1570 C.3     1  UNL1        0.0084
     27 C         -29.3434   48.2176   -1.2461 C.3     1  UNL1        0.0637
     28 C         -25.9805   50.5379   -9.9316 C.ar    1  UNL1        0.0221
     29 C         -25.4183   50.8045  -11.1863 C.ar    1  UNL1        0.0013
     30 C         -24.1458   51.3730  -11.2902 C.ar    1  UNL1       -0.0042
     31 C         -23.3995   51.7039  -10.1348 C.ar    1  UNL1       -0.0228
     32 C         -23.9923   51.4515   -8.8779 C.ar    1  UNL1       -0.0042
     33 C         -25.2648   50.8845   -8.7793 C.ar    1  UNL1        0.0013
     34 C         -21.9916   52.3314  -10.2011 C.3     1  UNL1        0.0189
     35 C         -21.0745   51.4483  -11.0753 C.3     1  UNL1        0.0044
     36 C         -21.4039   52.4281   -8.7765 C.3     1  UNL1        0.0044
     37 C         -21.9897   53.7550  -10.8087 C.3     1  UNL1        0.0044
@<TRIPOS>BOND
     1    26    27    1
     2    27    19    1
     3    19    20   ar
     4    20    21   ar
     5    21    18    1
     6    18    12    1
     7    12    13    1
     8    13    14    1
     9    14    15    1
    10    15     1    1
    11     1     2   ar
    12     2     3   ar
    13     3     4   ar
    14     4     5   ar
    15     5     6   ar
    16     6     7    1
    17     6     8   ar
    18     8    28    1
    19    28    29   ar
    20    29    30   ar
    21    30    31   ar
    22    31    34    1
    23    34    35    1
    24    34    36    1
    25    34    37    1
    26    31    32   ar
    27    32    33   ar
    28     8     9   ar
    29     9    10   ar
    30    15    16    1
    31    16    17    1
    32    21    22   ar
    33    22    23    1
    34    22    24   ar
    35    24    19   ar
    36    17    12    1
    37    10     1   ar
    38    10     5   ar
    39    33    28   ar
    40    24    25    1
    41     9    11    1
@<TRIPOS>MOLECULE
*****
 37 41 0 0 0
SMALL
GASTEIGER

@<TRIPOS>ATOM
      1 C         -30.3037   48.1014  -10.4585 C.ar    1  UNL1        0.1317
      2 C         -31.1906   47.3585   -9.6537 C.ar    1  UNL1        0.0286
      3 C         -30.8379   47.0131   -8.3364 C.ar    1  UNL1        0.0777
      4 C         -29.5983   47.4178   -7.8232 C.ar    1  UNL1        0.2969
      5 N         -28.7706   48.1341   -8.6278 N.ar    1  UNL1       -0.1229
      6 C         -27.5639   48.6683   -8.3754 C.ar    1  UNL1        0.2751
      7 I         -26.5978   48.6261   -6.4865 I       1  UNL1        0.0389
      8 C         -27.1729   49.3423   -9.5317 C.ar    1  UNL1        0.1314
      9 N         -28.1350   49.2340  -10.4796 N.ar    1  UNL1       -0.2939
     10 C         -29.0824   48.4793   -9.8887 C.ar    1  UNL1        0.3125
     11 H         -28.1406   49.6166  -11.3867 H       1  UNL1        0.1718
     12 N         -31.0424   49.3760  -14.4537 N.3     1  UNL1       -0.2647
     13 C         -31.1821   50.3201  -13.3250 C.3     1  UNL1        0.0941
     14 C         -31.5839   49.5761  -12.0486 C.3     1  UNL1        0.1084
     15 N         -30.6487   48.4762  -11.8033 N.pl3   1  UNL1       -0.2988
     16 C         -30.3587   47.5694  -12.9166 C.3     1  UNL1        0.1084
     17 C         -29.9860   48.3831  -14.1560 C.3     1  UNL1        0.0941
     18 C         -30.7269   50.1179  -15.6913 C.3     1  UNL1        0.1199
     19 C         -27.8525   48.9108  -17.4541 C.ar    1  UNL1        0.1165
     20 N         -28.4215   49.8275  -16.6406 N.ar    1  UNL1       -0.2344
     21 C         -29.6877   49.3884  -16.4920 C.ar    1  UNL1        0.0878
     22 C         -29.8635   48.2322  -17.2280 C.ar    1  UNL1        0.0499
     23 C         -31.1211   47.4357  -17.3738 C.3     1  UNL1        0.0511
     24 N         -28.7037   47.9377  -17.8361 N.ar    1  UNL1       -0.3443
     25 H         -28.5073   47.1387  -18.4797 H       1  UNL1        0.1668
     26 C         -25.8272   50.3446  -17.5215 C.3     1  UNL1        0.0084
     27 C         -26.4461   49.0209  -17.9540 C.3     1  UNL1        0.0637
     28 C         -25.9314   50.1140   -9.7432 C.ar    1  UNL1        0.0221
     29 C         -25.5076   50.4692  -11.0300 C.ar    1  UNL1        0.0013
     30 C         -24.3417   51.2174  -11.2144 C.ar    1  UNL1       -0.0042
     31 C         -23.5680   51.6444  -10.1097 C.ar    1  UNL1       -0.0228
     32 C         -24.0240   51.2988   -8.8183 C.ar    1  UNL1       -0.0042
     33 C         -25.1905   50.5520   -8.6391 C.ar    1  UNL1        0.0013
     34 C         -22.2742   52.4704  -10.2652 C.3     1  UNL1        0.0189
     35 C         -22.6271   53.8949  -10.7461 C.3     1  UNL1        0.0044
     36 C         -21.3528   51.7926  -11.3025 C.3     1  UNL1        0.0044
     37 C         -21.4777   52.6051   -8.9449 C.3     1  UNL1        0.0044
@<TRIPOS>BOND
     1    26    27    1
     2    27    19    1
     3    19    20   ar
     4    20    21   ar
     5    21    18    1
     6    18    12    1
     7    12    13    1
     8    13    14    1
     9    14    15    1
    10    15     1    1
    11     1     2   ar
    12     2     3   ar
    13     3     4   ar
    14     4     5   ar
    15     5     6   ar
    16     6     7    1
    17     6     8   ar
    18     8    28    1
    19    28    29   ar
    20    29    30   ar
    21    30    31   ar
    22    31    34    1
    23    34    35    1
    24    34    36    1
    25    34    37    1
    26    31    32   ar
    27    32    33   ar
    28     8     9   ar
    29     9    10   ar
    30    15    16    1
    31    16    17    1
    32    21    22   ar
    33    22    23    1
    34    22    24   ar
    35    24    19   ar
    36    17    12    1
    37    10     1   ar
    38    10     5   ar
    39    33    28   ar
    40    24    25    1
    41     9    11    1
