@<TRIPOS>MOLECULE
*****
 39 43 0 0 0
SMALL
GASTEIGER

@<TRIPOS>ATOM
      1 C         -32.2170   -2.1999  -16.8993 C.3     1  UNL1        0.0323
      2 C         -31.2510   -3.1599  -16.2598 C.ar    1  UNL1       -0.0083
      3 C         -31.7301   -4.1229  -15.3575 C.ar    1  UNL1       -0.0018
      4 C         -30.8545   -5.0242  -14.7500 C.ar    1  UNL1        0.0144
      5 C         -29.4842   -4.9818  -15.0306 C.ar    1  UNL1        0.0518
      6 C         -29.0052   -4.0499  -15.9654 C.ar    1  UNL1        0.0290
      7 C         -29.8727   -3.1227  -16.5697 C.ar    1  UNL1        0.0477
      8 N         -28.6079   -5.9398  -14.4132 N.am    1  UNL1       -0.2803
      9 C         -27.2123   -5.6942  -14.1529 C.2     1  UNL1        0.2495
     10 O         -26.7248   -4.5503  -14.3663 O.2     1  UNL1       -0.2698
     11 H         -29.0358   -6.8389  -14.1013 H       1  UNL1        0.1552
     12 C         -26.3275   -6.7629  -13.6298 C.ar    1  UNL1        0.0537
     13 C         -25.0772   -7.0324  -14.2140 C.ar    1  UNL1        0.0042
     14 C         -24.2597   -8.0443  -13.7033 C.ar    1  UNL1       -0.0028
     15 C         -24.6676   -8.8012  -12.5934 C.ar    1  UNL1       -0.0061
     16 C         -25.9338   -8.5613  -12.0363 C.ar    1  UNL1       -0.0028
     17 C         -26.7530   -7.5512  -12.5471 C.ar    1  UNL1        0.0042
     18 C         -23.7695   -9.8891  -12.0372 C.3     1  UNL1        0.0992
     19 N         -22.3231   -9.6138  -12.1975 N.3     1  UNL1       -0.2665
     20 C         -21.4730  -10.8232  -12.3050 C.3     1  UNL1        0.0899
     21 C         -20.5901  -11.0129  -11.0644 C.3     1  UNL1        0.0897
     22 N         -19.6871   -9.8549  -10.8638 N.3     1  UNL1       -0.2691
     23 C         -19.2182   -9.8097   -9.4700 C.3     1  UNL1        0.0897
     24 C         -20.2747   -8.5554  -11.2795 C.3     1  UNL1        0.0897
     25 C         -21.8090   -8.5814  -11.2699 C.3     1  UNL1        0.0899
     26 N         -29.3659   -2.1877  -17.5397 N.pl3   1  UNL1       -0.2827
     27 H         -29.6681   -1.1893  -17.4814 H       1  UNL1        0.1551
     28 C         -28.4108   -2.5346  -18.5522 C.ar    1  UNL1        0.2207
     29 N         -28.3545   -1.8438  -19.7227 N.ar    1  UNL1       -0.2120
     30 C         -27.4692   -2.1830  -20.6930 C.ar    1  UNL1        0.1034
     31 C         -26.6031   -3.2584  -20.5023 C.ar    1  UNL1        0.0400
     32 C         -26.6672   -3.9709  -19.2939 C.ar    1  UNL1        0.0872
     33 N         -27.5792   -3.5920  -18.3559 N.ar    1  UNL1       -0.2135
     34 C         -25.7851   -5.1351  -19.0220 C.ar    1  UNL1        0.0370
     35 C         -25.0343   -5.1888  -17.8346 C.ar    1  UNL1        0.0046
     36 C         -24.1996   -6.2773  -17.5771 C.ar    1  UNL1        0.0207
     37 C         -24.1108   -7.3071  -18.5129 C.ar    1  UNL1        0.0989
     38 N         -24.8282   -7.2423  -19.6647 N.ar    1  UNL1       -0.2423
     39 C         -25.6514   -6.1953  -19.9394 C.ar    1  UNL1        0.1003
@<TRIPOS>BOND
     1     1     2    1
     2     2     3   ar
     3     3     4   ar
     4     4     5   ar
     5     5     8    1
     6     8     9   am
     7     9    10    2
     8     9    12    1
     9    12    13   ar
    10    13    14   ar
    11    14    15   ar
    12    15    18    1
    13    18    19    1
    14    19    20    1
    15    20    21    1
    16    21    22    1
    17    22    23    1
    18    22    24    1
    19    24    25    1
    20    15    16   ar
    21    16    17   ar
    22     5     6   ar
    23     6     7   ar
    24     7    26    1
    25    26    28    1
    26    28    29   ar
    27    29    30   ar
    28    30    31   ar
    29    31    32   ar
    30    32    34    1
    31    34    35   ar
    32    35    36   ar
    33    36    37   ar
    34    37    38   ar
    35    38    39   ar
    36    32    33   ar
    37     7     2   ar
    38    33    28   ar
    39    17    12   ar
    40    39    34   ar
    41    25    19    1
    42     8    11    1
    43    26    27    1
@<TRIPOS>MOLECULE
*****
 39 43 0 0 0
SMALL
GASTEIGER

@<TRIPOS>ATOM
      1 C         -32.2638   -2.2316  -16.3629 C.3     1  UNL1        0.0323
      2 C         -31.2578   -3.2531  -15.9066 C.ar    1  UNL1       -0.0083
      3 C         -31.6413   -4.2318  -14.9758 C.ar    1  UNL1       -0.0018
      4 C         -30.7268   -5.1899  -14.5356 C.ar    1  UNL1        0.0144
      5 C         -29.4120   -5.1897  -15.0150 C.ar    1  UNL1        0.0518
      6 C         -29.0348   -4.2408  -15.9789 C.ar    1  UNL1        0.0290
      7 C         -29.9397   -3.2573  -16.4162 C.ar    1  UNL1        0.0477
      8 N         -28.4979   -6.2049  -14.5671 N.am    1  UNL1       -0.2803
      9 C         -27.1354   -5.9390  -14.1816 C.2     1  UNL1        0.2495
     10 O         -26.7207   -4.7491  -14.1184 O.2     1  UNL1       -0.2698
     11 H         -28.8746   -7.1739  -14.4787 H       1  UNL1        0.1552
     12 C         -26.2009   -7.0411  -13.8487 C.ar    1  UNL1        0.0537
     13 C         -26.6573   -8.2454  -13.2843 C.ar    1  UNL1        0.0042
     14 C         -25.7580   -9.2708  -12.9795 C.ar    1  UNL1       -0.0028
     15 C         -24.3868   -9.1202  -13.2407 C.ar    1  UNL1       -0.0061
     16 C         -23.9250   -7.9023  -13.7645 C.ar    1  UNL1       -0.0028
     17 C         -24.8228   -6.8755  -14.0679 C.ar    1  UNL1        0.0042
     18 C         -23.4188  -10.2423  -12.9188 C.3     1  UNL1        0.0992
     19 N         -22.9356  -10.9785  -14.1096 N.3     1  UNL1       -0.2665
     20 C         -23.9637  -11.2083  -15.1522 C.3     1  UNL1        0.0899
     21 C         -24.3513  -12.6895  -15.2554 C.3     1  UNL1        0.0897
     22 N         -23.1798  -13.5303  -15.5977 N.3     1  UNL1       -0.2691
     23 C         -23.4320  -14.9313  -15.2262 C.3     1  UNL1        0.0897
     24 C         -21.9001  -13.0402  -15.0239 C.3     1  UNL1        0.0897
     25 C         -22.1168  -12.1668  -13.7809 C.3     1  UNL1        0.0899
     26 N         -29.5401   -2.3050  -17.4189 N.pl3   1  UNL1       -0.2827
     27 H         -29.9390   -1.3400  -17.3833 H       1  UNL1        0.1551
     28 C         -28.5677   -2.5847  -18.4357 C.ar    1  UNL1        0.2207
     29 N         -28.5214   -1.8464  -19.5773 N.ar    1  UNL1       -0.2120
     30 C         -27.6194   -2.1220  -20.5523 C.ar    1  UNL1        0.1034
     31 C         -26.7252   -3.1798  -20.3968 C.ar    1  UNL1        0.0400
     32 C         -26.7789   -3.9416  -19.2182 C.ar    1  UNL1        0.0872
     33 N         -27.7086   -3.6258  -18.2742 N.ar    1  UNL1       -0.2135
     34 C         -25.8669   -5.0911  -18.9850 C.ar    1  UNL1        0.0370
     35 C         -25.1052   -5.1586  -17.8053 C.ar    1  UNL1        0.0046
     36 C         -24.2425   -6.2332  -17.5840 C.ar    1  UNL1        0.0207
     37 C         -24.1368   -7.2349  -18.5481 C.ar    1  UNL1        0.0989
     38 N         -24.8651   -7.1564  -19.6921 N.ar    1  UNL1       -0.2423
     39 C         -25.7155   -6.1226  -19.9319 C.ar    1  UNL1        0.1003
@<TRIPOS>BOND
     1     1     2    1
     2     2     3   ar
     3     3     4   ar
     4     4     5   ar
     5     5     8    1
     6     8     9   am
     7     9    10    2
     8     9    12    1
     9    12    13   ar
    10    13    14   ar
    11    14    15   ar
    12    15    18    1
    13    18    19    1
    14    19    20    1
    15    20    21    1
    16    21    22    1
    17    22    23    1
    18    22    24    1
    19    24    25    1
    20    15    16   ar
    21    16    17   ar
    22     5     6   ar
    23     6     7   ar
    24     7    26    1
    25    26    28    1
    26    28    29   ar
    27    29    30   ar
    28    30    31   ar
    29    31    32   ar
    30    32    34    1
    31    34    35   ar
    32    35    36   ar
    33    36    37   ar
    34    37    38   ar
    35    38    39   ar
    36    32    33   ar
    37     7     2   ar
    38    33    28   ar
    39    17    12   ar
    40    39    34   ar
    41    25    19    1
    42     8    11    1
    43    26    27    1
@<TRIPOS>MOLECULE
*****
 39 43 0 0 0
SMALL
GASTEIGER

@<TRIPOS>ATOM
      1 C         -23.4865   -7.5427  -17.7816 C.3     1  UNL1        0.0323
      2 C         -22.7785   -7.7499  -16.4703 C.ar    1  UNL1       -0.0083
      3 C         -21.4483   -8.1991  -16.4674 C.ar    1  UNL1       -0.0018
      4 C         -20.7696   -8.4003  -15.2645 C.ar    1  UNL1        0.0144
      5 C         -21.4049   -8.1576  -14.0414 C.ar    1  UNL1        0.0518
      6 C         -22.7203   -7.6663  -14.0388 C.ar    1  UNL1        0.0290
      7 C         -23.4230   -7.4783  -15.2423 C.ar    1  UNL1        0.0477
      8 N         -20.6742   -8.3454  -12.8177 N.am    1  UNL1       -0.2803
      9 C         -21.0340   -9.3135  -11.8131 C.2     1  UNL1        0.2495
     10 O         -21.9699  -10.1303  -12.0338 O.2     1  UNL1       -0.2698
     11 H         -19.8119   -7.7719  -12.6897 H       1  UNL1        0.1552
     12 C         -20.3199   -9.3771  -10.5152 C.ar    1  UNL1        0.0537
     13 C         -19.2915  -10.3087  -10.2879 C.ar    1  UNL1        0.0042
     14 C         -18.6318  -10.3496   -9.0565 C.ar    1  UNL1       -0.0028
     15 C         -18.9770   -9.4558   -8.0303 C.ar    1  UNL1       -0.0061
     16 C         -20.0321   -8.5541   -8.2418 C.ar    1  UNL1       -0.0028
     17 C         -20.6939   -8.5132   -9.4717 C.ar    1  UNL1        0.0042
     18 C         -18.2480   -9.4980   -6.7013 C.3     1  UNL1        0.0992
     19 N         -18.7049   -8.4747   -5.7330 N.3     1  UNL1       -0.2665
     20 C         -17.6549   -7.5226   -5.2999 C.3     1  UNL1        0.0899
     21 C         -17.2626   -7.7342   -3.8314 C.3     1  UNL1        0.0897
     22 N         -18.4253   -7.5487   -2.9313 N.3     1  UNL1       -0.2691
     23 C         -18.1785   -8.2055   -1.6381 C.3     1  UNL1        0.0897
     24 C         -19.7175   -7.9835   -3.5212 C.3     1  UNL1        0.0897
     25 C         -19.5284   -9.0243   -4.6329 C.3     1  UNL1        0.0899
     26 N         -24.7640   -6.9558  -15.2198 N.pl3   1  UNL1       -0.2827
     27 H         -25.2600   -6.8044  -16.1268 H       1  UNL1        0.1551
     28 C         -25.4911   -6.6888  -14.0125 C.ar    1  UNL1        0.2207
     29 N         -26.1868   -5.5298  -13.8600 N.ar    1  UNL1       -0.2120
     30 C         -26.8565   -5.2621  -12.7110 C.ar    1  UNL1        0.1034
     31 C         -26.8335   -6.1778  -11.6605 C.ar    1  UNL1        0.0400
     32 C         -26.1111   -7.3714  -11.8208 C.ar    1  UNL1        0.0872
     33 N         -25.4513   -7.5870  -12.9927 N.ar    1  UNL1       -0.2135
     34 C         -26.0303   -8.3903  -10.7425 C.ar    1  UNL1        0.0370
     35 C         -24.9622   -9.3040  -10.7145 C.ar    1  UNL1        0.0046
     36 C         -24.8847  -10.2669   -9.7072 C.ar    1  UNL1        0.0207
     37 C         -25.8816  -10.3196   -8.7337 C.ar    1  UNL1        0.0989
     38 N         -26.9184   -9.4428   -8.7747 N.ar    1  UNL1       -0.2423
     39 C         -27.0168   -8.4927   -9.7427 C.ar    1  UNL1        0.1003
@<TRIPOS>BOND
     1     1     2    1
     2     2     3   ar
     3     3     4   ar
     4     4     5   ar
     5     5     8    1
     6     8     9   am
     7     9    10    2
     8     9    12    1
     9    12    13   ar
    10    13    14   ar
    11    14    15   ar
    12    15    18    1
    13    18    19    1
    14    19    20    1
    15    20    21    1
    16    21    22    1
    17    22    23    1
    18    22    24    1
    19    24    25    1
    20    15    16   ar
    21    16    17   ar
    22     5     6   ar
    23     6     7   ar
    24     7    26    1
    25    26    28    1
    26    28    29   ar
    27    29    30   ar
    28    30    31   ar
    29    31    32   ar
    30    32    34    1
    31    34    35   ar
    32    35    36   ar
    33    36    37   ar
    34    37    38   ar
    35    38    39   ar
    36    32    33   ar
    37     7     2   ar
    38    33    28   ar
    39    17    12   ar
    40    39    34   ar
    41    25    19    1
    42     8    11    1
    43    26    27    1
@<TRIPOS>MOLECULE
*****
 39 43 0 0 0
SMALL
GASTEIGER

@<TRIPOS>ATOM
      1 C         -23.4943   -8.6334  -18.1187 C.3     1  UNL1        0.0323
      2 C         -23.0492   -8.7566  -16.6867 C.ar    1  UNL1       -0.0083
      3 C         -22.4009   -9.9278  -16.2636 C.ar    1  UNL1       -0.0018
      4 C         -21.9792  -10.0674  -14.9405 C.ar    1  UNL1        0.0144
      5 C         -22.1966   -9.0414  -14.0139 C.ar    1  UNL1        0.0518
      6 C         -22.8049   -7.8502  -14.4415 C.ar    1  UNL1        0.0290
      7 C         -23.2529   -7.7038  -15.7663 C.ar    1  UNL1        0.0477
      8 N         -21.7270   -9.1989  -12.6643 N.am    1  UNL1       -0.2803
      9 C         -20.8514   -8.2611  -12.0088 C.2     1  UNL1        0.2495
     10 O         -20.5470   -7.1790  -12.5816 O.2     1  UNL1       -0.2698
     11 H         -22.0887  -10.0196  -12.1311 H       1  UNL1        0.1552
     12 C         -20.2981   -8.5377  -10.6612 C.ar    1  UNL1        0.0537
     13 C         -20.6371   -7.7439   -9.5512 C.ar    1  UNL1        0.0042
     14 C         -20.1037   -8.0242   -8.2902 C.ar    1  UNL1       -0.0028
     15 C         -19.2296   -9.1076   -8.1083 C.ar    1  UNL1       -0.0061
     16 C         -18.8574   -9.8745   -9.2238 C.ar    1  UNL1       -0.0028
     17 C         -19.3883   -9.5943  -10.4855 C.ar    1  UNL1        0.0042
     18 C         -18.6649   -9.4129   -6.7344 C.3     1  UNL1        0.0992
     19 N         -18.9545   -8.3721   -5.7213 N.3     1  UNL1       -0.2665
     20 C         -17.7965   -7.5182   -5.3655 C.3     1  UNL1        0.0899
     21 C         -17.3064   -7.7871   -3.9364 C.3     1  UNL1        0.0897
     22 N         -18.3730   -7.5213   -2.9422 N.3     1  UNL1       -0.2691
     23 C         -18.0790   -8.2186   -1.6806 C.3     1  UNL1        0.0897
     24 C         -19.7406   -7.8369   -3.4291 C.3     1  UNL1        0.0897
     25 C         -19.7299   -8.8704   -4.5633 C.3     1  UNL1        0.0899
     26 N         -23.8570   -6.4680  -16.1904 N.pl3   1  UNL1       -0.2827
     27 H         -23.3821   -5.9042  -16.9308 H       1  UNL1        0.1551
     28 C         -25.1176   -5.9916  -15.6988 C.ar    1  UNL1        0.2207
     29 N         -25.5835   -6.3824  -14.4820 N.ar    1  UNL1       -0.2120
     30 C         -26.7859   -5.9535  -14.0229 C.ar    1  UNL1        0.1034
     31 C         -27.5683   -5.1044  -14.8036 C.ar    1  UNL1        0.0400
     32 C         -27.0850   -4.7063  -16.0606 C.ar    1  UNL1        0.0872
     33 N         -25.8741   -5.1716  -16.4757 N.ar    1  UNL1       -0.2135
     34 C         -27.8660   -3.8126  -16.9543 C.ar    1  UNL1        0.0370
     35 C         -29.1683   -3.4215  -16.5971 C.ar    1  UNL1        0.0046
     36 C         -29.9085   -2.5869  -17.4357 C.ar    1  UNL1        0.0207
     37 C         -29.3473   -2.1517  -18.6357 C.ar    1  UNL1        0.0989
     38 N         -28.0938   -2.5448  -18.9815 N.ar    1  UNL1       -0.2423
     39 C         -27.3494   -3.3545  -18.1818 C.ar    1  UNL1        0.1003
@<TRIPOS>BOND
     1     1     2    1
     2     2     3   ar
     3     3     4   ar
     4     4     5   ar
     5     5     8    1
     6     8     9   am
     7     9    10    2
     8     9    12    1
     9    12    13   ar
    10    13    14   ar
    11    14    15   ar
    12    15    18    1
    13    18    19    1
    14    19    20    1
    15    20    21    1
    16    21    22    1
    17    22    23    1
    18    22    24    1
    19    24    25    1
    20    15    16   ar
    21    16    17   ar
    22     5     6   ar
    23     6     7   ar
    24     7    26    1
    25    26    28    1
    26    28    29   ar
    27    29    30   ar
    28    30    31   ar
    29    31    32   ar
    30    32    34    1
    31    34    35   ar
    32    35    36   ar
    33    36    37   ar
    34    37    38   ar
    35    38    39   ar
    36    32    33   ar
    37     7     2   ar
    38    33    28   ar
    39    17    12   ar
    40    39    34   ar
    41    25    19    1
    42     8    11    1
    43    26    27    1
@<TRIPOS>MOLECULE
*****
 39 43 0 0 0
SMALL
GASTEIGER

@<TRIPOS>ATOM
      1 C         -32.5465   -2.4822  -16.7775 C.3     1  UNL1        0.0323
      2 C         -31.3604   -3.1633  -16.1507 C.ar    1  UNL1       -0.0083
      3 C         -31.5494   -3.9827  -15.0263 C.ar    1  UNL1       -0.0018
      4 C         -30.4656   -4.6248  -14.4255 C.ar    1  UNL1        0.0144
      5 C         -29.1722   -4.4615  -14.9345 C.ar    1  UNL1        0.0518
      6 C         -28.9829   -3.6788  -16.0849 C.ar    1  UNL1        0.0290
      7 C         -30.0626   -3.0099  -16.6884 C.ar    1  UNL1        0.0477
      8 N         -28.0773   -5.1567  -14.3143 N.am    1  UNL1       -0.2803
      9 C         -28.0604   -6.5793  -14.0875 C.2     1  UNL1        0.2495
     10 O         -28.9917   -7.2995  -14.5412 O.2     1  UNL1       -0.2698
     11 H         -27.2384   -4.5889  -14.0642 H       1  UNL1        0.1552
     12 C         -26.9607   -7.2247  -13.3305 C.ar    1  UNL1        0.0537
     13 C         -27.1719   -7.7730  -12.0531 C.ar    1  UNL1        0.0042
     14 C         -26.1202   -8.3772  -11.3586 C.ar    1  UNL1       -0.0028
     15 C         -24.8393   -8.4561  -11.9280 C.ar    1  UNL1       -0.0061
     16 C         -24.6178   -7.8713  -13.1849 C.ar    1  UNL1       -0.0028
     17 C         -25.6678   -7.2652  -13.8796 C.ar    1  UNL1        0.0042
     18 C         -23.7064   -9.1245  -11.1734 C.3     1  UNL1        0.0992
     19 N         -23.3664   -8.4640   -9.8921 N.3     1  UNL1       -0.2665
     20 C         -22.5918   -7.2082  -10.0317 C.3     1  UNL1        0.0899
     21 C         -21.1500   -7.3678   -9.5312 C.3     1  UNL1        0.0897
     22 N         -21.1160   -7.7507   -8.0998 N.3     1  UNL1       -0.2691
     23 C         -19.8189   -8.3592   -7.7657 C.3     1  UNL1        0.0897
     24 C         -22.2455   -8.6214   -7.6836 C.3     1  UNL1        0.0897
     25 C         -22.8493   -9.3944   -8.8637 C.3     1  UNL1        0.0899
     26 N         -29.8515   -2.2276  -17.8781 N.pl3   1  UNL1       -0.2827
     27 H         -30.4748   -1.4088  -18.0587 H       1  UNL1        0.1551
     28 C         -28.7851   -2.4682  -18.8069 C.ar    1  UNL1        0.2207
     29 N         -28.6687   -1.7267  -19.9413 N.ar    1  UNL1       -0.2120
     30 C         -27.6760   -1.9660  -20.8345 C.ar    1  UNL1        0.1034
     31 C         -26.7588   -2.9891  -20.6006 C.ar    1  UNL1        0.0400
     32 C         -26.8849   -3.7544  -19.4299 C.ar    1  UNL1        0.0872
     33 N         -27.9038   -3.4760  -18.5701 N.ar    1  UNL1       -0.2135
     34 C         -25.9531   -4.8686  -19.1170 C.ar    1  UNL1        0.0370
     35 C         -25.8077   -5.9396  -20.0159 C.ar    1  UNL1        0.0046
     36 C         -24.9383   -6.9916  -19.7240 C.ar    1  UNL1        0.0207
     37 C         -24.2215   -6.9744  -18.5281 C.ar    1  UNL1        0.0989
     38 N         -24.3773   -5.9434  -17.6574 N.ar    1  UNL1       -0.2423
     39 C         -25.2149   -4.9043  -17.9181 C.ar    1  UNL1        0.1003
@<TRIPOS>BOND
     1     1     2    1
     2     2     3   ar
     3     3     4   ar
     4     4     5   ar
     5     5     8    1
     6     8     9   am
     7     9    10    2
     8     9    12    1
     9    12    13   ar
    10    13    14   ar
    11    14    15   ar
    12    15    18    1
    13    18    19    1
    14    19    20    1
    15    20    21    1
    16    21    22    1
    17    22    23    1
    18    22    24    1
    19    24    25    1
    20    15    16   ar
    21    16    17   ar
    22     5     6   ar
    23     6     7   ar
    24     7    26    1
    25    26    28    1
    26    28    29   ar
    27    29    30   ar
    28    30    31   ar
    29    31    32   ar
    30    32    34    1
    31    34    35   ar
    32    35    36   ar
    33    36    37   ar
    34    37    38   ar
    35    38    39   ar
    36    32    33   ar
    37     7     2   ar
    38    33    28   ar
    39    17    12   ar
    40    39    34   ar
    41    25    19    1
    42     8    11    1
    43    26    27    1
@<TRIPOS>MOLECULE
*****
 39 43 0 0 0
SMALL
GASTEIGER

@<TRIPOS>ATOM
      1 C         -28.0828   -2.6497  -19.4470 C.3     1  UNL1        0.0323
      2 C         -27.6859   -3.3263  -18.1631 C.ar    1  UNL1       -0.0083
      3 C         -28.3630   -3.0055  -16.9758 C.ar    1  UNL1       -0.0018
      4 C         -28.0134   -3.6181  -15.7714 C.ar    1  UNL1        0.0144
      5 C         -26.9812   -4.5621  -15.7283 C.ar    1  UNL1        0.0518
      6 C         -26.3299   -4.9194  -16.9199 C.ar    1  UNL1        0.0290
      7 C         -26.6580   -4.2957  -18.1368 C.ar    1  UNL1        0.0477
      8 N         -26.6599   -5.1993  -14.4802 N.am    1  UNL1       -0.2803
      9 C         -25.6694   -6.2366  -14.3448 C.2     1  UNL1        0.2495
     10 O         -24.9505   -6.5523  -15.3324 O.2     1  UNL1       -0.2698
     11 H         -27.1486   -4.8445  -13.6293 H       1  UNL1        0.1552
     12 C         -25.4687   -6.9456  -13.0580 C.ar    1  UNL1        0.0537
     13 C         -26.3426   -7.9633  -12.6365 C.ar    1  UNL1        0.0042
     14 C         -26.1331   -8.6183  -11.4198 C.ar    1  UNL1       -0.0028
     15 C         -25.0423   -8.2789  -10.6036 C.ar    1  UNL1       -0.0061
     16 C         -24.1942   -7.2341  -11.0036 C.ar    1  UNL1       -0.0028
     17 C         -24.4034   -6.5770  -12.2188 C.ar    1  UNL1        0.0042
     18 C         -24.8145   -9.0029   -9.2907 C.3     1  UNL1        0.0992
     19 N         -23.5186   -9.7159   -9.2153 N.3     1  UNL1       -0.2665
     20 C         -22.5399   -9.1194   -8.2755 C.3     1  UNL1        0.0899
     21 C         -21.3547   -8.4824   -9.0133 C.3     1  UNL1        0.0897
     22 N         -20.6285   -9.4829   -9.8309 N.3     1  UNL1       -0.2691
     23 C         -19.8378   -8.8114  -10.8741 C.3     1  UNL1        0.0897
     24 C         -21.5028  -10.5361  -10.4082 C.3     1  UNL1        0.0897
     25 C         -22.9606  -10.0748  -10.5383 C.3     1  UNL1        0.0899
     26 N         -25.9923   -4.6893  -19.3508 N.pl3   1  UNL1       -0.2827
     27 H         -25.8693   -3.9812  -20.1091 H       1  UNL1        0.1551
     28 C         -25.4245   -5.9901  -19.5582 C.ar    1  UNL1        0.2207
     29 N         -25.7131   -6.7056  -20.6787 N.ar    1  UNL1       -0.2120
     30 C         -25.1977   -7.9460  -20.8684 C.ar    1  UNL1        0.1034
     31 C         -24.3635   -8.5099  -19.9045 C.ar    1  UNL1        0.0400
     32 C         -24.0712   -7.7692  -18.7478 C.ar    1  UNL1        0.0872
     33 N         -24.6205   -6.5311  -18.6047 N.ar    1  UNL1       -0.2135
     34 C         -23.2000   -8.3072  -17.6712 C.ar    1  UNL1        0.0370
     35 C         -22.3451   -7.4469  -16.9602 C.ar    1  UNL1        0.0046
     36 C         -21.5203   -7.9481  -15.9520 C.ar    1  UNL1        0.0207
     37 C         -21.5460   -9.3118  -15.6625 C.ar    1  UNL1        0.0989
     38 N         -22.3640  -10.1398  -16.3629 N.ar    1  UNL1       -0.2423
     39 C         -23.1801   -9.6777  -17.3478 C.ar    1  UNL1        0.1003
@<TRIPOS>BOND
     1     1     2    1
     2     2     3   ar
     3     3     4   ar
     4     4     5   ar
     5     5     8    1
     6     8     9   am
     7     9    10    2
     8     9    12    1
     9    12    13   ar
    10    13    14   ar
    11    14    15   ar
    12    15    18    1
    13    18    19    1
    14    19    20    1
    15    20    21    1
    16    21    22    1
    17    22    23    1
    18    22    24    1
    19    24    25    1
    20    15    16   ar
    21    16    17   ar
    22     5     6   ar
    23     6     7   ar
    24     7    26    1
    25    26    28    1
    26    28    29   ar
    27    29    30   ar
    28    30    31   ar
    29    31    32   ar
    30    32    34    1
    31    34    35   ar
    32    35    36   ar
    33    36    37   ar
    34    37    38   ar
    35    38    39   ar
    36    32    33   ar
    37     7     2   ar
    38    33    28   ar
    39    17    12   ar
    40    39    34   ar
    41    25    19    1
    42     8    11    1
    43    26    27    1
@<TRIPOS>MOLECULE
*****
 39 43 0 0 0
SMALL
GASTEIGER

@<TRIPOS>ATOM
      1 C         -15.9469   -8.7269   -3.4816 C.3     1  UNL1        0.0323
      2 C         -17.0996   -8.5764   -4.4368 C.ar    1  UNL1       -0.0083
      3 C         -17.9080   -7.4306   -4.3680 C.ar    1  UNL1       -0.0018
      4 C         -18.9840   -7.2674   -5.2419 C.ar    1  UNL1        0.0144
      5 C         -19.2745   -8.2444   -6.2008 C.ar    1  UNL1        0.0518
      6 C         -18.4433   -9.3715   -6.3035 C.ar    1  UNL1        0.0290
      7 C         -17.3682   -9.5586   -5.4167 C.ar    1  UNL1        0.0477
      8 N         -20.3711   -8.0386   -7.1075 N.am    1  UNL1       -0.2803
      9 C         -20.2150   -7.9142   -8.5343 C.2     1  UNL1        0.2495
     10 O         -19.0837   -8.0981   -9.0615 O.2     1  UNL1       -0.2698
     11 H         -21.3294   -8.0283   -6.6949 H       1  UNL1        0.1552
     12 C         -21.3651   -7.5772   -9.4075 C.ar    1  UNL1        0.0537
     13 C         -21.3991   -6.3826  -10.1484 C.ar    1  UNL1        0.0042
     14 C         -22.4935   -6.0864  -10.9656 C.ar    1  UNL1       -0.0028
     15 C         -23.5715   -6.9801  -11.0686 C.ar    1  UNL1       -0.0061
     16 C         -23.5576   -8.1526  -10.2967 C.ar    1  UNL1       -0.0028
     17 C         -22.4650   -8.4492   -9.4778 C.ar    1  UNL1        0.0042
     18 C         -24.7496   -6.6575  -11.9672 C.3     1  UNL1        0.0992
     19 N         -24.7637   -7.4210  -13.2362 N.3     1  UNL1       -0.2665
     20 C         -25.6908   -8.5773  -13.2504 C.3     1  UNL1        0.0899
     21 C         -24.9369   -9.9138  -13.2631 C.3     1  UNL1        0.0897
     22 N         -24.0674  -10.0304  -14.4577 N.3     1  UNL1       -0.2691
     23 C         -23.0215  -11.0397  -14.2302 C.3     1  UNL1        0.0897
     24 C         -23.4852   -8.7391  -14.9056 C.3     1  UNL1        0.0897
     25 C         -23.4139   -7.7086  -13.7708 C.3     1  UNL1        0.0899
     26 N         -16.5161  -10.7110   -5.5501 N.pl3   1  UNL1       -0.2827
     27 H         -16.0827  -11.1182   -4.6910 H       1  UNL1        0.1551
     28 C         -16.2756  -11.3798   -6.7962 C.ar    1  UNL1        0.2207
     29 N         -15.0441  -11.8741   -7.0952 N.ar    1  UNL1       -0.2120
     30 C         -14.8056  -12.4862   -8.2821 C.ar    1  UNL1        0.1034
     31 C         -15.8283  -12.6109   -9.2208 C.ar    1  UNL1        0.0400
     32 C         -17.0972  -12.0959   -8.9093 C.ar    1  UNL1        0.0872
     33 N         -17.2804  -11.4851   -7.7059 N.ar    1  UNL1       -0.2135
     34 C         -18.2337  -12.1805   -9.8626 C.ar    1  UNL1        0.0370
     35 C         -19.0952  -11.0826  -10.0317 C.ar    1  UNL1        0.0046
     36 C         -20.1678  -11.1588  -10.9215 C.ar    1  UNL1        0.0207
     37 C         -20.3819  -12.3377  -11.6346 C.ar    1  UNL1        0.0989
     38 N         -19.5540  -13.3998  -11.4560 N.ar    1  UNL1       -0.2423
     39 C         -18.4998  -13.3516  -10.5983 C.ar    1  UNL1        0.1003
@<TRIPOS>BOND
     1     1     2    1
     2     2     3   ar
     3     3     4   ar
     4     4     5   ar
     5     5     8    1
     6     8     9   am
     7     9    10    2
     8     9    12    1
     9    12    13   ar
    10    13    14   ar
    11    14    15   ar
    12    15    18    1
    13    18    19    1
    14    19    20    1
    15    20    21    1
    16    21    22    1
    17    22    23    1
    18    22    24    1
    19    24    25    1
    20    15    16   ar
    21    16    17   ar
    22     5     6   ar
    23     6     7   ar
    24     7    26    1
    25    26    28    1
    26    28    29   ar
    27    29    30   ar
    28    30    31   ar
    29    31    32   ar
    30    32    34    1
    31    34    35   ar
    32    35    36   ar
    33    36    37   ar
    34    37    38   ar
    35    38    39   ar
    36    32    33   ar
    37     7     2   ar
    38    33    28   ar
    39    17    12   ar
    40    39    34   ar
    41    25    19    1
    42     8    11    1
    43    26    27    1
@<TRIPOS>MOLECULE
*****
 39 43 0 0 0
SMALL
GASTEIGER

@<TRIPOS>ATOM
      1 C         -20.4580  -13.7917  -14.1183 C.3     1  UNL1        0.0323
      2 C         -21.3448  -12.6170  -14.4308 C.ar    1  UNL1       -0.0083
      3 C         -21.7345  -12.3803  -15.7587 C.ar    1  UNL1       -0.0018
      4 C         -22.5556  -11.2970  -16.0751 C.ar    1  UNL1        0.0144
      5 C         -23.0033  -10.4287  -15.0731 C.ar    1  UNL1        0.0518
      6 C         -22.6530  -10.6856  -13.7378 C.ar    1  UNL1        0.0290
      7 C         -21.8100  -11.7613  -13.4069 C.ar    1  UNL1        0.0477
      8 N         -23.8714   -9.3371  -15.4219 N.am    1  UNL1       -0.2803
      9 C         -23.4255   -7.9737  -15.5568 C.2     1  UNL1        0.2495
     10 O         -22.1956   -7.7037  -15.4776 O.2     1  UNL1       -0.2698
     11 H         -24.8662   -9.5728  -15.6305 H       1  UNL1        0.1552
     12 C         -24.3866   -6.8698  -15.7942 C.ar    1  UNL1        0.0537
     13 C         -24.4188   -6.1744  -17.0159 C.ar    1  UNL1        0.0042
     14 C         -25.3342   -5.1377  -17.2173 C.ar    1  UNL1       -0.0028
     15 C         -26.2428   -4.7801  -16.2085 C.ar    1  UNL1       -0.0061
     16 C         -26.1827   -5.4453  -14.9736 C.ar    1  UNL1       -0.0028
     17 C         -25.2668   -6.4807  -14.7701 C.ar    1  UNL1        0.0042
     18 C         -27.2414   -3.6625  -16.4391 C.3     1  UNL1        0.0992
     19 N         -28.6483   -4.1196  -16.5101 N.3     1  UNL1       -0.2665
     20 C         -29.5319   -3.2703  -17.3436 C.3     1  UNL1        0.0899
     21 C         -30.5534   -2.5025  -16.4940 C.3     1  UNL1        0.0897
     22 N         -31.4231   -3.4282  -15.7303 N.3     1  UNL1       -0.2691
     23 C         -32.0404   -2.7267  -14.5939 C.3     1  UNL1        0.0897
     24 C         -30.7387   -4.6716  -15.2916 C.3     1  UNL1        0.0897
     25 C         -29.2173   -4.4953  -15.1964 C.3     1  UNL1        0.0899
     26 N         -21.4777  -12.0196  -12.0304 N.pl3   1  UNL1       -0.2827
     27 H         -21.8005  -12.9124  -11.5941 H       1  UNL1        0.1551
     28 C         -20.6665  -11.1458  -11.2328 C.ar    1  UNL1        0.2207
     29 N         -19.5293  -11.5991  -10.6398 N.ar    1  UNL1       -0.2120
     30 C         -18.7715  -10.7831   -9.8651 C.ar    1  UNL1        0.1034
     31 C         -19.1570   -9.4594   -9.6605 C.ar    1  UNL1        0.0400
     32 C         -20.3337   -8.9966  -10.2718 C.ar    1  UNL1        0.0872
     33 N         -21.0606   -9.8599  -11.0343 N.ar    1  UNL1       -0.2135
     34 C         -20.8153   -7.6027  -10.0915 C.ar    1  UNL1        0.0370
     35 C         -21.2307   -6.8509  -11.2044 C.ar    1  UNL1        0.0046
     36 C         -21.6784   -5.5391  -11.0414 C.ar    1  UNL1        0.0207
     37 C         -21.7015   -4.9782   -9.7650 C.ar    1  UNL1        0.0989
     38 N         -21.2854   -5.7054   -8.6957 N.ar    1  UNL1       -0.2423
     39 C         -20.8477   -6.9864   -8.8256 C.ar    1  UNL1        0.1003
@<TRIPOS>BOND
     1     1     2    1
     2     2     3   ar
     3     3     4   ar
     4     4     5   ar
     5     5     8    1
     6     8     9   am
     7     9    10    2
     8     9    12    1
     9    12    13   ar
    10    13    14   ar
    11    14    15   ar
    12    15    18    1
    13    18    19    1
    14    19    20    1
    15    20    21    1
    16    21    22    1
    17    22    23    1
    18    22    24    1
    19    24    25    1
    20    15    16   ar
    21    16    17   ar
    22     5     6   ar
    23     6     7   ar
    24     7    26    1
    25    26    28    1
    26    28    29   ar
    27    29    30   ar
    28    30    31   ar
    29    31    32   ar
    30    32    34    1
    31    34    35   ar
    32    35    36   ar
    33    36    37   ar
    34    37    38   ar
    35    38    39   ar
    36    32    33   ar
    37     7     2   ar
    38    33    28   ar
    39    17    12   ar
    40    39    34   ar
    41    25    19    1
    42     8    11    1
    43    26    27    1
@<TRIPOS>MOLECULE
*****
 39 43 0 0 0
SMALL
GASTEIGER

@<TRIPOS>ATOM
      1 C         -19.4776   -9.3090   -9.2693 C.3     1  UNL1        0.0323
      2 C         -20.8151   -8.9797   -9.8746 C.ar    1  UNL1       -0.0083
      3 C         -21.3359   -7.6834   -9.7345 C.ar    1  UNL1       -0.0018
      4 C         -22.5748   -7.3527  -10.2855 C.ar    1  UNL1        0.0144
      5 C         -23.3183   -8.3089  -10.9864 C.ar    1  UNL1        0.0518
      6 C         -22.7830   -9.5944  -11.1675 C.ar    1  UNL1        0.0290
      7 C         -21.5454   -9.9473  -10.6008 C.ar    1  UNL1        0.0477
      8 N         -24.5784   -7.9346  -11.5685 N.am    1  UNL1       -0.2803
      9 C         -24.7257   -7.4725  -12.9252 C.2     1  UNL1        0.2495
     10 O         -23.7343   -7.4870  -13.7054 O.2     1  UNL1       -0.2698
     11 H         -25.4276   -8.0555  -10.9744 H       1  UNL1        0.1552
     12 C         -26.0289   -6.9805  -13.4332 C.ar    1  UNL1        0.0537
     13 C         -26.1613   -5.6981  -13.9945 C.ar    1  UNL1        0.0042
     14 C         -27.3998   -5.2561  -14.4677 C.ar    1  UNL1       -0.0028
     15 C         -28.5292   -6.0874  -14.4001 C.ar    1  UNL1       -0.0061
     16 C         -28.4071   -7.3512  -13.8012 C.ar    1  UNL1       -0.0028
     17 C         -27.1699   -7.7939  -13.3260 C.ar    1  UNL1        0.0042
     18 C         -29.8669   -5.6052  -14.9271 C.3     1  UNL1        0.0992
     19 N         -29.8596   -4.1967  -15.3847 N.3     1  UNL1       -0.2665
     20 C         -30.8031   -3.3090  -14.6646 C.3     1  UNL1        0.0899
     21 C         -31.9672   -2.8657  -15.5608 C.3     1  UNL1        0.0897
     22 N         -31.4808   -2.1232  -16.7477 N.3     1  UNL1       -0.2691
     23 C         -32.5017   -2.1304  -17.8070 C.3     1  UNL1        0.0897
     24 C         -30.1686   -2.5978  -17.2574 C.3     1  UNL1        0.0897
     25 C         -29.8806   -4.0510  -16.8574 C.3     1  UNL1        0.0899
     26 N         -21.0046  -11.2641  -10.8136 N.pl3   1  UNL1       -0.2827
     27 H         -20.6270  -11.7911   -9.9943 H       1  UNL1        0.1551
     28 C         -21.0122  -11.9288  -12.0848 C.ar    1  UNL1        0.2207
     29 N         -20.4731  -13.1698  -12.2252 N.ar    1  UNL1       -0.2120
     30 C         -20.4564  -13.7928  -13.4302 C.ar    1  UNL1        0.1034
     31 C         -20.9908  -13.1591  -14.5507 C.ar    1  UNL1        0.0400
     32 C         -21.5431  -11.8765  -14.4018 C.ar    1  UNL1        0.0872
     33 N         -21.5282  -11.2942  -13.1707 N.ar    1  UNL1       -0.2135
     34 C         -22.1210  -11.1331  -15.5511 C.ar    1  UNL1        0.0370
     35 C         -22.1881   -9.7292  -15.5206 C.ar    1  UNL1        0.0046
     36 C         -22.7354   -9.0263  -16.5950 C.ar    1  UNL1        0.0207
     37 C         -23.2230   -9.7304  -17.6954 C.ar    1  UNL1        0.0989
     38 N         -23.1679  -11.0876  -17.7123 N.ar    1  UNL1       -0.2423
     39 C         -22.6370  -11.7972  -16.6808 C.ar    1  UNL1        0.1003
@<TRIPOS>BOND
     1     1     2    1
     2     2     3   ar
     3     3     4   ar
     4     4     5   ar
     5     5     8    1
     6     8     9   am
     7     9    10    2
     8     9    12    1
     9    12    13   ar
    10    13    14   ar
    11    14    15   ar
    12    15    18    1
    13    18    19    1
    14    19    20    1
    15    20    21    1
    16    21    22    1
    17    22    23    1
    18    22    24    1
    19    24    25    1
    20    15    16   ar
    21    16    17   ar
    22     5     6   ar
    23     6     7   ar
    24     7    26    1
    25    26    28    1
    26    28    29   ar
    27    29    30   ar
    28    30    31   ar
    29    31    32   ar
    30    32    34    1
    31    34    35   ar
    32    35    36   ar
    33    36    37   ar
    34    37    38   ar
    35    38    39   ar
    36    32    33   ar
    37     7     2   ar
    38    33    28   ar
    39    17    12   ar
    40    39    34   ar
    41    25    19    1
    42     8    11    1
    43    26    27    1
