@<TRIPOS>MOLECULE
*****
 53 58 0 0 0
SMALL
GASTEIGER

@<TRIPOS>ATOM
      1 N          60.1237   86.0070   11.7148 N.am    1  UNL1       -0.2945
      2 C          59.4112   87.2250   11.4440 C.2     1  UNL1        0.2483
      3 O          58.7304   87.7701   12.3558 O.2     1  UNL1       -0.2701
      4 H          60.9172   85.7519   11.0840 H       1  UNL1        0.1501
      5 C          59.4939   87.8737   10.1152 C.ar    1  UNL1        0.0808
      6 C          60.0663   89.1521   10.0013 C.ar    1  UNL1        0.0080
      7 C          60.1591   89.7815    8.7574 C.ar    1  UNL1        0.0148
      8 C          59.6699   89.1501    7.6037 C.ar    1  UNL1        0.0502
      9 C          59.0844   87.8804    7.7155 C.ar    1  UNL1        0.0443
     10 C          58.9912   87.2458    8.9583 C.ar    1  UNL1        0.1457
     11 F          58.3708   86.0408    9.0287 F       1  UNL1       -0.2040
     12 N          59.7637   89.7928    6.3184 N.pl3   1  UNL1       -0.3040
     13 C          60.9686   89.6254    5.4991 C.3     1  UNL1        0.1123
     14 C          61.3143   90.9381    4.7946 C.3     1  UNL1        0.1136
     15 N          60.1185   91.5021    4.1522 N.pl3   1  UNL1       -0.2897
     16 C          58.9047   91.6506    4.9662 C.3     1  UNL1        0.1136
     17 C          58.5667   90.3340    5.6661 C.3     1  UNL1        0.1123
     18 C          60.1987   92.1590    2.8710 C.ar    1  UNL1        0.1318
     19 C          61.4311   92.5657    2.3341 C.ar    1  UNL1        0.0343
     20 C          61.4661   93.2010    1.0919 C.ar    1  UNL1        0.0083
     21 C          60.2762   93.4539    0.3932 C.ar    1  UNL1        0.0906
     22 C          59.0673   93.0163    0.9560 C.ar    1  UNL1        0.1041
     23 N          59.0582   92.3973    2.1659 N.ar    1  UNL1       -0.2292
     24 C          60.3045   94.0942   -0.9713 C.3     1  UNL1        0.4200
     25 F          60.3270   93.1058   -1.9373 F       1  UNL1       -0.1658
     26 F          61.4282   94.8899   -1.1137 F       1  UNL1       -0.1658
     27 F          59.1858   94.8865   -1.1623 F       1  UNL1       -0.1658
     28 C          59.9746   85.2721   12.9755 C.3     1  UNL1        0.1535
     29 N          61.2601   87.2522   13.9350 N.am    1  UNL1       -0.2825
     30 C          60.3673   86.1450   14.1451 C.2     1  UNL1        0.2443
     31 O          59.9272   85.8891   15.2990 O.2     1  UNL1       -0.2730
     32 H          61.3524   87.6182   12.9602 H       1  UNL1        0.1549
     33 CA         63.2277   89.8129   15.8715 C.ar    1  UNL1        0.1577
     34 C          62.5320   89.2034   14.8137 C.ar    1  UNL1        0.0404
     35 C          62.0364   87.8957   14.9628 C.ar    1  UNL1        0.0536
     36 C          62.2373   87.2327   16.1803 C.ar    1  UNL1        0.0353
     37 C          62.9408   87.8645   17.2058 C.ar    1  UNL1        0.1003
     38 N          63.4137   89.1256   17.0313 N.ar    1  UNL1       -0.2372
     39 O          64.6134   91.4705   14.8785 O.2     1  UNL1       -0.2434
     40 C          63.7466   91.1921   15.7493 C.2     1  UNL1        0.3560
     41 OXT        63.2896   92.2062   16.5889 O.3     1  UNL1       -0.4761
     42 HXT        62.5935   92.0375   17.3048 H       1  UNL1        0.2955
     43 C          58.5246   84.7768   13.1146 C.3     1  UNL1        0.0569
     44 C          58.2005   83.7160   12.0995 C.ar    1  UNL1       -0.0017
     45 C          57.7747   83.9314   10.7919 C.ar    1  UNL1        0.0681
     46 N          57.7150   82.7620   10.1153 N.ar    1  UNL1       -0.3523
     47 C          58.1085   81.8114   10.9805 C.ar    1  UNL1        0.0563
     48 C          58.2518   80.4478   10.7279 C.ar    1  UNL1        0.0170
     49 C          58.7166   79.6302   11.7740 C.ar    1  UNL1        0.0015
     50 C          59.0234   80.1872   13.0347 C.ar    1  UNL1        0.0001
     51 C          58.8717   81.5673   13.2602 C.ar    1  UNL1        0.0012
     52 C          58.4117   82.3538   12.2032 C.ar    1  UNL1        0.0131
     53 H          57.4451   82.6321    9.1150 H       1  UNL1        0.1660
@<TRIPOS>BOND
     1    39    40    2
     2    40    41    1
     3    40    33    1
     4    33    34   ar
     5    34    35   ar
     6    35    29    1
     7    29    30   am
     8    30    31    2
     9    30    28    1
    10    28    43    1
    11    43    44    1
    12    44    45   ar
    13    45    46   ar
    14    46    47   ar
    15    47    48   ar
    16    48    49   ar
    17    49    50   ar
    18    50    51   ar
    19    51    52   ar
    20    28     1    1
    21     1     2   am
    22     2     3    2
    23     2     5    1
    24     5     6   ar
    25     6     7   ar
    26     7     8   ar
    27     8    12    1
    28    12    13    1
    29    13    14    1
    30    14    15    1
    31    15    18    1
    32    18    19   ar
    33    19    20   ar
    34    20    21   ar
    35    21    24    1
    36    24    25    1
    37    24    26    1
    38    24    27    1
    39    21    22   ar
    40    22    23   ar
    41    15    16    1
    42    16    17    1
    43     8     9   ar
    44     9    10   ar
    45    10    11    1
    46    35    36   ar
    47    36    37   ar
    48    37    38   ar
    49    38    33   ar
    50    52    44   ar
    51    10     5   ar
    52    52    47   ar
    53    17    12    1
    54    23    18   ar
    55    41    42    1
    56    29    32    1
    57    46    53    1
    58     1     4    1
@<TRIPOS>MOLECULE
*****
 53 58 0 0 0
SMALL
GASTEIGER

@<TRIPOS>ATOM
      1 N          61.9576   88.0207   12.1365 N.am    1  UNL1       -0.2945
      2 C          60.6998   87.8827   11.4558 C.2     1  UNL1        0.2483
      3 O          59.7421   87.2866   12.0210 O.2     1  UNL1       -0.2701
      4 H          62.6103   88.7709   11.8144 H       1  UNL1        0.1501
      5 C          60.4974   88.4647   10.1090 C.ar    1  UNL1        0.0808
      6 C          60.7883   89.8218    9.8885 C.ar    1  UNL1        0.0080
      7 C          60.6095   90.3912    8.6253 C.ar    1  UNL1        0.0148
      8 C          60.1241   89.6178    7.5598 C.ar    1  UNL1        0.0502
      9 C          59.8185   88.2666    7.7796 C.ar    1  UNL1        0.0443
     10 C          59.9979   87.6919    9.0420 C.ar    1  UNL1        0.1457
     11 F          59.6407   86.3952    9.2233 F       1  UNL1       -0.2040
     12 N          59.9388   90.1984    6.2550 N.pl3   1  UNL1       -0.3040
     13 C          61.0404   90.1968    5.2866 C.3     1  UNL1        0.1123
     14 C          61.0563   91.5103    4.5033 C.3     1  UNL1        0.1136
     15 N          59.7078   91.8265    4.0109 N.pl3   1  UNL1       -0.2897
     16 C          58.6003   91.8076    4.9757 C.3     1  UNL1        0.1136
     17 C          58.5920   90.4914    5.7535 C.3     1  UNL1        0.1123
     18 C          59.5072   92.4189    2.7116 C.ar    1  UNL1        0.1318
     19 C          60.4203   93.3454    2.1819 C.ar    1  UNL1        0.0343
     20 C          60.1887   93.8982    0.9215 C.ar    1  UNL1        0.0083
     21 C          59.0393   93.5497    0.1967 C.ar    1  UNL1        0.0906
     22 C          58.1608   92.6075    0.7535 C.ar    1  UNL1        0.1041
     23 N          58.4085   92.0804    1.9816 N.ar    1  UNL1       -0.2292
     24 C          58.8031   94.1015   -1.1862 C.3     1  UNL1        0.4200
     25 F          58.6621   93.0534   -2.0763 F       1  UNL1       -0.1658
     26 F          59.8673   94.8918   -1.5846 F       1  UNL1       -0.1658
     27 F          57.6553   94.8746   -1.2140 F       1  UNL1       -0.1658
     28 C          62.2361   87.3600   13.4162 C.3     1  UNL1        0.1535
     29 N          63.1167   85.2471   12.2964 N.am    1  UNL1       -0.2825
     30 C          62.2286   85.8581   13.2478 C.2     1  UNL1        0.2443
     31 O          61.4342   85.1512   13.9259 O.2     1  UNL1       -0.2730
     32 H          63.9504   85.7993   11.9921 H       1  UNL1        0.1549
     33 CA         61.7474   82.3289   10.3502 C.ar    1  UNL1        0.1577
     34 C          61.8353   83.6036   10.9347 C.ar    1  UNL1        0.0404
     35 C          62.9467   83.9340   11.7306 C.ar    1  UNL1        0.0536
     36 C          63.9561   82.9793   11.9097 C.ar    1  UNL1        0.0353
     37 C          63.8314   81.7203   11.3224 C.ar    1  UNL1        0.1003
     38 N          62.7438   81.4268   10.5640 N.ar    1  UNL1       -0.2372
     39 O          59.6894   82.7966    9.2548 O.2     1  UNL1       -0.2434
     40 C          60.5987   81.9585    9.4960 C.2     1  UNL1        0.3560
     41 OXT        60.4994   80.6834    8.9427 O.3     1  UNL1       -0.4761
     42 HXT        61.2022   79.9722    9.1035 H       1  UNL1        0.2955
     43 C          63.5871   87.8504   13.9656 C.3     1  UNL1        0.0569
     44 C          63.4171   89.0215   14.8930 C.ar    1  UNL1       -0.0017
     45 C          62.4927   89.1234   15.9287 C.ar    1  UNL1        0.0681
     46 N          62.7115   90.2468   16.6492 N.ar    1  UNL1       -0.3523
     47 C          63.7716   90.8501   16.0842 C.ar    1  UNL1        0.0563
     48 C          64.3984   92.0223   16.5049 C.ar    1  UNL1        0.0170
     49 C          65.5246   92.4609   15.7851 C.ar    1  UNL1        0.0015
     50 C          65.9933   91.7270   14.6735 C.ar    1  UNL1        0.0001
     51 C          65.3425   90.5460   14.2733 C.ar    1  UNL1        0.0012
     52 C          64.2299   90.1338   15.0080 C.ar    1  UNL1        0.0131
     53 H          62.1802   90.5625   17.4907 H       1  UNL1        0.1660
@<TRIPOS>BOND
     1    39    40    2
     2    40    41    1
     3    40    33    1
     4    33    34   ar
     5    34    35   ar
     6    35    29    1
     7    29    30   am
     8    30    31    2
     9    30    28    1
    10    28    43    1
    11    43    44    1
    12    44    45   ar
    13    45    46   ar
    14    46    47   ar
    15    47    48   ar
    16    48    49   ar
    17    49    50   ar
    18    50    51   ar
    19    51    52   ar
    20    28     1    1
    21     1     2   am
    22     2     3    2
    23     2     5    1
    24     5     6   ar
    25     6     7   ar
    26     7     8   ar
    27     8    12    1
    28    12    13    1
    29    13    14    1
    30    14    15    1
    31    15    18    1
    32    18    19   ar
    33    19    20   ar
    34    20    21   ar
    35    21    24    1
    36    24    25    1
    37    24    26    1
    38    24    27    1
    39    21    22   ar
    40    22    23   ar
    41    15    16    1
    42    16    17    1
    43     8     9   ar
    44     9    10   ar
    45    10    11    1
    46    35    36   ar
    47    36    37   ar
    48    37    38   ar
    49    38    33   ar
    50    52    44   ar
    51    10     5   ar
    52    52    47   ar
    53    17    12    1
    54    23    18   ar
    55    41    42    1
    56    29    32    1
    57    46    53    1
    58     1     4    1
@<TRIPOS>MOLECULE
*****
 53 58 0 0 0
SMALL
GASTEIGER

@<TRIPOS>ATOM
      1 N          60.0135   88.0844   12.7838 N.am    1  UNL1       -0.2945
      2 C          59.4455   87.4701   11.6156 C.2     1  UNL1        0.2483
      3 O          58.8217   86.3784   11.7207 O.2     1  UNL1       -0.2701
      4 H          60.2292   89.1064   12.7452 H       1  UNL1        0.1501
      5 C          59.5496   88.1204   10.2890 C.ar    1  UNL1        0.0808
      6 C          59.3158   87.3666    9.1263 C.ar    1  UNL1        0.0080
      7 C          59.4038   87.9599    7.8645 C.ar    1  UNL1        0.0148
      8 C          59.7397   89.3166    7.7394 C.ar    1  UNL1        0.0502
      9 C          59.9883   90.0687    8.8970 C.ar    1  UNL1        0.0443
     10 C          59.8995   89.4794   10.1622 C.ar    1  UNL1        0.1457
     11 F          60.1987   90.2304   11.2523 F       1  UNL1       -0.2040
     12 N          59.8308   89.9345    6.4419 N.pl3   1  UNL1       -0.3040
     13 C          61.0585   89.8038    5.6500 C.3     1  UNL1        0.1123
     14 C          61.3594   91.1150    4.9226 C.3     1  UNL1        0.1136
     15 N          60.1528   91.6102    4.2445 N.pl3   1  UNL1       -0.2897
     16 C          58.9173   91.7214    5.0311 C.3     1  UNL1        0.1136
     17 C          58.6244   90.4067    5.7543 C.3     1  UNL1        0.1123
     18 C          60.2296   92.2417    2.9503 C.ar    1  UNL1        0.1318
     19 C          61.4607   92.6370    2.4020 C.ar    1  UNL1        0.0343
     20 C          61.4924   93.2478    1.1474 C.ar    1  UNL1        0.0083
     21 C          60.3006   93.4876    0.4474 C.ar    1  UNL1        0.0906
     22 C          59.0931   93.0619    1.0221 C.ar    1  UNL1        0.1041
     23 N          59.0872   92.4667    2.2440 N.ar    1  UNL1       -0.2292
     24 C          60.3253   94.1010   -0.9295 C.3     1  UNL1        0.4200
     25 F          60.3437   93.0938   -1.8760 F       1  UNL1       -0.1658
     26 F          61.4493   94.8925   -1.0910 F       1  UNL1       -0.1658
     27 F          59.2068   94.8906   -1.1326 F       1  UNL1       -0.1658
     28 C          60.0353   87.4188   14.0907 C.3     1  UNL1        0.1535
     29 N          62.1823   86.4373   13.1311 N.am    1  UNL1       -0.2825
     30 C          61.1832   86.4385   14.1650 C.2     1  UNL1        0.2443
     31 O          61.2502   85.6167   15.1193 O.2     1  UNL1       -0.2730
     32 H          62.2738   87.3005   12.5488 H       1  UNL1        0.1549
     33 CA         63.9027   83.5913   11.3649 C.ar    1  UNL1        0.1577
     34 C          62.9748   84.6110   11.6366 C.ar    1  UNL1        0.0404
     35 C          63.0663   85.3397   12.8360 C.ar    1  UNL1        0.0536
     36 C          64.1003   85.0382   13.7316 C.ar    1  UNL1        0.0353
     37 C          64.9981   84.0130   13.4340 C.ar    1  UNL1        0.1003
     38 N          64.8817   83.3214   12.2710 N.ar    1  UNL1       -0.2372
     39 O          64.8988   82.5227    9.4889 O.2     1  UNL1       -0.2434
     40 C          63.8409   82.8190   10.1055 C.2     1  UNL1        0.3560
     41 OXT        62.6191   82.4045    9.5788 O.3     1  UNL1       -0.4761
     42 HXT        61.7393   82.6146   10.0340 H       1  UNL1        0.2955
     43 C          60.1343   88.4751   15.2051 C.3     1  UNL1        0.0569
     44 C          61.5630   88.8395   15.4992 C.ar    1  UNL1       -0.0017
     45 C          62.2978   88.4514   16.6159 C.ar    1  UNL1        0.0681
     46 N          63.5884   88.8352   16.4896 N.ar    1  UNL1       -0.3523
     47 C          63.6776   89.4533   15.2993 C.ar    1  UNL1        0.0563
     48 C          64.8232   89.9844   14.7082 C.ar    1  UNL1        0.0170
     49 C          64.6983   90.5586   13.4301 C.ar    1  UNL1        0.0015
     50 C          63.4456   90.5893   12.7792 C.ar    1  UNL1        0.0001
     51 C          62.3069   90.0433   13.3986 C.ar    1  UNL1        0.0012
     52 C          62.4617   89.4779   14.6651 C.ar    1  UNL1        0.0131
     53 H          64.3617   88.6593   17.1688 H       1  UNL1        0.1660
@<TRIPOS>BOND
     1    39    40    2
     2    40    41    1
     3    40    33    1
     4    33    34   ar
     5    34    35   ar
     6    35    29    1
     7    29    30   am
     8    30    31    2
     9    30    28    1
    10    28    43    1
    11    43    44    1
    12    44    45   ar
    13    45    46   ar
    14    46    47   ar
    15    47    48   ar
    16    48    49   ar
    17    49    50   ar
    18    50    51   ar
    19    51    52   ar
    20    28     1    1
    21     1     2   am
    22     2     3    2
    23     2     5    1
    24     5     6   ar
    25     6     7   ar
    26     7     8   ar
    27     8    12    1
    28    12    13    1
    29    13    14    1
    30    14    15    1
    31    15    18    1
    32    18    19   ar
    33    19    20   ar
    34    20    21   ar
    35    21    24    1
    36    24    25    1
    37    24    26    1
    38    24    27    1
    39    21    22   ar
    40    22    23   ar
    41    15    16    1
    42    16    17    1
    43     8     9   ar
    44     9    10   ar
    45    10    11    1
    46    35    36   ar
    47    36    37   ar
    48    37    38   ar
    49    38    33   ar
    50    52    44   ar
    51    10     5   ar
    52    52    47   ar
    53    17    12    1
    54    23    18   ar
    55    41    42    1
    56    29    32    1
    57    46    53    1
    58     1     4    1
@<TRIPOS>MOLECULE
*****
 53 58 0 0 0
SMALL
GASTEIGER

@<TRIPOS>ATOM
      1 N          60.7540   88.7418   12.5953 N.am    1  UNL1       -0.2945
      2 C          61.0870   88.0131   11.4025 C.2     1  UNL1        0.2483
      3 O          61.5873   86.8582   11.4914 O.2     1  UNL1       -0.2701
      4 H          60.0639   89.5229   12.5167 H       1  UNL1        0.1501
      5 C          60.8163   88.5844   10.0632 C.ar    1  UNL1        0.0808
      6 C          61.4146   89.8011    9.6937 C.ar    1  UNL1        0.0080
      7 C          61.1774   90.3566    8.4339 C.ar    1  UNL1        0.0148
      8 C          60.3269   89.7125    7.5224 C.ar    1  UNL1        0.0502
      9 C          59.7161   88.5054    7.8930 C.ar    1  UNL1        0.0443
     10 C          59.9522   87.9447    9.1523 C.ar    1  UNL1        0.1457
     11 F          59.3003   86.8030    9.4888 F       1  UNL1       -0.2040
     12 N          60.0793   90.2791    6.2218 N.pl3   1  UNL1       -0.3040
     13 C          61.1405   90.2867    5.2093 C.3     1  UNL1        0.1123
     14 C          61.1034   91.5936    4.4159 C.3     1  UNL1        0.1136
     15 N          59.7311   91.8844    3.9765 N.pl3   1  UNL1       -0.2897
     16 C          58.6642   91.8562    4.9858 C.3     1  UNL1        0.1136
     17 C          58.7088   90.5467    5.7735 C.3     1  UNL1        0.1123
     18 C          59.4683   92.4626    2.6818 C.ar    1  UNL1        0.1318
     19 C          60.3912   93.3228    2.0646 C.ar    1  UNL1        0.0343
     20 C          60.0982   93.8642    0.8120 C.ar    1  UNL1        0.0083
     21 C          58.8794   93.5708    0.1824 C.ar    1  UNL1        0.0906
     22 C          57.9920   92.6934    0.8245 C.ar    1  UNL1        0.1041
     23 N          58.3001   92.1762    2.0430 N.ar    1  UNL1       -0.2292
     24 C          58.5725   94.1090   -1.1920 C.3     1  UNL1        0.4200
     25 F          58.3828   93.0523   -2.0625 F       1  UNL1       -0.1658
     26 F          59.6163   94.8922   -1.6536 F       1  UNL1       -0.1658
     27 F          57.4266   94.8850   -1.1679 F       1  UNL1       -0.1658
     28 C          61.1127   88.2639   13.9349 C.3     1  UNL1        0.1535
     29 N          62.9332   90.0471   13.9365 N.am    1  UNL1       -0.2825
     30 C          61.9416   89.2988   14.6603 C.2     1  UNL1        0.2443
     31 O          61.7740   89.4882   15.8959 O.2     1  UNL1       -0.2730
     32 H          62.8359   90.0958   12.8969 H       1  UNL1        0.1549
     33 CA         66.2705   91.7216   14.4235 C.ar    1  UNL1        0.1577
     34 C          65.2346   90.9888   13.8199 C.ar    1  UNL1        0.0404
     35 C          64.0492   90.7345   14.5326 C.ar    1  UNL1        0.0536
     36 C          63.9234   91.2369   15.8341 C.ar    1  UNL1        0.0353
     37 C          64.9756   91.9522   16.4057 C.ar    1  UNL1        0.1003
     38 N          66.1116   92.1771   15.6962 N.ar    1  UNL1       -0.2372
     39 O          67.4885   92.6569   12.6082 O.2     1  UNL1       -0.2434
     40 C          67.5217   92.0178   13.6934 C.2     1  UNL1        0.3560
     41 OXT        68.7556   91.5998   14.1881 O.3     1  UNL1       -0.4761
     42 HXT        68.8394   91.0841   15.0556 H       1  UNL1        0.2955
     43 C          59.8337   87.9266   14.7209 C.3     1  UNL1        0.0569
     44 C          58.8120   87.2459   13.8529 C.ar    1  UNL1       -0.0017
     45 C          57.6660   87.8290   13.3197 C.ar    1  UNL1        0.0681
     46 N          57.0509   86.9736   12.4718 N.ar    1  UNL1       -0.3523
     47 C          57.8030   85.8596   12.4571 C.ar    1  UNL1        0.0563
     48 C          57.5944   84.7109   11.6950 C.ar    1  UNL1        0.0170
     49 C          58.5326   83.6685   11.8059 C.ar    1  UNL1        0.0015
     50 C          59.6448   83.7959   12.6664 C.ar    1  UNL1        0.0001
     51 C          59.8313   84.9678   13.4216 C.ar    1  UNL1        0.0012
     52 C          58.8862   85.9860   13.2889 C.ar    1  UNL1        0.0131
     53 H          56.1833   87.1566   11.9203 H       1  UNL1        0.1660
@<TRIPOS>BOND
     1    39    40    2
     2    40    41    1
     3    40    33    1
     4    33    34   ar
     5    34    35   ar
     6    35    29    1
     7    29    30   am
     8    30    31    2
     9    30    28    1
    10    28    43    1
    11    43    44    1
    12    44    45   ar
    13    45    46   ar
    14    46    47   ar
    15    47    48   ar
    16    48    49   ar
    17    49    50   ar
    18    50    51   ar
    19    51    52   ar
    20    28     1    1
    21     1     2   am
    22     2     3    2
    23     2     5    1
    24     5     6   ar
    25     6     7   ar
    26     7     8   ar
    27     8    12    1
    28    12    13    1
    29    13    14    1
    30    14    15    1
    31    15    18    1
    32    18    19   ar
    33    19    20   ar
    34    20    21   ar
    35    21    24    1
    36    24    25    1
    37    24    26    1
    38    24    27    1
    39    21    22   ar
    40    22    23   ar
    41    15    16    1
    42    16    17    1
    43     8     9   ar
    44     9    10   ar
    45    10    11    1
    46    35    36   ar
    47    36    37   ar
    48    37    38   ar
    49    38    33   ar
    50    52    44   ar
    51    10     5   ar
    52    52    47   ar
    53    17    12    1
    54    23    18   ar
    55    41    42    1
    56    29    32    1
    57    46    53    1
    58     1     4    1
@<TRIPOS>MOLECULE
*****
 53 58 0 0 0
SMALL
GASTEIGER

@<TRIPOS>ATOM
      1 N          61.5386   84.9344   13.6555 N.am    1  UNL1       -0.2945
      2 C          60.2703   85.3065   13.0918 C.2     1  UNL1        0.2483
      3 O          59.2034   84.8654   13.6008 O.2     1  UNL1       -0.2701
      4 H          62.3647   85.5401   13.4478 H       1  UNL1        0.1501
      5 C          60.1942   86.2340   11.9397 C.ar    1  UNL1        0.0808
      6 C          60.0816   85.7163   10.6381 C.ar    1  UNL1        0.0080
      7 C          60.0036   86.5722    9.5366 C.ar    1  UNL1        0.0148
      8 C          60.0492   87.9635    9.7136 C.ar    1  UNL1        0.0502
      9 C          60.1765   88.4838   11.0099 C.ar    1  UNL1        0.0443
     10 C          60.2529   87.6308   12.1157 C.ar    1  UNL1        0.1457
     11 F          60.4277   88.1750   13.3465 F       1  UNL1       -0.2040
     12 N          59.9680   88.8512    8.5826 N.pl3   1  UNL1       -0.3040
     13 C          58.9471   88.6365    7.5515 C.3     1  UNL1        0.1123
     14 C          59.5252   88.9322    6.1669 C.3     1  UNL1        0.1136
     15 N          60.2348   90.2195    6.1750 N.pl3   1  UNL1       -0.2897
     16 C          61.2424   90.4440    7.2200 C.3     1  UNL1        0.1136
     17 C          60.6559   90.1464    8.6002 C.3     1  UNL1        0.1123
     18 C          60.1725   91.1135    5.0453 C.ar    1  UNL1        0.1318
     19 C          58.9871   91.7891    4.7123 C.ar    1  UNL1        0.0343
     20 C          58.9671   92.6440    3.6093 C.ar    1  UNL1        0.0083
     21 C          60.1167   92.8104    2.8227 C.ar    1  UNL1        0.0906
     22 C          61.2856   92.1310    3.1991 C.ar    1  UNL1        0.1041
     23 N          61.2819   91.3057    4.2790 N.ar    1  UNL1       -0.2292
     24 C          60.1224   93.7686    1.6589 C.3     1  UNL1        0.4200
     25 F          61.4200   94.1749    1.4105 F       1  UNL1       -0.1658
     26 F          59.3471   94.8806    1.9384 F       1  UNL1       -0.1658
     27 F          59.6148   93.1610    0.5236 F       1  UNL1       -0.1658
     28 C          61.6632   83.9299   14.7171 C.3     1  UNL1        0.1535
     29 N          61.7967   82.3859   12.6941 N.am    1  UNL1       -0.2825
     30 C          61.7760   82.5448   14.1229 C.2     1  UNL1        0.2443
     31 O          61.8326   81.5368   14.8788 O.2     1  UNL1       -0.2730
     32 H          62.0588   83.2197   12.1206 H       1  UNL1        0.1549
     33 CA         59.9155   79.4786   11.2153 C.ar    1  UNL1        0.1577
     34 C          60.1840   80.6337   11.9691 C.ar    1  UNL1        0.0404
     35 C          61.4847   81.1680   11.9924 C.ar    1  UNL1        0.0536
     36 C          62.4867   80.5378   11.2432 C.ar    1  UNL1        0.0353
     37 C          62.1867   79.3872   10.5139 C.ar    1  UNL1        0.1003
     38 N          60.9230   78.8897   10.5151 N.ar    1  UNL1       -0.2372
     39 O          57.5606   79.6424   10.9294 O.2     1  UNL1       -0.2434
     40 C          58.5546   78.9031   11.1593 C.2     1  UNL1        0.3560
     41 OXT        58.3449   77.5398   11.3572 O.3     1  UNL1       -0.4761
     42 HXT        59.1079   76.9008   11.5443 H       1  UNL1        0.2955
     43 C          62.8828   84.2579   15.5959 C.3     1  UNL1        0.0569
     44 C          62.7739   85.6268   16.2081 C.ar    1  UNL1       -0.0017
     45 C          62.4094   85.9145   17.5203 C.ar    1  UNL1        0.0681
     46 N          62.5544   87.2352   17.7727 N.ar    1  UNL1       -0.3523
     47 C          63.0164   87.7825   16.6352 C.ar    1  UNL1        0.0563
     48 C          63.3608   89.1163   16.4199 C.ar    1  UNL1        0.0170
     49 C          63.8632   89.4700   15.1545 C.ar    1  UNL1        0.0015
     50 C          64.0078   88.4942   14.1441 C.ar    1  UNL1        0.0001
     51 C          63.6546   87.1552   14.3906 C.ar    1  UNL1        0.0012
     52 C          63.1619   86.8333   15.6559 C.ar    1  UNL1        0.0131
     53 H          62.3709   87.7219   18.6781 H       1  UNL1        0.1660
@<TRIPOS>BOND
     1    39    40    2
     2    40    41    1
     3    40    33    1
     4    33    34   ar
     5    34    35   ar
     6    35    29    1
     7    29    30   am
     8    30    31    2
     9    30    28    1
    10    28    43    1
    11    43    44    1
    12    44    45   ar
    13    45    46   ar
    14    46    47   ar
    15    47    48   ar
    16    48    49   ar
    17    49    50   ar
    18    50    51   ar
    19    51    52   ar
    20    28     1    1
    21     1     2   am
    22     2     3    2
    23     2     5    1
    24     5     6   ar
    25     6     7   ar
    26     7     8   ar
    27     8    12    1
    28    12    13    1
    29    13    14    1
    30    14    15    1
    31    15    18    1
    32    18    19   ar
    33    19    20   ar
    34    20    21   ar
    35    21    24    1
    36    24    25    1
    37    24    26    1
    38    24    27    1
    39    21    22   ar
    40    22    23   ar
    41    15    16    1
    42    16    17    1
    43     8     9   ar
    44     9    10   ar
    45    10    11    1
    46    35    36   ar
    47    36    37   ar
    48    37    38   ar
    49    38    33   ar
    50    52    44   ar
    51    10     5   ar
    52    52    47   ar
    53    17    12    1
    54    23    18   ar
    55    41    42    1
    56    29    32    1
    57    46    53    1
    58     1     4    1
@<TRIPOS>MOLECULE
*****
 53 58 0 0 0
SMALL
GASTEIGER

@<TRIPOS>ATOM
      1 N          60.6182   88.1722   12.6663 N.am    1  UNL1       -0.2945
      2 C          59.6018   87.9099   11.6851 C.2     1  UNL1        0.2483
      3 O          58.6080   87.1935   11.9867 O.2     1  UNL1       -0.2701
      4 H          61.2391   89.0004   12.5205 H       1  UNL1        0.1501
      5 C          59.6844   88.5009   10.3296 C.ar    1  UNL1        0.0808
      6 C          59.3289   87.7266    9.2120 C.ar    1  UNL1        0.0080
      7 C          59.3945   88.2645    7.9243 C.ar    1  UNL1        0.0148
      8 C          59.8289   89.5842    7.7271 C.ar    1  UNL1        0.0502
      9 C          60.1987   90.3554    8.8388 C.ar    1  UNL1        0.0443
     10 C          60.1327   89.8217   10.1298 C.ar    1  UNL1        0.1457
     11 F          60.5491   90.5852   11.1716 F       1  UNL1       -0.2040
     12 N          59.8975   90.1450    6.4025 N.pl3   1  UNL1       -0.3040
     13 C          61.1288   90.0217    5.6150 C.3     1  UNL1        0.1123
     14 C          61.3827   91.3081    4.8278 C.3     1  UNL1        0.1136
     15 N          60.1592   91.7288    4.1303 N.pl3   1  UNL1       -0.2897
     16 C          58.9208   91.8322    4.9135 C.3     1  UNL1        0.1136
     17 C          58.6749   90.5423    5.6965 C.3     1  UNL1        0.1123
     18 C          60.2131   92.3029    2.8085 C.ar    1  UNL1        0.1318
     19 C          61.4106   92.3389    2.0756 C.ar    1  UNL1        0.0343
     20 C          61.4217   92.9058    0.8003 C.ar    1  UNL1        0.0083
     21 C          60.2501   93.4582    0.2617 C.ar    1  UNL1        0.0906
     22 C          59.0706   93.3867    1.0189 C.ar    1  UNL1        0.1041
     23 N          59.0834   92.8274    2.2575 N.ar    1  UNL1       -0.2292
     24 C          60.2373   94.0284   -1.1338 C.3     1  UNL1        0.4200
     25 F          61.3108   94.8860   -1.2847 F       1  UNL1       -0.1658
     26 F          59.0652   94.7276   -1.3645 F       1  UNL1       -0.1658
     27 F          60.3313   93.0180   -2.0751 F       1  UNL1       -0.1658
     28 C          60.6351   87.5136   13.9769 C.3     1  UNL1        0.1535
     29 N          62.4232   85.7015   14.0899 N.am    1  UNL1       -0.2825
     30 C          61.0565   86.0690   13.8365 C.2     1  UNL1        0.2443
     31 O          60.2160   85.1983   13.4815 O.2     1  UNL1       -0.2730
     32 H          62.9993   86.3566   14.6658 H       1  UNL1        0.1549
     33 CA         63.7365   82.1791   13.8740 C.ar    1  UNL1        0.1577
     34 C          63.1661   83.3470   14.4080 C.ar    1  UNL1        0.0404
     35 C          63.0596   84.5016   13.6121 C.ar    1  UNL1        0.0536
     36 C          63.5151   84.4529   12.2883 C.ar    1  UNL1        0.0353
     37 C          64.0846   83.2795   11.7939 C.ar    1  UNL1        0.1003
     38 N          64.1805   82.1816   12.5875 N.ar    1  UNL1       -0.2372
     39 O          64.3148   79.8922   14.1728 O.2     1  UNL1       -0.2434
     40 C          63.8475   80.9457   14.6818 C.2     1  UNL1        0.3560
     41 OXT        63.4413   80.9235   16.0146 O.3     1  UNL1       -0.4761
     42 HXT        63.0598   81.7418   16.4733 H       1  UNL1        0.2955
     43 C          61.5764   88.2770   14.9248 C.3     1  UNL1        0.0569
     44 C          62.6530   89.0059   14.1698 C.ar    1  UNL1       -0.0017
     45 C          62.9119   88.9074   12.8057 C.ar    1  UNL1        0.0681
     46 N          63.8529   89.8060   12.4368 N.ar    1  UNL1       -0.3523
     47 C          64.1834   90.4777   13.5533 C.ar    1  UNL1        0.0563
     48 C          65.0847   91.5355   13.6658 C.ar    1  UNL1        0.0170
     49 C          65.2542   92.1234   14.9325 C.ar    1  UNL1        0.0015
     50 C          64.5282   91.6460   16.0455 C.ar    1  UNL1        0.0001
     51 C          63.6234   90.5786   15.9018 C.ar    1  UNL1        0.0012
     52 C          63.4738   90.0173   14.6330 C.ar    1  UNL1        0.0131
     53 H          64.2235   89.9624   11.4733 H       1  UNL1        0.1660
@<TRIPOS>BOND
     1    39    40    2
     2    40    41    1
     3    40    33    1
     4    33    34   ar
     5    34    35   ar
     6    35    29    1
     7    29    30   am
     8    30    31    2
     9    30    28    1
    10    28    43    1
    11    43    44    1
    12    44    45   ar
    13    45    46   ar
    14    46    47   ar
    15    47    48   ar
    16    48    49   ar
    17    49    50   ar
    18    50    51   ar
    19    51    52   ar
    20    28     1    1
    21     1     2   am
    22     2     3    2
    23     2     5    1
    24     5     6   ar
    25     6     7   ar
    26     7     8   ar
    27     8    12    1
    28    12    13    1
    29    13    14    1
    30    14    15    1
    31    15    18    1
    32    18    19   ar
    33    19    20   ar
    34    20    21   ar
    35    21    24    1
    36    24    25    1
    37    24    26    1
    38    24    27    1
    39    21    22   ar
    40    22    23   ar
    41    15    16    1
    42    16    17    1
    43     8     9   ar
    44     9    10   ar
    45    10    11    1
    46    35    36   ar
    47    36    37   ar
    48    37    38   ar
    49    38    33   ar
    50    52    44   ar
    51    10     5   ar
    52    52    47   ar
    53    17    12    1
    54    23    18   ar
    55    41    42    1
    56    29    32    1
    57    46    53    1
    58     1     4    1
