@<TRIPOS>MOLECULE
*****
 35 38 0 0 0
SMALL
GASTEIGER

@<TRIPOS>ATOM
      1 C          52.3038   12.7823  -23.7341 C.3     1  UNL1        0.1484
      2 O          53.5373   12.5062  -23.1141 O.3     1  UNL1       -0.3786
      3 H          53.4575   11.6594  -22.6067 H       1  UNL1        0.2108
      4 C          51.2694   13.2766  -22.7376 C.ar    1  UNL1        0.0069
      5 C          51.6048   13.5323  -21.3959 C.ar    1  UNL1       -0.0018
      6 C          50.6267   13.9453  -20.4906 C.ar    1  UNL1        0.0011
      7 C          49.3011   14.0899  -20.9014 C.ar    1  UNL1        0.0158
      8 C          48.9391   13.8303  -22.2350 C.ar    1  UNL1        0.0642
      9 C          49.9303   13.4225  -23.1421 C.ar    1  UNL1        0.0139
     10 N          47.5883   13.9927  -22.7031 N.pl3   1  UNL1       -0.2188
     11 H          46.8184   13.4929  -22.2042 H       1  UNL1        0.1734
     12 S          47.1130   15.1126  -23.9400 S.O2    1  UNL1        0.0522
     13 O          46.2809   16.2139  -23.3457 O.2     1  UNL1       -0.1545
     14 O          48.3501   15.7179  -24.5438 O.2     1  UNL1       -0.1545
     15 C          46.1886   14.2450  -25.2087 C.3     1  UNL1        0.1488
     16 C          46.8982   12.9977  -25.7250 C.3     1  UNL1        0.0255
     17 C          45.7870   12.1308  -25.1480 C.3     1  UNL1        0.0036
     18 C          45.0734   13.3752  -24.6375 C.3     1  UNL1        0.0255
     19 C          51.7793   11.5918  -24.5621 C.3     1  UNL1        0.1029
     20 N          52.1510   10.3071  -23.9465 N.3     1  UNL1       -0.2921
     21 H          53.1795   10.1696  -24.0875 H       1  UNL1        0.1234
     22 C          51.4616    9.1747  -24.5805 C.3     1  UNL1        0.1166
     23 C          50.3048    8.6900  -23.7075 C.3     1  UNL1        0.2224
     24 O          50.4628    9.1839  -22.3794 O.3     1  UNL1       -0.4739
     25 C          45.1564   12.0858  -19.4914 C.3     1  UNL1        0.0540
     26 C          46.5942   11.7118  -19.3486 C.ar    1  UNL1        0.0801
     27 N          47.3225   11.8902  -18.2201 N.ar    1  UNL1       -0.1770
     28 N          48.5375   11.3950  -18.4304 N.ar    1  UNL1       -0.2760
     29 C          48.5848   10.8948  -19.6758 C.ar    1  UNL1        0.0780
     30 C          49.6491   10.2622  -20.3129 C.ar    1  UNL1        0.0554
     31 C          49.4511    9.8186  -21.6453 C.ar    1  UNL1        0.1401
     32 C          48.1968   10.0204  -22.2718 C.ar    1  UNL1        0.0370
     33 C          47.1379   10.6455  -21.5878 C.ar    1  UNL1        0.0058
     34 C          47.3790   11.0742  -20.2866 C.ar    1  UNL1        0.0324
     35 H          49.3073   11.3936  -17.7250 H       1  UNL1        0.1889
@<TRIPOS>BOND
     1    25    26    1
     2    26    27   ar
     3    27    28   ar
     4    28    29   ar
     5    29    30   ar
     6    30    31   ar
     7    31    24    1
     8    24    23    1
     9    23    22    1
    10    22    20    1
    11    20    19    1
    12    19     1    1
    13     1     2    1
    14     1     4    1
    15     4     5   ar
    16     5     6   ar
    17     6     7   ar
    18     7     8   ar
    19     8    10    1
    20    10    12    1
    21    12    13    2
    22    12    14    2
    23    12    15    1
    24    15    16    1
    25    16    17    1
    26    17    18    1
    27     8     9   ar
    28    31    32   ar
    29    32    33   ar
    30    33    34   ar
    31    34    26   ar
    32    34    29   ar
    33     9     4   ar
    34    18    15    1
    35    28    35    1
    36    20    21    1
    37     2     3    1
    38    10    11    1
@<TRIPOS>MOLECULE
*****
 35 38 0 0 0
SMALL
GASTEIGER

@<TRIPOS>ATOM
      1 C          51.5546   12.8892  -23.6859 C.3     1  UNL1        0.1484
      2 O          52.2981   12.7134  -22.5032 O.3     1  UNL1       -0.3786
      3 H          52.0582   11.8405  -22.1016 H       1  UNL1        0.2108
      4 C          50.1028   13.2278  -23.3948 C.ar    1  UNL1        0.0069
      5 C          49.7526   14.2361  -22.4789 C.ar    1  UNL1       -0.0018
      6 C          48.4115   14.4990  -22.1978 C.ar    1  UNL1        0.0011
      7 C          47.4032   13.7511  -22.8068 C.ar    1  UNL1        0.0158
      8 C          47.7283   12.7309  -23.7181 C.ar    1  UNL1        0.0642
      9 C          49.0799   12.4773  -24.0019 C.ar    1  UNL1        0.0139
     10 N          46.7172   11.9553  -24.3859 N.pl3   1  UNL1       -0.2188
     11 H          46.4722   11.0131  -24.0069 H       1  UNL1        0.1734
     12 S          45.7331   12.5487  -25.6858 S.O2    1  UNL1        0.0522
     13 O          45.3173   11.4125  -26.5772 O.2     1  UNL1       -0.1545
     14 O          44.4981   13.1809  -25.1059 O.2     1  UNL1       -0.1545
     15 C          46.6521   13.7731  -26.6203 C.3     1  UNL1        0.1488
     16 C          46.1931   13.8943  -28.0697 C.3     1  UNL1        0.0255
     17 C          45.7175   15.3150  -27.7967 C.3     1  UNL1        0.0036
     18 C          46.1810   15.1986  -26.3509 C.3     1  UNL1        0.0255
     19 C          51.6822   11.6902  -24.6473 C.3     1  UNL1        0.1029
     20 N          52.1064   10.4747  -23.9331 N.3     1  UNL1       -0.2921
     21 H          53.1497   10.4123  -23.9979 H       1  UNL1        0.1234
     22 C          51.5511    9.2581  -24.5423 C.3     1  UNL1        0.1166
     23 C          50.3685    8.7375  -23.7263 C.3     1  UNL1        0.2224
     24 O          50.4933    9.1622  -22.3710 O.3     1  UNL1       -0.4739
     25 C          45.2218   12.0159  -19.3731 C.3     1  UNL1        0.0540
     26 C          46.7086   11.9866  -19.5003 C.ar    1  UNL1        0.0801
     27 N          47.5555   12.7286  -18.7467 N.ar    1  UNL1       -0.1770
     28 N          48.7994   12.4093  -19.0881 N.ar    1  UNL1       -0.2760
     29 C          48.7511   11.4653  -20.0421 C.ar    1  UNL1        0.0780
     30 C          49.8112   10.8242  -20.6776 C.ar    1  UNL1        0.0554
     31 C          49.4999    9.8535  -21.6635 C.ar    1  UNL1        0.1401
     32 C          48.1450    9.5646  -21.9589 C.ar    1  UNL1        0.0370
     33 C          47.1004   10.2188  -21.2803 C.ar    1  UNL1        0.0058
     34 C          47.4509   11.1711  -20.3286 C.ar    1  UNL1        0.0324
     35 H          49.6566   12.8262  -18.6620 H       1  UNL1        0.1889
@<TRIPOS>BOND
     1    25    26    1
     2    26    27   ar
     3    27    28   ar
     4    28    29   ar
     5    29    30   ar
     6    30    31   ar
     7    31    24    1
     8    24    23    1
     9    23    22    1
    10    22    20    1
    11    20    19    1
    12    19     1    1
    13     1     2    1
    14     1     4    1
    15     4     5   ar
    16     5     6   ar
    17     6     7   ar
    18     7     8   ar
    19     8    10    1
    20    10    12    1
    21    12    13    2
    22    12    14    2
    23    12    15    1
    24    15    16    1
    25    16    17    1
    26    17    18    1
    27     8     9   ar
    28    31    32   ar
    29    32    33   ar
    30    33    34   ar
    31    34    26   ar
    32    34    29   ar
    33     9     4   ar
    34    18    15    1
    35    28    35    1
    36    20    21    1
    37     2     3    1
    38    10    11    1
@<TRIPOS>MOLECULE
*****
 35 38 0 0 0
SMALL
GASTEIGER

@<TRIPOS>ATOM
      1 C          52.6328   12.9421  -23.6380 C.3     1  UNL1        0.1484
      2 O          53.7228   12.6420  -22.7986 O.3     1  UNL1       -0.3786
      3 H          53.5099   11.8273  -22.2773 H       1  UNL1        0.2108
      4 C          51.4693   13.5346  -22.8618 C.ar    1  UNL1        0.0069
      5 C          51.1166   13.0563  -21.5870 C.ar    1  UNL1       -0.0018
      6 C          50.0173   13.5893  -20.9129 C.ar    1  UNL1        0.0011
      7 C          49.2436   14.5886  -21.5043 C.ar    1  UNL1        0.0158
      8 C          49.5699   15.0758  -22.7822 C.ar    1  UNL1        0.0642
      9 C          50.6821   14.5401  -23.4512 C.ar    1  UNL1        0.0139
     10 N          48.8124   16.1230  -23.4145 N.pl3   1  UNL1       -0.2188
     11 H          48.8915   17.0966  -23.0441 H       1  UNL1        0.1734
     12 S          47.9030   15.9210  -24.8782 S.O2    1  UNL1        0.0522
     13 O          47.8467   14.4668  -25.2532 O.2     1  UNL1       -0.1545
     14 O          46.5006   16.4117  -24.6462 O.2     1  UNL1       -0.1545
     15 C          48.6639   16.8767  -26.1914 C.3     1  UNL1        0.1488
     16 C          49.4819   18.0583  -25.6807 C.3     1  UNL1        0.0255
     17 C          50.7501   17.4077  -26.2169 C.3     1  UNL1        0.0036
     18 C          49.9346   16.2302  -26.7335 C.3     1  UNL1        0.0255
     19 C          52.1964   11.7355  -24.4934 C.3     1  UNL1        0.1029
     20 N          52.9341   10.5183  -24.1171 N.3     1  UNL1       -0.2921
     21 H          53.9370   10.6553  -24.3853 H       1  UNL1        0.1234
     22 C          52.4415    9.3340  -24.8343 C.3     1  UNL1        0.1166
     23 C          50.9192    9.3748  -24.9617 C.3     1  UNL1        0.2224
     24 O          50.3212    8.9823  -23.7283 O.3     1  UNL1       -0.4739
     25 C          45.7729   12.0535  -19.8811 C.3     1  UNL1        0.0540
     26 C          46.4285   11.9992  -21.2209 C.ar    1  UNL1        0.0801
     27 N          46.2000   12.8847  -22.2206 N.ar    1  UNL1       -0.1770
     28 N          46.9906   12.5684  -23.2408 N.ar    1  UNL1       -0.2760
     29 C          47.7256   11.4988  -22.8954 C.ar    1  UNL1        0.0780
     30 C          48.6975   10.8402  -23.6440 C.ar    1  UNL1        0.0554
     31 C          49.3399    9.7221  -23.0537 C.ar    1  UNL1        0.1401
     32 C          48.9864    9.3233  -21.7413 C.ar    1  UNL1        0.0370
     33 C          48.0136   10.0272  -21.0078 C.ar    1  UNL1        0.0058
     34 C          47.4013   11.1108  -21.6290 C.ar    1  UNL1        0.0324
     35 H          47.0270   13.0879  -24.1457 H       1  UNL1        0.1889
@<TRIPOS>BOND
     1    25    26    1
     2    26    27   ar
     3    27    28   ar
     4    28    29   ar
     5    29    30   ar
     6    30    31   ar
     7    31    24    1
     8    24    23    1
     9    23    22    1
    10    22    20    1
    11    20    19    1
    12    19     1    1
    13     1     2    1
    14     1     4    1
    15     4     5   ar
    16     5     6   ar
    17     6     7   ar
    18     7     8   ar
    19     8    10    1
    20    10    12    1
    21    12    13    2
    22    12    14    2
    23    12    15    1
    24    15    16    1
    25    16    17    1
    26    17    18    1
    27     8     9   ar
    28    31    32   ar
    29    32    33   ar
    30    33    34   ar
    31    34    26   ar
    32    34    29   ar
    33     9     4   ar
    34    18    15    1
    35    28    35    1
    36    20    21    1
    37     2     3    1
    38    10    11    1
@<TRIPOS>MOLECULE
*****
 35 38 0 0 0
SMALL
GASTEIGER

@<TRIPOS>ATOM
      1 C          52.7592   13.0348  -23.7392 C.3     1  UNL1        0.1484
      2 O          53.7024   12.6905  -22.7522 O.3     1  UNL1       -0.3786
      3 H          53.4230   11.8416  -22.3253 H       1  UNL1        0.2108
      4 C          51.4727   13.5648  -23.1298 C.ar    1  UNL1        0.0069
      5 C          50.9945   13.0910  -21.8950 C.ar    1  UNL1       -0.0018
      6 C          49.7882   13.5638  -21.3772 C.ar    1  UNL1        0.0011
      7 C          49.0328   14.4970  -22.0881 C.ar    1  UNL1        0.0158
      8 C          49.4847   14.9781  -23.3296 C.ar    1  UNL1        0.0642
      9 C          50.7033   14.5034  -23.8406 C.ar    1  UNL1        0.0139
     10 N          48.7474   15.9593  -24.0804 N.pl3   1  UNL1       -0.2188
     11 H          48.4289   16.8290  -23.5972 H       1  UNL1        0.1734
     12 S          48.4985   15.8891  -25.7960 S.O2    1  UNL1        0.0522
     13 O          49.0025   14.5806  -26.3366 O.2     1  UNL1       -0.1545
     14 O          47.0239   15.9873  -26.0738 O.2     1  UNL1       -0.1545
     15 C          49.3496   17.2594  -26.5801 C.3     1  UNL1        0.1488
     16 C          49.4602   18.4907  -25.6870 C.3     1  UNL1        0.0255
     17 C          50.9743   18.3304  -25.6592 C.3     1  UNL1        0.0036
     18 C          50.8669   17.1048  -26.5563 C.3     1  UNL1        0.0255
     19 C          52.4928   11.8827  -24.7289 C.3     1  UNL1        0.1029
     20 N          52.6827   10.5714  -24.0871 N.3     1  UNL1       -0.2921
     21 H          53.7087   10.3621  -24.0828 H       1  UNL1        0.1234
     22 C          52.0138    9.4944  -24.8303 C.3     1  UNL1        0.1166
     23 C          50.7606    9.0266  -24.0914 C.3     1  UNL1        0.2224
     24 O          50.1798   10.1209  -23.3858 O.3     1  UNL1       -0.4739
     25 C          44.3363   13.2002  -24.5226 C.3     1  UNL1        0.0540
     26 C          45.6342   12.7511  -25.1069 C.ar    1  UNL1        0.0801
     27 N          46.0368   13.0194  -26.3725 N.ar    1  UNL1       -0.1770
     28 N          47.2576   12.5194  -26.5320 N.ar    1  UNL1       -0.2760
     29 C          47.6382   11.9465  -25.3786 C.ar    1  UNL1        0.0780
     30 C          48.8451   11.3182  -25.0829 C.ar    1  UNL1        0.0554
     31 C          49.0093   10.7846  -23.7793 C.ar    1  UNL1        0.1401
     32 C          47.9633   10.9133  -22.8328 C.ar    1  UNL1        0.0370
     33 C          46.7655   11.5737  -23.1625 C.ar    1  UNL1        0.0058
     34 C          46.6427   12.0726  -24.4552 C.ar    1  UNL1        0.0324
     35 H          47.8146   12.5851  -27.4127 H       1  UNL1        0.1889
@<TRIPOS>BOND
     1    25    26    1
     2    26    27   ar
     3    27    28   ar
     4    28    29   ar
     5    29    30   ar
     6    30    31   ar
     7    31    24    1
     8    24    23    1
     9    23    22    1
    10    22    20    1
    11    20    19    1
    12    19     1    1
    13     1     2    1
    14     1     4    1
    15     4     5   ar
    16     5     6   ar
    17     6     7   ar
    18     7     8   ar
    19     8    10    1
    20    10    12    1
    21    12    13    2
    22    12    14    2
    23    12    15    1
    24    15    16    1
    25    16    17    1
    26    17    18    1
    27     8     9   ar
    28    31    32   ar
    29    32    33   ar
    30    33    34   ar
    31    34    26   ar
    32    34    29   ar
    33     9     4   ar
    34    18    15    1
    35    28    35    1
    36    20    21    1
    37     2     3    1
    38    10    11    1
@<TRIPOS>MOLECULE
*****
 35 38 0 0 0
SMALL
GASTEIGER

@<TRIPOS>ATOM
      1 C          51.1522   12.5215  -24.8497 C.3     1  UNL1        0.1484
      2 O          51.2513   12.7434  -26.2365 O.3     1  UNL1       -0.3786
      3 H          50.3425   12.7211  -26.6295 H       1  UNL1        0.2108
      4 C          50.8633   11.0648  -24.5305 C.ar    1  UNL1        0.0069
      5 C          50.8873   10.0747  -25.5292 C.ar    1  UNL1       -0.0018
      6 C          50.5769    8.7506  -25.2174 C.ar    1  UNL1        0.0011
      7 C          50.2196    8.3973  -23.9157 C.ar    1  UNL1        0.0158
      8 C          50.1783    9.3710  -22.9022 C.ar    1  UNL1        0.0642
      9 C          50.4995   10.7000  -23.2218 C.ar    1  UNL1        0.0139
     10 N          49.8398    9.0419  -21.5431 N.pl3   1  UNL1       -0.2188
     11 H          49.8113    8.0367  -21.2599 H       1  UNL1        0.1734
     12 S          49.6477   10.2110  -20.2756 S.O2    1  UNL1        0.0522
     13 O          49.9497    9.5821  -18.9446 O.2     1  UNL1       -0.1545
     14 O          50.6181   11.3363  -20.5064 O.2     1  UNL1       -0.1545
     15 C          47.9716   10.8492  -20.3002 C.3     1  UNL1        0.1488
     16 C          47.8430   12.1771  -21.0392 C.3     1  UNL1        0.0255
     17 C          46.9765   11.5021  -22.0942 C.3     1  UNL1        0.0036
     18 C          47.0981   10.1767  -21.3544 C.3     1  UNL1        0.0255
     19 C          50.1421   13.4685  -24.1707 C.3     1  UNL1        0.1029
     20 N          49.0912   13.8925  -25.1106 N.3     1  UNL1       -0.2921
     21 H          49.5242   14.5510  -25.8000 H       1  UNL1        0.1234
     22 C          48.0053   14.6129  -24.4314 C.3     1  UNL1        0.1166
     23 C          46.6444   14.1577  -24.9567 C.3     1  UNL1        0.2224
     24 O          46.7849   12.9211  -25.6525 O.3     1  UNL1       -0.4739
     25 C          45.6797   12.9329  -32.2630 C.3     1  UNL1        0.0540
     26 C          46.0491   12.1153  -31.0702 C.ar    1  UNL1        0.0801
     27 N          46.4068   10.8094  -31.1191 N.ar    1  UNL1       -0.1770
     28 N          46.7220   10.4214  -29.8878 N.ar    1  UNL1       -0.2760
     29 C          46.5786   11.4694  -29.0603 C.ar    1  UNL1        0.0780
     30 C          46.8177   11.5271  -27.6898 C.ar    1  UNL1        0.0554
     31 C          46.5883   12.7620  -27.0314 C.ar    1  UNL1        0.1401
     32 C          46.1405   13.8805  -27.7763 C.ar    1  UNL1        0.0370
     33 C          45.9299   13.7888  -29.1645 C.ar    1  UNL1        0.0058
     34 C          46.1570   12.5561  -29.7678 C.ar    1  UNL1        0.0324
     35 H          47.0391    9.4600  -29.6322 H       1  UNL1        0.1889
@<TRIPOS>BOND
     1    25    26    1
     2    26    27   ar
     3    27    28   ar
     4    28    29   ar
     5    29    30   ar
     6    30    31   ar
     7    31    24    1
     8    24    23    1
     9    23    22    1
    10    22    20    1
    11    20    19    1
    12    19     1    1
    13     1     2    1
    14     1     4    1
    15     4     5   ar
    16     5     6   ar
    17     6     7   ar
    18     7     8   ar
    19     8    10    1
    20    10    12    1
    21    12    13    2
    22    12    14    2
    23    12    15    1
    24    15    16    1
    25    16    17    1
    26    17    18    1
    27     8     9   ar
    28    31    32   ar
    29    32    33   ar
    30    33    34   ar
    31    34    26   ar
    32    34    29   ar
    33     9     4   ar
    34    18    15    1
    35    28    35    1
    36    20    21    1
    37     2     3    1
    38    10    11    1
@<TRIPOS>MOLECULE
*****
 35 38 0 0 0
SMALL
GASTEIGER

@<TRIPOS>ATOM
      1 C          48.4807   16.3465  -25.2885 C.3     1  UNL1        0.1484
      2 O          48.4798   17.7144  -24.9552 O.3     1  UNL1       -0.3786
      3 H          49.4080   18.0562  -25.0053 H       1  UNL1        0.2108
      4 C          49.0389   15.4919  -24.1636 C.ar    1  UNL1        0.0069
      5 C          48.3783   15.3819  -22.9268 C.ar    1  UNL1       -0.0018
      6 C          48.9338   14.6241  -21.8954 C.ar    1  UNL1        0.0011
      7 C          50.1606   13.9834  -22.0723 C.ar    1  UNL1        0.0158
      8 C          50.8452   14.0868  -23.2961 C.ar    1  UNL1        0.0642
      9 C          50.2762   14.8448  -24.3321 C.ar    1  UNL1        0.0139
     10 N          52.0992   13.4201  -23.5262 N.pl3   1  UNL1       -0.2188
     11 H          52.9761   13.8556  -23.1615 H       1  UNL1        0.1734
     12 S          52.2488   11.8357  -24.2172 S.O2    1  UNL1        0.0522
     13 O          53.6735   11.3663  -24.1258 O.2     1  UNL1       -0.1545
     14 O          51.3796   10.8865  -23.4397 O.2     1  UNL1       -0.1545
     15 C          51.7122   11.8768  -25.9281 C.3     1  UNL1        0.1488
     16 C          52.8337   11.5824  -26.9189 C.3     1  UNL1        0.0255
     17 C          52.1225   10.3029  -27.3386 C.3     1  UNL1        0.0036
     18 C          50.9983   10.5982  -26.3549 C.3     1  UNL1        0.0255
     19 C          49.1904   16.0656  -26.6285 C.3     1  UNL1        0.1029
     20 N          48.2240   15.7159  -27.6826 N.3     1  UNL1       -0.2921
     21 H          48.4354   16.3074  -28.5205 H       1  UNL1        0.1234
     22 C          46.8410   16.0014  -27.2762 C.3     1  UNL1        0.1166
     23 C          45.8861   14.9465  -27.8334 C.3     1  UNL1        0.2224
     24 O          46.3702   13.6430  -27.5182 O.3     1  UNL1       -0.4739
     25 C          46.3129   11.5343  -21.1566 C.3     1  UNL1        0.0540
     26 C          47.0923   11.6191  -22.4266 C.ar    1  UNL1        0.0801
     27 N          48.3063   11.0488  -22.6185 N.ar    1  UNL1       -0.1770
     28 N          48.6754   11.2766  -23.8745 N.ar    1  UNL1       -0.2760
     29 C          47.7045   11.9757  -24.4845 C.ar    1  UNL1        0.0780
     30 C          47.6555   12.4151  -25.8049 C.ar    1  UNL1        0.0554
     31 C          46.5105   13.1443  -26.2155 C.ar    1  UNL1        0.1401
     32 C          45.4672   13.3901  -25.2895 C.ar    1  UNL1        0.0370
     33 C          45.5436   12.9116  -23.9686 C.ar    1  UNL1        0.0058
     34 C          46.6889   12.2104  -23.6055 C.ar    1  UNL1        0.0324
     35 H          49.5702   10.9455  -24.2987 H       1  UNL1        0.1889
@<TRIPOS>BOND
     1    25    26    1
     2    26    27   ar
     3    27    28   ar
     4    28    29   ar
     5    29    30   ar
     6    30    31   ar
     7    31    24    1
     8    24    23    1
     9    23    22    1
    10    22    20    1
    11    20    19    1
    12    19     1    1
    13     1     2    1
    14     1     4    1
    15     4     5   ar
    16     5     6   ar
    17     6     7   ar
    18     7     8   ar
    19     8    10    1
    20    10    12    1
    21    12    13    2
    22    12    14    2
    23    12    15    1
    24    15    16    1
    25    16    17    1
    26    17    18    1
    27     8     9   ar
    28    31    32   ar
    29    32    33   ar
    30    33    34   ar
    31    34    26   ar
    32    34    29   ar
    33     9     4   ar
    34    18    15    1
    35    28    35    1
    36    20    21    1
    37     2     3    1
    38    10    11    1
@<TRIPOS>MOLECULE
*****
 35 38 0 0 0
SMALL
GASTEIGER

@<TRIPOS>ATOM
      1 C          50.6029   17.9901  -25.4040 C.3     1  UNL1        0.1484
      2 O          51.9119   18.3917  -25.0759 O.3     1  UNL1       -0.3786
      3 H          52.5241   18.1094  -25.8014 H       1  UNL1        0.2108
      4 C          50.4085   16.4949  -25.2200 C.ar    1  UNL1        0.0069
      5 C          50.2431   15.6343  -26.3201 C.ar    1  UNL1       -0.0018
      6 C          50.0240   14.2706  -26.1222 C.ar    1  UNL1        0.0011
      7 C          49.9466   13.7485  -24.8306 C.ar    1  UNL1        0.0158
      8 C          50.0984   14.5903  -23.7147 C.ar    1  UNL1        0.0642
      9 C          50.3263   15.9603  -23.9217 C.ar    1  UNL1        0.0139
     10 N          50.0507   14.0861  -22.3680 N.pl3   1  UNL1       -0.2188
     11 H          49.5976   14.6675  -21.6277 H       1  UNL1        0.1734
     12 S          50.5359   12.4849  -21.9086 S.O2    1  UNL1        0.0522
     13 O          51.4638   11.9114  -22.9423 O.2     1  UNL1       -0.1545
     14 O          51.2664   12.5602  -20.5964 O.2     1  UNL1       -0.1545
     15 C          49.0831   11.4487  -21.7284 C.3     1  UNL1        0.1488
     16 C          47.7760   12.1953  -21.9735 C.3     1  UNL1        0.0255
     17 C          47.5177   11.3330  -23.2019 C.3     1  UNL1        0.0036
     18 C          48.8190   10.5817  -22.9553 C.3     1  UNL1        0.0255
     19 C          50.1780   18.4547  -26.8117 C.3     1  UNL1        0.1029
     20 N          48.9520   19.2681  -26.7591 N.3     1  UNL1       -0.2921
     21 H          49.1785   20.2149  -27.1448 H       1  UNL1        0.1234
     22 C          48.4746   19.4533  -25.3817 C.3     1  UNL1        0.1166
     23 C          46.9888   19.1125  -25.2750 C.3     1  UNL1        0.2224
     24 O          46.8264   17.8707  -24.5934 O.3     1  UNL1       -0.4739
     25 C          46.0241   11.6371  -26.9213 C.3     1  UNL1        0.0540
     26 C          46.2660   13.0681  -27.2698 C.ar    1  UNL1        0.0801
     27 N          46.3302   13.5467  -28.5358 N.ar    1  UNL1       -0.1770
     28 N          46.4992   14.8631  -28.4713 N.ar    1  UNL1       -0.2760
     29 C          46.5320   15.2264  -27.1788 C.ar    1  UNL1        0.0780
     30 C          46.6707   16.5044  -26.6438 C.ar    1  UNL1        0.0554
     31 C          46.6780   16.6312  -25.2313 C.ar    1  UNL1        0.1401
     32 C          46.5370   15.4762  -24.4235 C.ar    1  UNL1        0.0370
     33 C          46.3780   14.2032  -25.0014 C.ar    1  UNL1        0.0058
     34 C          46.3872   14.1234  -26.3902 C.ar    1  UNL1        0.0324
     35 H          46.5771   15.4921  -29.3011 H       1  UNL1        0.1889
@<TRIPOS>BOND
     1    25    26    1
     2    26    27   ar
     3    27    28   ar
     4    28    29   ar
     5    29    30   ar
     6    30    31   ar
     7    31    24    1
     8    24    23    1
     9    23    22    1
    10    22    20    1
    11    20    19    1
    12    19     1    1
    13     1     2    1
    14     1     4    1
    15     4     5   ar
    16     5     6   ar
    17     6     7   ar
    18     7     8   ar
    19     8    10    1
    20    10    12    1
    21    12    13    2
    22    12    14    2
    23    12    15    1
    24    15    16    1
    25    16    17    1
    26    17    18    1
    27     8     9   ar
    28    31    32   ar
    29    32    33   ar
    30    33    34   ar
    31    34    26   ar
    32    34    29   ar
    33     9     4   ar
    34    18    15    1
    35    28    35    1
    36    20    21    1
    37     2     3    1
    38    10    11    1
@<TRIPOS>MOLECULE
*****
 35 38 0 0 0
SMALL
GASTEIGER

@<TRIPOS>ATOM
      1 C          51.2661   13.0871  -21.7873 C.3     1  UNL1        0.1484
      2 O          52.6394   13.2193  -22.0683 O.3     1  UNL1       -0.3786
      3 H          53.0059   13.9643  -21.5284 H       1  UNL1        0.2108
      4 C          50.4482   14.1891  -22.4384 C.ar    1  UNL1        0.0069
      5 C          49.2823   14.6936  -21.8349 C.ar    1  UNL1       -0.0018
      6 C          48.5258   15.6765  -22.4740 C.ar    1  UNL1        0.0011
      7 C          48.9063   16.1556  -23.7280 C.ar    1  UNL1        0.0158
      8 C          50.0622   15.6595  -24.3564 C.ar    1  UNL1        0.0642
      9 C          50.8226   14.6760  -23.7037 C.ar    1  UNL1        0.0139
     10 N          50.5015   16.1462  -25.6371 N.pl3   1  UNL1       -0.2188
     11 H          50.5096   15.4902  -26.4500 H       1  UNL1        0.1734
     12 S          50.8540   17.8102  -25.9791 S.O2    1  UNL1        0.0522
     13 O          51.2418   18.5249  -24.7153 O.2     1  UNL1       -0.1545
     14 O          52.0097   17.8709  -26.9392 O.2     1  UNL1       -0.1545
     15 C          49.4164   18.5856  -26.7203 C.3     1  UNL1        0.1488
     16 C          48.2752   17.6095  -26.9865 C.3     1  UNL1        0.0255
     17 C          47.4151   18.3419  -25.9652 C.3     1  UNL1        0.0036
     18 C          48.5508   19.3216  -25.7027 C.3     1  UNL1        0.0255
     19 C          50.9804   12.9778  -20.2758 C.3     1  UNL1        0.1029
     20 N          50.9490   11.5727  -19.8376 N.3     1  UNL1       -0.2921
     21 H          51.4909   11.0077  -20.5331 H       1  UNL1        0.1234
     22 C          49.5803   11.0388  -19.8032 C.3     1  UNL1        0.1166
     23 C          49.4955    9.7211  -20.5723 C.3     1  UNL1        0.2224
     24 O          48.2953    9.6876  -21.3412 O.3     1  UNL1       -0.4739
     25 C          45.9849   14.5303  -25.3576 C.3     1  UNL1        0.0540
     26 C          47.0047   13.4565  -25.1717 C.ar    1  UNL1        0.0801
     27 N          48.0271   13.2163  -26.0276 N.ar    1  UNL1       -0.1770
     28 N          48.7655   12.2334  -25.5231 N.ar    1  UNL1       -0.2760
     29 C          48.2291   11.8548  -24.3516 C.ar    1  UNL1        0.0780
     30 C          48.6814   10.8762  -23.4704 C.ar    1  UNL1        0.0554
     31 C          47.9330   10.6583  -22.2856 C.ar    1  UNL1        0.1401
     32 C          46.7753   11.4353  -22.0354 C.ar    1  UNL1        0.0370
     33 C          46.3612   12.4299  -22.9403 C.ar    1  UNL1        0.0058
     34 C          47.1184   12.6028  -24.0944 C.ar    1  UNL1        0.0324
     35 H          49.6238   11.8455  -25.9738 H       1  UNL1        0.1889
@<TRIPOS>BOND
     1    25    26    1
     2    26    27   ar
     3    27    28   ar
     4    28    29   ar
     5    29    30   ar
     6    30    31   ar
     7    31    24    1
     8    24    23    1
     9    23    22    1
    10    22    20    1
    11    20    19    1
    12    19     1    1
    13     1     2    1
    14     1     4    1
    15     4     5   ar
    16     5     6   ar
    17     6     7   ar
    18     7     8   ar
    19     8    10    1
    20    10    12    1
    21    12    13    2
    22    12    14    2
    23    12    15    1
    24    15    16    1
    25    16    17    1
    26    17    18    1
    27     8     9   ar
    28    31    32   ar
    29    32    33   ar
    30    33    34   ar
    31    34    26   ar
    32    34    29   ar
    33     9     4   ar
    34    18    15    1
    35    28    35    1
    36    20    21    1
    37     2     3    1
    38    10    11    1
@<TRIPOS>MOLECULE
*****
 35 38 0 0 0
SMALL
GASTEIGER

@<TRIPOS>ATOM
      1 C          50.1521   15.9999  -26.7833 C.3     1  UNL1        0.1484
      2 O          48.9905   15.8187  -27.5581 O.3     1  UNL1       -0.3786
      3 H          48.2519   16.3401  -27.1536 H       1  UNL1        0.2108
      4 C          50.0878   15.2228  -25.4797 C.ar    1  UNL1        0.0069
      5 C          50.4655   15.8061  -24.2569 C.ar    1  UNL1       -0.0018
      6 C          50.4373   15.0575  -23.0798 C.ar    1  UNL1        0.0011
      7 C          50.0533   13.7163  -23.1056 C.ar    1  UNL1        0.0158
      8 C          49.6813   13.1079  -24.3173 C.ar    1  UNL1        0.0642
      9 C          49.7047   13.8697  -25.4966 C.ar    1  UNL1        0.0139
     10 N          49.2549   11.7352  -24.3811 N.pl3   1  UNL1       -0.2188
     11 H          48.3709   11.5049  -24.8880 H       1  UNL1        0.1734
     12 S          50.2034   10.3928  -23.8259 S.O2    1  UNL1        0.0522
     13 O          50.2958    9.3474  -24.9015 O.2     1  UNL1       -0.1545
     14 O          51.5904   10.8803  -23.5097 O.2     1  UNL1       -0.1545
     15 C          49.4573    9.7047  -22.3471 C.3     1  UNL1        0.1488
     16 C          49.7130   10.5412  -21.0977 C.3     1  UNL1        0.0255
     17 C          48.2237   10.8442  -20.9999 C.3     1  UNL1        0.0036
     18 C          47.9652   10.0040  -22.2433 C.3     1  UNL1        0.0255
     19 C          50.4788   17.4885  -26.5480 C.3     1  UNL1        0.1029
     20 N          49.3145   18.3433  -26.8334 N.3     1  UNL1       -0.2921
     21 H          49.5746   18.9886  -27.6159 H       1  UNL1        0.1234
     22 C          48.9467   19.1735  -25.6780 C.3     1  UNL1        0.1166
     23 C          47.4353   19.1476  -25.4541 C.3     1  UNL1        0.2224
     24 O          47.1201   18.2485  -24.3934 O.3     1  UNL1       -0.4739
     25 C          45.5070   11.9451  -26.0014 C.3     1  UNL1        0.0540
     26 C          45.9231   12.8783  -24.9134 C.ar    1  UNL1        0.0801
     27 N          46.2046   12.4964  -23.6443 N.ar    1  UNL1       -0.1770
     28 N          46.5930   13.5713  -22.9664 N.ar    1  UNL1       -0.2760
     29 C          46.5713   14.6286  -23.7940 C.ar    1  UNL1        0.0780
     30 C          46.9190   15.9485  -23.5187 C.ar    1  UNL1        0.0554
     31 C          46.8086   16.8931  -24.5707 C.ar    1  UNL1        0.1401
     32 C          46.3656   16.4706  -25.8481 C.ar    1  UNL1        0.0370
     33 C          46.0432   15.1232  -26.0936 C.ar    1  UNL1        0.0058
     34 C          46.1556   14.2327  -25.0308 C.ar    1  UNL1        0.0324
     35 H          46.8765   13.5678  -21.9615 H       1  UNL1        0.1889
@<TRIPOS>BOND
     1    25    26    1
     2    26    27   ar
     3    27    28   ar
     4    28    29   ar
     5    29    30   ar
     6    30    31   ar
     7    31    24    1
     8    24    23    1
     9    23    22    1
    10    22    20    1
    11    20    19    1
    12    19     1    1
    13     1     2    1
    14     1     4    1
    15     4     5   ar
    16     5     6   ar
    17     6     7   ar
    18     7     8   ar
    19     8    10    1
    20    10    12    1
    21    12    13    2
    22    12    14    2
    23    12    15    1
    24    15    16    1
    25    16    17    1
    26    17    18    1
    27     8     9   ar
    28    31    32   ar
    29    32    33   ar
    30    33    34   ar
    31    34    26   ar
    32    34    29   ar
    33     9     4   ar
    34    18    15    1
    35    28    35    1
    36    20    21    1
    37     2     3    1
    38    10    11    1
