@<TRIPOS>MOLECULE
*****
 49 54 0 0 0
SMALL
GASTEIGER

@<TRIPOS>ATOM
      1 C         -62.1148  -41.9443  -20.6697 C.2     1  UNL1        0.2483
      2 O         -61.5180  -42.6485  -19.8097 O.2     1  UNL1       -0.2701
      3 N         -63.0064  -40.9017  -20.2393 N.am    1  UNL1       -0.2945
      4 H         -63.3827  -40.2387  -20.9511 H       1  UNL1        0.1501
      5 C         -61.4404  -42.6904  -24.8623 C.ar    1  UNL1        0.0502
      6 C         -62.7322  -42.4209  -24.3810 C.ar    1  UNL1        0.0148
      7 C         -62.9491  -42.1774  -23.0225 C.ar    1  UNL1        0.0080
      8 C         -61.8788  -42.1966  -22.1117 C.ar    1  UNL1        0.0808
      9 C         -60.5850  -42.4803  -22.5899 C.ar    1  UNL1        0.1457
     10 F         -59.5211  -42.5046  -21.7471 F       1  UNL1       -0.2040
     11 C         -60.3712  -42.7214  -23.9504 C.ar    1  UNL1        0.0443
     12 N         -61.1327  -43.2082  -29.0651 N.pl3   1  UNL1       -0.3034
     13 C         -60.6509  -41.9594  -28.4645 C.3     1  UNL1        0.1123
     14 C         -60.2153  -42.1651  -27.0091 C.3     1  UNL1        0.1122
     15 N         -61.2185  -42.9451  -26.2668 N.pl3   1  UNL1       -0.3040
     16 C         -61.8842  -44.0935  -26.9056 C.3     1  UNL1        0.1122
     17 C         -61.2600  -44.4271  -28.2630 C.3     1  UNL1        0.1123
     18 C         -61.8116  -43.3543  -33.2571 C.ar    1  UNL1       -0.0107
     19 C         -62.7835  -42.8375  -32.3858 C.ar    1  UNL1       -0.0021
     20 C         -62.5560  -42.7987  -31.0113 C.ar    1  UNL1        0.0151
     21 C         -61.3495  -43.2649  -30.4810 C.ar    1  UNL1        0.0594
     22 C         -60.3589  -43.7754  -31.3383 C.ar    1  UNL1        0.0811
     23 CL        -58.8461  -44.3774  -30.6588 Cl      1  UNL1       -0.0801
     24 C         -60.5836  -43.8163  -32.7288 C.ar    1  UNL1        0.0654
     25 CL        -59.3220  -44.4422  -33.7956 Cl      1  UNL1       -0.0817
     26 C         -63.5865  -43.4367  -35.0158 C.3     1  UNL1        0.0051
     27 C         -62.0882  -43.3493  -34.7422 C.3     1  UNL1        0.0272
     28 C         -63.3376  -40.6998  -18.8235 C.3     1  UNL1        0.1535
     29 C         -63.4758  -39.2303  -18.5128 C.2     1  UNL1        0.2443
     30 O         -62.8745  -38.7448  -17.5154 O.2     1  UNL1       -0.2730
     31 N         -64.2041  -38.3775  -19.4102 N.am    1  UNL1       -0.2825
     32 H         -64.4952  -38.7773  -20.3311 H       1  UNL1        0.1549
     33 C         -64.3690  -36.9648  -19.2083 C.ar    1  UNL1        0.0535
     34 C         -63.3057  -36.1575  -18.7719 C.ar    1  UNL1        0.0353
     35 C         -63.5150  -34.7899  -18.5775 C.ar    1  UNL1        0.1002
     36 N         -64.7427  -34.2490  -18.7978 N.ar    1  UNL1       -0.2422
     37 C         -65.7932  -35.0099  -19.2040 C.ar    1  UNL1        0.1002
     38 C         -65.6275  -36.3818  -19.4078 C.ar    1  UNL1        0.0353
     39 C         -64.6053  -41.4876  -18.4218 C.3     1  UNL1        0.0569
     40 C         -65.3806  -42.0271  -19.5957 C.ar    1  UNL1       -0.0017
     41 C         -65.5541  -43.3662  -19.9364 C.ar    1  UNL1        0.0681
     42 N         -66.2601  -43.4747  -21.0848 N.ar    1  UNL1       -0.3523
     43 C         -66.5350  -42.2177  -21.4731 C.ar    1  UNL1        0.0563
     44 C         -67.2362  -41.8195  -22.6106 C.ar    1  UNL1        0.0170
     45 C         -67.4047  -40.4401  -22.8302 C.ar    1  UNL1        0.0015
     46 C         -66.8788  -39.5006  -21.9162 C.ar    1  UNL1        0.0001
     47 C         -66.1789  -39.9317  -20.7752 C.ar    1  UNL1        0.0012
     48 C         -66.0189  -41.3058  -20.5883 C.ar    1  UNL1        0.0131
     49 H         -66.5308  -44.3586  -21.5706 H       1  UNL1        0.1660
@<TRIPOS>BOND
     1    26    27    1
     2    27    18    1
     3    18    19   ar
     4    19    20   ar
     5    20    21   ar
     6    21    12    1
     7    12    13    1
     8    13    14    1
     9    14    15    1
    10    15     5    1
    11     5     6   ar
    12     6     7   ar
    13     7     8   ar
    14     8     1    1
    15     1     2    2
    16     1     3   am
    17     3    28    1
    18    28    39    1
    19    39    40    1
    20    40    41   ar
    21    41    42   ar
    22    42    43   ar
    23    43    44   ar
    24    44    45   ar
    25    45    46   ar
    26    46    47   ar
    27    47    48   ar
    28    28    29    1
    29    29    30    2
    30    29    31   am
    31    31    33    1
    32    33    34   ar
    33    34    35   ar
    34    35    36   ar
    35    36    37   ar
    36    37    38   ar
    37     8     9   ar
    38     9    10    1
    39     9    11   ar
    40    15    16    1
    41    16    17    1
    42    21    22   ar
    43    22    23    1
    44    22    24   ar
    45    24    25    1
    46    24    18   ar
    47    17    12    1
    48    11     5   ar
    49    48    40   ar
    50    38    33   ar
    51    48    43   ar
    52     3     4    1
    53    42    49    1
    54    31    32    1
@<TRIPOS>MOLECULE
*****
 49 54 0 0 0
SMALL
GASTEIGER

@<TRIPOS>ATOM
      1 C         -63.9939  -53.9113  -22.7213 C.2     1  UNL1        0.2483
      2 O         -63.0861  -54.7599  -22.5033 O.2     1  UNL1       -0.2701
      3 N         -65.3569  -54.2285  -22.3916 N.am    1  UNL1       -0.2945
      4 H         -66.0741  -53.4730  -22.4445 H       1  UNL1        0.1501
      5 C         -62.9609  -50.0917  -24.4340 C.ar    1  UNL1        0.0502
      6 C         -64.0867  -50.7992  -24.8866 C.ar    1  UNL1        0.0148
      7 C         -64.4215  -52.0359  -24.3295 C.ar    1  UNL1        0.0080
      8 C         -63.6386  -52.5953  -23.3050 C.ar    1  UNL1        0.0808
      9 C         -62.5016  -51.8942  -22.8593 C.ar    1  UNL1        0.1457
     10 F         -61.7193  -52.3941  -21.8688 F       1  UNL1       -0.2040
     11 C         -62.1708  -50.6558  -23.4176 C.ar    1  UNL1        0.0443
     12 N         -62.3516  -46.2391  -26.1110 N.pl3   1  UNL1       -0.3034
     13 C         -62.4796  -46.3697  -24.6554 C.3     1  UNL1        0.1123
     14 C         -62.0349  -47.7552  -24.1724 C.3     1  UNL1        0.1122
     15 N         -62.6146  -48.8146  -25.0134 N.pl3   1  UNL1       -0.3040
     16 C         -62.6948  -48.6396  -26.4740 C.3     1  UNL1        0.1122
     17 C         -61.9534  -47.3823  -26.9355 C.3     1  UNL1        0.1123
     18 C         -62.7164  -42.3868  -27.8667 C.ar    1  UNL1       -0.0107
     19 C         -61.8165  -42.6185  -26.8144 C.ar    1  UNL1       -0.0021
     20 C         -61.7070  -43.8834  -26.2394 C.ar    1  UNL1        0.0151
     21 C         -62.4859  -44.9442  -26.7111 C.ar    1  UNL1        0.0594
     22 C         -63.3846  -44.7351  -27.7720 C.ar    1  UNL1        0.0811
     23 CL        -64.3759  -46.0753  -28.3496 Cl      1  UNL1       -0.0801
     24 C         -63.4985  -43.4583  -28.3573 C.ar    1  UNL1        0.0654
     25 CL        -64.6176  -43.2152  -29.7027 Cl      1  UNL1       -0.0817
     26 C         -61.6954  -40.8333  -29.5382 C.3     1  UNL1        0.0051
     27 C         -62.7804  -41.0079  -28.4800 C.3     1  UNL1        0.0272
     28 C         -65.7491  -55.5592  -21.9115 C.3     1  UNL1        0.1535
     29 C         -66.7829  -55.4480  -20.8187 C.2     1  UNL1        0.2443
     30 O         -66.5656  -55.9857  -19.6981 O.2     1  UNL1       -0.2730
     31 N         -67.9564  -54.6465  -21.0266 N.am    1  UNL1       -0.2825
     32 H         -67.9885  -54.0448  -21.8808 H       1  UNL1        0.1549
     33 C         -68.9819  -54.4644  -20.0372 C.ar    1  UNL1        0.0535
     34 C         -68.9125  -55.0959  -18.7846 C.ar    1  UNL1        0.0353
     35 C         -69.9389  -54.8996  -17.8572 C.ar    1  UNL1        0.1002
     36 N         -71.0019  -54.1127  -18.1718 N.ar    1  UNL1       -0.2422
     37 C         -71.1028  -53.5034  -19.3827 C.ar    1  UNL1        0.1002
     38 C         -70.0997  -53.6753  -20.3394 C.ar    1  UNL1        0.0353
     39 C         -66.2411  -56.4558  -23.0705 C.3     1  UNL1        0.0569
     40 C         -67.2757  -55.7991  -23.9471 C.ar    1  UNL1       -0.0017
     41 C         -67.0401  -54.9125  -24.9948 C.ar    1  UNL1        0.0681
     42 N         -68.2085  -54.4803  -25.5210 N.ar    1  UNL1       -0.3523
     43 C         -69.1803  -55.0852  -24.8167 C.ar    1  UNL1        0.0563
     44 C         -70.5574  -54.9443  -24.9844 C.ar    1  UNL1        0.0170
     45 C         -71.4023  -55.6716  -24.1262 C.ar    1  UNL1        0.0015
     46 C         -70.8585  -56.5172  -23.1343 C.ar    1  UNL1        0.0001
     47 C         -69.4652  -56.6424  -22.9909 C.ar    1  UNL1        0.0012
     48 C         -68.6516  -55.9015  -23.8499 C.ar    1  UNL1        0.0131
     49 H         -68.3271  -53.8085  -26.3117 H       1  UNL1        0.1660
@<TRIPOS>BOND
     1    26    27    1
     2    27    18    1
     3    18    19   ar
     4    19    20   ar
     5    20    21   ar
     6    21    12    1
     7    12    13    1
     8    13    14    1
     9    14    15    1
    10    15     5    1
    11     5     6   ar
    12     6     7   ar
    13     7     8   ar
    14     8     1    1
    15     1     2    2
    16     1     3   am
    17     3    28    1
    18    28    39    1
    19    39    40    1
    20    40    41   ar
    21    41    42   ar
    22    42    43   ar
    23    43    44   ar
    24    44    45   ar
    25    45    46   ar
    26    46    47   ar
    27    47    48   ar
    28    28    29    1
    29    29    30    2
    30    29    31   am
    31    31    33    1
    32    33    34   ar
    33    34    35   ar
    34    35    36   ar
    35    36    37   ar
    36    37    38   ar
    37     8     9   ar
    38     9    10    1
    39     9    11   ar
    40    15    16    1
    41    16    17    1
    42    21    22   ar
    43    22    23    1
    44    22    24   ar
    45    24    25    1
    46    24    18   ar
    47    17    12    1
    48    11     5   ar
    49    48    40   ar
    50    38    33   ar
    51    48    43   ar
    52     3     4    1
    53    42    49    1
    54    31    32    1
@<TRIPOS>MOLECULE
*****
 49 54 0 0 0
SMALL
GASTEIGER

@<TRIPOS>ATOM
      1 C         -62.3516  -40.3686  -21.4420 C.2     1  UNL1        0.2483
      2 O         -61.2172  -39.9045  -21.1432 O.2     1  UNL1       -0.2701
      3 N         -63.4376  -40.2469  -20.5077 N.am    1  UNL1       -0.2945
      4 H         -64.3985  -40.5061  -20.8196 H       1  UNL1        0.1501
      5 C         -62.9121  -42.2663  -25.2728 C.ar    1  UNL1        0.0502
      6 C         -61.7424  -42.4880  -24.5274 C.ar    1  UNL1        0.0148
      7 C         -61.5628  -41.8740  -23.2854 C.ar    1  UNL1        0.0080
      8 C         -62.5495  -41.0235  -22.7576 C.ar    1  UNL1        0.0808
      9 C         -63.7169  -40.7889  -23.5094 C.ar    1  UNL1        0.1457
     10 F         -64.6982  -39.9786  -23.0369 F       1  UNL1       -0.2040
     11 C         -63.8942  -41.4067  -24.7511 C.ar    1  UNL1        0.0443
     12 N         -63.8027  -44.2940  -28.8951 N.pl3   1  UNL1       -0.3034
     13 C         -64.4857  -43.0294  -28.6007 C.3     1  UNL1        0.1123
     14 C         -63.6415  -42.1319  -27.6884 C.3     1  UNL1        0.1122
     15 N         -63.0946  -42.8996  -26.5582 N.pl3   1  UNL1       -0.3040
     16 C         -62.5806  -44.2638  -26.7697 C.3     1  UNL1        0.1122
     17 C         -62.5269  -44.6249  -28.2564 C.3     1  UNL1        0.1123
     18 C         -65.3498  -46.7933  -31.9635 C.ar    1  UNL1       -0.0107
     19 C         -65.1839  -45.4147  -32.1702 C.ar    1  UNL1       -0.0021
     20 C         -64.6816  -44.6003  -31.1567 C.ar    1  UNL1        0.0151
     21 C         -64.3251  -45.1482  -29.9210 C.ar    1  UNL1        0.0594
     22 C         -64.4729  -46.5286  -29.6985 C.ar    1  UNL1        0.0811
     23 CL        -64.0364  -47.2087  -28.1302 Cl      1  UNL1       -0.0801
     24 C         -64.9795  -47.3565  -30.7201 C.ar    1  UNL1        0.0654
     25 CL        -65.1411  -49.0922  -30.4328 Cl      1  UNL1       -0.0817
     26 C         -67.1676  -48.3403  -32.7066 C.3     1  UNL1        0.0051
     27 C         -65.8690  -47.6428  -33.0996 C.3     1  UNL1        0.0272
     28 C         -63.2433  -39.6981  -19.1600 C.3     1  UNL1        0.1535
     29 C         -64.2724  -38.6360  -18.8638 C.2     1  UNL1        0.2443
     30 O         -65.1697  -38.8596  -18.0052 O.2     1  UNL1       -0.2730
     31 N         -64.1627  -37.3447  -19.4831 N.am    1  UNL1       -0.2825
     32 H         -63.2862  -37.1327  -20.0117 H       1  UNL1        0.1549
     33 C         -65.0814  -36.2664  -19.2444 C.ar    1  UNL1        0.0535
     34 C         -66.3525  -36.2406  -19.8413 C.ar    1  UNL1        0.0353
     35 C         -67.2089  -35.1656  -19.5902 C.ar    1  UNL1        0.1002
     36 N         -66.8079  -34.1473  -18.7836 N.ar    1  UNL1       -0.2422
     37 C         -65.5771  -34.1385  -18.2069 C.ar    1  UNL1        0.1002
     38 C         -64.6893  -35.1928  -18.4339 C.ar    1  UNL1        0.0353
     39 C         -63.2521  -40.8128  -18.0892 C.3     1  UNL1        0.0569
     40 C         -64.2521  -41.9065  -18.3616 C.ar    1  UNL1       -0.0017
     41 C         -65.4799  -42.0902  -17.7308 C.ar    1  UNL1        0.0681
     42 N         -66.0858  -43.2083  -18.1907 N.ar    1  UNL1       -0.3523
     43 C         -65.2534  -43.7331  -19.1062 C.ar    1  UNL1        0.0563
     44 C         -65.4411  -44.8982  -19.8488 C.ar    1  UNL1        0.0170
     45 C         -64.4311  -45.2708  -20.7546 C.ar    1  UNL1        0.0015
     46 C         -63.2718  -44.4773  -20.8998 C.ar    1  UNL1        0.0001
     47 C         -63.1115  -43.3049  -20.1400 C.ar    1  UNL1        0.0012
     48 C         -64.1252  -42.9653  -19.2424 C.ar    1  UNL1        0.0131
     49 H         -67.0112  -43.5866  -17.8892 H       1  UNL1        0.1660
@<TRIPOS>BOND
     1    26    27    1
     2    27    18    1
     3    18    19   ar
     4    19    20   ar
     5    20    21   ar
     6    21    12    1
     7    12    13    1
     8    13    14    1
     9    14    15    1
    10    15     5    1
    11     5     6   ar
    12     6     7   ar
    13     7     8   ar
    14     8     1    1
    15     1     2    2
    16     1     3   am
    17     3    28    1
    18    28    39    1
    19    39    40    1
    20    40    41   ar
    21    41    42   ar
    22    42    43   ar
    23    43    44   ar
    24    44    45   ar
    25    45    46   ar
    26    46    47   ar
    27    47    48   ar
    28    28    29    1
    29    29    30    2
    30    29    31   am
    31    31    33    1
    32    33    34   ar
    33    34    35   ar
    34    35    36   ar
    35    36    37   ar
    36    37    38   ar
    37     8     9   ar
    38     9    10    1
    39     9    11   ar
    40    15    16    1
    41    16    17    1
    42    21    22   ar
    43    22    23    1
    44    22    24   ar
    45    24    25    1
    46    24    18   ar
    47    17    12    1
    48    11     5   ar
    49    48    40   ar
    50    38    33   ar
    51    48    43   ar
    52     3     4    1
    53    42    49    1
    54    31    32    1
@<TRIPOS>MOLECULE
*****
 49 54 0 0 0
SMALL
GASTEIGER

@<TRIPOS>ATOM
      1 C         -64.6182  -54.7051  -22.2342 C.2     1  UNL1        0.2483
      2 O         -63.7768  -55.5839  -21.9005 O.2     1  UNL1       -0.2701
      3 N         -66.0172  -54.9330  -21.9928 N.am    1  UNL1       -0.2945
      4 H         -66.6861  -54.1468  -22.1423 H       1  UNL1        0.1501
      5 C         -63.2561  -51.0351  -24.0414 C.ar    1  UNL1        0.0502
      6 C         -62.5811  -51.5849  -22.9391 C.ar    1  UNL1        0.0148
      7 C         -63.0223  -52.7751  -22.3556 C.ar    1  UNL1        0.0080
      8 C         -64.1495  -53.4456  -22.8610 C.ar    1  UNL1        0.0808
      9 C         -64.8360  -52.8889  -23.9573 C.ar    1  UNL1        0.1457
     10 F         -65.9267  -53.5044  -24.4811 F       1  UNL1       -0.2040
     11 C         -64.3904  -51.6987  -24.5401 C.ar    1  UNL1        0.0443
     12 N         -61.8099  -47.6410  -26.1426 N.pl3   1  UNL1       -0.3034
     13 C         -63.1511  -48.1502  -26.4497 C.3     1  UNL1        0.1123
     14 C         -63.7681  -48.8745  -25.2476 C.3     1  UNL1        0.1122
     15 N         -62.8003  -49.8027  -24.6414 N.pl3   1  UNL1       -0.3040
     16 C         -61.3878  -49.4097  -24.4977 C.3     1  UNL1        0.1122
     17 C         -61.1695  -47.9383  -24.8594 C.3     1  UNL1        0.1123
     18 C         -59.9297  -44.9780  -28.8680 C.ar    1  UNL1       -0.0107
     19 C         -59.6464  -46.3528  -28.8901 C.ar    1  UNL1       -0.0021
     20 C         -60.2625  -47.2192  -27.9888 C.ar    1  UNL1        0.0151
     21 C         -61.1815  -46.7314  -27.0551 C.ar    1  UNL1        0.0594
     22 C         -61.4874  -45.3594  -27.0248 C.ar    1  UNL1        0.0811
     23 CL        -62.6355  -44.7501  -25.8319 Cl      1  UNL1       -0.0801
     24 C         -60.8678  -44.4794  -27.9344 C.ar    1  UNL1        0.0654
     25 CL        -61.2767  -42.7610  -27.8975 Cl      1  UNL1       -0.0817
     26 C         -59.1473  -44.7793  -31.2341 C.3     1  UNL1        0.0051
     27 C         -59.2618  -44.0803  -29.8829 C.3     1  UNL1        0.0272
     28 C         -66.5159  -56.2113  -21.4712 C.3     1  UNL1        0.1535
     29 C         -67.1947  -56.0146  -20.1386 C.2     1  UNL1        0.2443
     30 O         -66.4956  -55.8440  -19.1021 O.2     1  UNL1       -0.2730
     31 N         -68.6264  -55.9198  -20.0752 N.am    1  UNL1       -0.2825
     32 H         -69.1487  -55.8451  -20.9776 H       1  UNL1        0.1549
     33 C         -69.3574  -55.7109  -18.8562 C.ar    1  UNL1        0.0535
     34 C         -69.2219  -56.5808  -17.7619 C.ar    1  UNL1        0.0353
     35 C         -69.9617  -56.3456  -16.6002 C.ar    1  UNL1        0.1002
     36 N         -70.8150  -55.2892  -16.5365 N.ar    1  UNL1       -0.2422
     37 C         -70.9783  -54.4417  -17.5866 C.ar    1  UNL1        0.1002
     38 C         -70.2595  -54.6424  -18.7674 C.ar    1  UNL1        0.0353
     39 C         -67.4482  -56.9109  -22.4864 C.3     1  UNL1        0.0569
     40 C         -68.0478  -55.9745  -23.5032 C.ar    1  UNL1       -0.0017
     41 C         -68.6400  -54.7393  -23.2525 C.ar    1  UNL1        0.0681
     42 N         -69.1194  -54.2031  -24.3977 N.ar    1  UNL1       -0.3523
     43 C         -68.8358  -55.0868  -25.3698 C.ar    1  UNL1        0.0563
     44 C         -69.1436  -54.9786  -26.7255 C.ar    1  UNL1        0.0170
     45 C         -68.7561  -56.0318  -27.5740 C.ar    1  UNL1        0.0015
     46 C         -68.0735  -57.1542  -27.0556 C.ar    1  UNL1        0.0001
     47 C         -67.7731  -57.2343  -25.6842 C.ar    1  UNL1        0.0012
     48 C         -68.1782  -56.1792  -24.8648 C.ar    1  UNL1        0.0131
     49 H         -69.6137  -53.2890  -24.5006 H       1  UNL1        0.1660
@<TRIPOS>BOND
     1    26    27    1
     2    27    18    1
     3    18    19   ar
     4    19    20   ar
     5    20    21   ar
     6    21    12    1
     7    12    13    1
     8    13    14    1
     9    14    15    1
    10    15     5    1
    11     5     6   ar
    12     6     7   ar
    13     7     8   ar
    14     8     1    1
    15     1     2    2
    16     1     3   am
    17     3    28    1
    18    28    39    1
    19    39    40    1
    20    40    41   ar
    21    41    42   ar
    22    42    43   ar
    23    43    44   ar
    24    44    45   ar
    25    45    46   ar
    26    46    47   ar
    27    47    48   ar
    28    28    29    1
    29    29    30    2
    30    29    31   am
    31    31    33    1
    32    33    34   ar
    33    34    35   ar
    34    35    36   ar
    35    36    37   ar
    36    37    38   ar
    37     8     9   ar
    38     9    10    1
    39     9    11   ar
    40    15    16    1
    41    16    17    1
    42    21    22   ar
    43    22    23    1
    44    22    24   ar
    45    24    25    1
    46    24    18   ar
    47    17    12    1
    48    11     5   ar
    49    48    40   ar
    50    38    33   ar
    51    48    43   ar
    52     3     4    1
    53    42    49    1
    54    31    32    1
