@<TRIPOS>MOLECULE
*****
 48 53 0 0 0
SMALL
GASTEIGER

@<TRIPOS>ATOM
      1 C          12.2639   81.6068   25.2207 C.ar    1  UNL1        0.0702
      2 C          13.2407   82.2524   25.9950 C.ar    1  UNL1        0.0191
      3 C          13.8733   83.3989   25.5118 C.ar    1  UNL1        0.0356
      4 C          13.5209   83.9065   24.2508 C.ar    1  UNL1        0.1318
      5 N          12.5508   83.2782   23.5305 N.ar    1  UNL1       -0.2279
      6 C          11.9208   82.1615   23.9811 C.ar    1  UNL1        0.1149
      7 N          14.1514   85.0881   23.7172 N.pl3   1  UNL1       -0.2927
      8 C          15.4232   84.9683   22.9944 C.3     1  UNL1        0.0923
      9 C          16.3750   86.0995   23.3938 C.3     1  UNL1        0.0258
     10 C          15.7157   87.4901   23.2735 C.3     1  UNL1        0.0577
     11 C          14.3659   87.5424   24.0404 C.3     1  UNL1        0.1222
     12 C          13.4352   86.3706   23.6601 C.3     1  UNL1        0.1033
     13 C          14.6065   87.6052   25.5327 C.2     1  UNL1        0.3151
     14 O          13.8013   87.0674   26.3393 O.2     1  UNL1       -0.2502
     15 O          15.7572   88.2111   26.0294 O.3     1  UNL1       -0.4801
     16 H          16.4434   88.6234   25.4084 H       1  UNL1        0.2951
     17 C          15.5634   87.9150   21.7938 C.3     1  UNL1        0.2059
     18 O          14.2870   87.5356   21.2756 O.3     1  UNL1       -0.4754
     19 C          14.0572   86.5513   20.3001 C.ar    1  UNL1        0.1388
     20 C          12.7650   86.4348   19.7777 C.ar    1  UNL1        0.0369
     21 C          12.4776   85.4784   18.8027 C.ar    1  UNL1        0.0033
     22 C          13.4803   84.6239   18.3407 C.ar    1  UNL1        0.0066
     23 C          14.7855   84.7164   18.8548 C.ar    1  UNL1        0.0785
     24 C          15.0666   85.6819   19.8388 C.ar    1  UNL1        0.0433
     25 C          15.8514   83.8112   18.3696 C.2     1  UNL1        0.3381
     26 O          16.4542   84.0557   17.2894 O.2     1  UNL1       -0.2451
     27 O          16.2001   82.6797   19.1028 O.3     1  UNL1       -0.4771
     28 H          16.9284   82.0542   18.7796 H       1  UNL1        0.2954
     29 C          10.5703   80.4669   26.7222 C.2     1  UNL1        0.2839
     30 O          10.5747   81.3892   27.5813 O.2     1  UNL1       -0.2665
     31 N          11.5725   80.4386   25.6950 N.am    1  UNL1       -0.2766
     32 H          11.8924   79.5051   25.3527 H       1  UNL1        0.1553
     33 C           9.6781   78.9105   29.4135 C.3     1  UNL1        0.0345
     34 C           9.1814   78.7175   28.0124 C.ar    1  UNL1        0.0202
     35 C           9.5754   79.3871   26.8471 C.ar    1  UNL1        0.1946
     36 O           8.9222   78.9029   25.8053 O.2     1  UNL1       -0.4492
     37 C           8.1093   77.9701   26.2374 C.ar    1  UNL1        0.1452
     38 C           7.2264   77.2032   25.4852 C.ar    1  UNL1        0.0375
     39 C           6.4375   76.2541   26.1587 C.ar    1  UNL1        0.0031
     40 C           6.5424   76.0863   27.5663 C.ar    1  UNL1        0.0002
     41 C           7.4557   76.8866   28.2939 C.ar    1  UNL1        0.0028
     42 C           8.2222   77.8176   27.5924 C.ar    1  UNL1        0.0337
     43 C           5.7033   75.0817   28.2674 C.ar    1  UNL1        0.0000
     44 C           5.0273   75.4178   29.4559 C.ar    1  UNL1        0.0000
     45 C           4.2377   74.4699   30.1140 C.ar    1  UNL1        0.0000
     46 C           4.1127   73.1795   29.5949 C.ar    1  UNL1        0.0000
     47 C           4.7776   72.8337   28.4164 C.ar    1  UNL1        0.0000
     48 C           5.5694   73.7773   27.7546 C.ar    1  UNL1        0.0000
@<TRIPOS>BOND
     1    33    34    1
     2    34    35   ar
     3    35    29    1
     4    29    30    2
     5    29    31   am
     6    31     1    1
     7     1     2   ar
     8     2     3   ar
     9     3     4   ar
    10     4     7    1
    11     7     8    1
    12     8     9    1
    13     9    10    1
    14    10    17    1
    15    17    18    1
    16    18    19    1
    17    19    20   ar
    18    20    21   ar
    19    21    22   ar
    20    22    23   ar
    21    23    25    1
    22    25    26    2
    23    25    27    1
    24    23    24   ar
    25    10    11    1
    26    11    13    1
    27    13    14    2
    28    13    15    1
    29    11    12    1
    30     4     5   ar
    31     5     6   ar
    32    35    36   ar
    33    36    37   ar
    34    37    38   ar
    35    38    39   ar
    36    39    40   ar
    37    40    43    1
    38    43    44   ar
    39    44    45   ar
    40    45    46   ar
    41    46    47   ar
    42    47    48   ar
    43    40    41   ar
    44    41    42   ar
    45    42    34   ar
    46     6     1   ar
    47    42    37   ar
    48    12     7    1
    49    48    43   ar
    50    24    19   ar
    51    31    32    1
    52    27    28    1
    53    15    16    1
@<TRIPOS>MOLECULE
*****
 48 53 0 0 0
SMALL
GASTEIGER

@<TRIPOS>ATOM
      1 C          11.9018   80.5677   24.8915 C.ar    1  UNL1        0.0702
      2 C          13.2796   80.6617   25.1429 C.ar    1  UNL1        0.0191
      3 C          13.9691   81.8366   24.8392 C.ar    1  UNL1        0.0356
      4 C          13.2747   82.9259   24.2885 C.ar    1  UNL1        0.1318
      5 N          11.9332   82.8199   24.0795 N.ar    1  UNL1       -0.2279
      6 C          11.2411   81.6865   24.3683 C.ar    1  UNL1        0.1149
      7 N          13.9513   84.1561   23.9613 N.pl3   1  UNL1       -0.2927
      8 C          13.3839   85.4358   24.4027 C.3     1  UNL1        0.0923
      9 C          13.4910   86.4818   23.2894 C.3     1  UNL1        0.0258
     10 C          14.9240   86.5939   22.7265 C.3     1  UNL1        0.0577
     11 C          15.4724   85.2046   22.2997 C.3     1  UNL1        0.1222
     12 C          15.3166   84.1499   23.4164 C.3     1  UNL1        0.1033
     13 C          14.8256   84.7535   21.0087 C.2     1  UNL1        0.3151
     14 O          13.9378   85.4541   20.4526 O.2     1  UNL1       -0.2502
     15 O          15.2487   83.5813   20.3883 O.3     1  UNL1       -0.4801
     16 H          15.9840   83.0110   20.7890 H       1  UNL1        0.2951
     17 C          15.8653   87.3127   23.7217 C.3     1  UNL1        0.2059
     18 O          15.1658   88.3130   24.4645 O.3     1  UNL1       -0.4754
     19 C          15.2498   88.5129   25.8524 C.ar    1  UNL1        0.1388
     20 C          16.4893   88.8767   26.3887 C.ar    1  UNL1        0.0369
     21 C          16.6328   89.0935   27.7600 C.ar    1  UNL1        0.0033
     22 C          15.5371   88.9453   28.6124 C.ar    1  UNL1        0.0066
     23 C          14.2823   88.5737   28.0988 C.ar    1  UNL1        0.0785
     24 C          14.1464   88.3553   26.7155 C.ar    1  UNL1        0.0433
     25 C          13.1182   88.4133   28.9989 C.2     1  UNL1        0.3381
     26 O          13.2777   88.3782   30.2492 O.2     1  UNL1       -0.2451
     27 O          11.8336   88.3003   28.4730 O.3     1  UNL1       -0.4771
     28 H          11.0304   88.1907   29.0804 H       1  UNL1        0.2954
     29 C          11.6385   78.3419   26.0740 C.2     1  UNL1        0.2839
     30 O          12.8790   78.1615   26.2062 O.2     1  UNL1       -0.2665
     31 N          11.1527   79.3835   25.2142 N.am    1  UNL1       -0.2766
     32 H          10.2523   79.2189   24.7110 H       1  UNL1        0.1553
     33 C           8.4377   78.1129   25.6691 C.3     1  UNL1        0.0345
     34 C           9.3271   77.3092   26.5691 C.ar    1  UNL1        0.0202
     35 C          10.7120   77.4158   26.7489 C.ar    1  UNL1        0.1946
     36 O          11.1177   76.5461   27.6575 O.2     1  UNL1       -0.4492
     37 C          10.0719   75.8662   28.0597 C.ar    1  UNL1        0.1452
     38 C          10.0395   74.8432   29.0010 C.ar    1  UNL1        0.0375
     39 C           8.7994   74.2425   29.2803 C.ar    1  UNL1        0.0031
     40 C           7.6166   74.6710   28.6186 C.ar    1  UNL1        0.0002
     41 C           7.6939   75.7175   27.6684 C.ar    1  UNL1        0.0028
     42 C           8.9409   76.2902   27.4169 C.ar    1  UNL1        0.0337
     43 C           6.3124   74.0284   28.9206 C.ar    1  UNL1        0.0000
     44 C           5.8202   72.9906   28.1063 C.ar    1  UNL1        0.0000
     45 C           4.5919   72.3871   28.3931 C.ar    1  UNL1        0.0000
     46 C           3.8429   72.8102   29.4933 C.ar    1  UNL1        0.0000
     47 C           4.3204   73.8382   30.3091 C.ar    1  UNL1        0.0000
     48 C           5.5476   74.4459   30.0265 C.ar    1  UNL1        0.0000
@<TRIPOS>BOND
     1    33    34    1
     2    34    35   ar
     3    35    29    1
     4    29    30    2
     5    29    31   am
     6    31     1    1
     7     1     2   ar
     8     2     3   ar
     9     3     4   ar
    10     4     7    1
    11     7     8    1
    12     8     9    1
    13     9    10    1
    14    10    17    1
    15    17    18    1
    16    18    19    1
    17    19    20   ar
    18    20    21   ar
    19    21    22   ar
    20    22    23   ar
    21    23    25    1
    22    25    26    2
    23    25    27    1
    24    23    24   ar
    25    10    11    1
    26    11    13    1
    27    13    14    2
    28    13    15    1
    29    11    12    1
    30     4     5   ar
    31     5     6   ar
    32    35    36   ar
    33    36    37   ar
    34    37    38   ar
    35    38    39   ar
    36    39    40   ar
    37    40    43    1
    38    43    44   ar
    39    44    45   ar
    40    45    46   ar
    41    46    47   ar
    42    47    48   ar
    43    40    41   ar
    44    41    42   ar
    45    42    34   ar
    46     6     1   ar
    47    42    37   ar
    48    12     7    1
    49    48    43   ar
    50    24    19   ar
    51    31    32    1
    52    27    28    1
    53    15    16    1
@<TRIPOS>MOLECULE
*****
 48 53 0 0 0
SMALL
GASTEIGER

@<TRIPOS>ATOM
      1 C          12.0465   81.0204   25.1588 C.ar    1  UNL1        0.0702
      2 C          13.4431   81.1103   25.2673 C.ar    1  UNL1        0.0191
      3 C          14.1093   82.2506   24.8156 C.ar    1  UNL1        0.0356
      4 C          13.3734   83.3097   24.2598 C.ar    1  UNL1        0.1318
      5 N          12.0169   83.2101   24.1907 N.ar    1  UNL1       -0.2279
      6 C          11.3470   82.1102   24.6250 C.ar    1  UNL1        0.1149
      7 N          14.0249   84.5036   23.7822 N.pl3   1  UNL1       -0.2927
      8 C          13.4791   85.8193   24.1365 C.3     1  UNL1        0.0923
      9 C          13.5172   86.7583   22.9275 C.3     1  UNL1        0.0258
     10 C          14.9146   86.8162   22.2742 C.3     1  UNL1        0.0577
     11 C          15.4428   85.3929   21.9456 C.3     1  UNL1        0.1222
     12 C          15.3563   84.4454   23.1617 C.3     1  UNL1        0.1033
     13 C          14.7238   84.8258   20.7414 C.2     1  UNL1        0.3151
     14 O          13.7299   85.4203   20.2443 O.2     1  UNL1       -0.2502
     15 O          15.1917   83.6652   20.1315 O.3     1  UNL1       -0.4801
     16 H          16.0086   83.1799   20.4832 H       1  UNL1        0.2951
     17 C          15.9093   87.6221   23.1427 C.3     1  UNL1        0.2059
     18 O          15.2231   88.5275   24.0094 O.3     1  UNL1       -0.4754
     19 C          15.4218   88.6464   25.3949 C.ar    1  UNL1        0.1388
     20 C          16.6933   89.0154   25.8458 C.ar    1  UNL1        0.0369
     21 C          16.9494   89.1540   27.2107 C.ar    1  UNL1        0.0033
     22 C          15.9358   88.9212   28.1422 C.ar    1  UNL1        0.0066
     23 C          14.6511   88.5425   27.7147 C.ar    1  UNL1        0.0785
     24 C          14.4017   88.4033   26.3371 C.ar    1  UNL1        0.0433
     25 C          13.5738   88.2926   28.6986 C.2     1  UNL1        0.3381
     26 O          13.8185   88.3239   29.9352 O.2     1  UNL1       -0.2451
     27 O          12.2778   88.0211   28.2676 O.3     1  UNL1       -0.4771
     28 H          11.5334   87.8492   28.9328 H       1  UNL1        0.2954
     29 C          10.3414   79.9273   26.6820 C.2     1  UNL1        0.2839
     30 O          10.3946   80.8408   27.5488 O.2     1  UNL1       -0.2665
     31 N          11.3227   79.8731   25.6358 N.am    1  UNL1       -0.2766
     32 H          11.6026   78.9321   25.2793 H       1  UNL1        0.1553
     33 C           9.6876   78.1270   29.2883 C.3     1  UNL1        0.0345
     34 C           9.0205   78.1075   27.9460 C.ar    1  UNL1        0.0202
     35 C           9.3110   78.8825   26.8161 C.ar    1  UNL1        0.1946
     36 O           8.5150   78.5413   25.8179 O.2     1  UNL1       -0.4492
     37 C           7.7091   77.6016   26.2481 C.ar    1  UNL1        0.1452
     38 C           6.7040   76.9579   25.5348 C.ar    1  UNL1        0.0375
     39 C           5.9493   75.9749   26.1988 C.ar    1  UNL1        0.0031
     40 C           6.2091   75.6515   27.5583 C.ar    1  UNL1        0.0002
     41 C           7.2433   76.3299   28.2470 C.ar    1  UNL1        0.0028
     42 C           7.9716   77.2988   27.5563 C.ar    1  UNL1        0.0337
     43 C           5.4048   74.6125   28.2500 C.ar    1  UNL1        0.0000
     44 C           4.6437   74.9371   29.3893 C.ar    1  UNL1        0.0000
     45 C           3.8871   73.9567   30.0386 C.ar    1  UNL1        0.0000
     46 C           3.8801   72.6450   29.5595 C.ar    1  UNL1        0.0000
     47 C           4.6302   72.3103   28.4300 C.ar    1  UNL1        0.0000
     48 C           5.3894   73.2864   27.7772 C.ar    1  UNL1        0.0000
@<TRIPOS>BOND
     1    33    34    1
     2    34    35   ar
     3    35    29    1
     4    29    30    2
     5    29    31   am
     6    31     1    1
     7     1     2   ar
     8     2     3   ar
     9     3     4   ar
    10     4     7    1
    11     7     8    1
    12     8     9    1
    13     9    10    1
    14    10    17    1
    15    17    18    1
    16    18    19    1
    17    19    20   ar
    18    20    21   ar
    19    21    22   ar
    20    22    23   ar
    21    23    25    1
    22    25    26    2
    23    25    27    1
    24    23    24   ar
    25    10    11    1
    26    11    13    1
    27    13    14    2
    28    13    15    1
    29    11    12    1
    30     4     5   ar
    31     5     6   ar
    32    35    36   ar
    33    36    37   ar
    34    37    38   ar
    35    38    39   ar
    36    39    40   ar
    37    40    43    1
    38    43    44   ar
    39    44    45   ar
    40    45    46   ar
    41    46    47   ar
    42    47    48   ar
    43    40    41   ar
    44    41    42   ar
    45    42    34   ar
    46     6     1   ar
    47    42    37   ar
    48    12     7    1
    49    48    43   ar
    50    24    19   ar
    51    31    32    1
    52    27    28    1
    53    15    16    1
@<TRIPOS>MOLECULE
*****
 48 53 0 0 0
SMALL
GASTEIGER

@<TRIPOS>ATOM
      1 C           9.9307   79.7344   24.0172 C.ar    1  UNL1        0.0702
      2 C           9.8708   79.5336   22.6292 C.ar    1  UNL1        0.0191
      3 C           9.1850   78.4350   22.1088 C.ar    1  UNL1        0.0356
      4 C           8.5491   77.5371   22.9815 C.ar    1  UNL1        0.1318
      5 N           8.5983   77.7687   24.3226 N.ar    1  UNL1       -0.2279
      6 C           9.2591   78.8320   24.8517 C.ar    1  UNL1        0.1149
      7 N           7.8311   76.3909   22.4827 N.pl3   1  UNL1       -0.2927
      8 C           6.4566   76.1430   22.9339 C.3     1  UNL1        0.0923
      9 C           6.2442   74.6520   23.2107 C.3     1  UNL1        0.0258
     10 C           6.6820   73.7674   22.0238 C.3     1  UNL1        0.0577
     11 C           8.1348   74.0950   21.5823 C.3     1  UNL1        0.1222
     12 C           8.3451   75.6069   21.3504 C.3     1  UNL1        0.1033
     13 C           9.1293   73.5370   22.5764 C.2     1  UNL1        0.3151
     14 O           9.6560   74.2792   23.4480 O.2     1  UNL1       -0.2502
     15 O           9.4300   72.1777   22.5748 O.3     1  UNL1       -0.4801
     16 H           8.9992   71.5454   21.9107 H       1  UNL1        0.2951
     17 C           5.6791   73.8635   20.8499 C.3     1  UNL1        0.2059
     18 O           4.3325   73.9239   21.3239 O.3     1  UNL1       -0.4754
     19 C           3.3635   74.8594   20.9250 C.ar    1  UNL1        0.1388
     20 C           2.7980   74.7163   19.6538 C.ar    1  UNL1        0.0369
     21 C           1.8271   75.6125   19.2044 C.ar    1  UNL1        0.0033
     22 C           1.4126   76.6661   20.0212 C.ar    1  UNL1        0.0066
     23 C           1.9707   76.8356   21.3004 C.ar    1  UNL1        0.0785
     24 C           2.9502   75.9289   21.7453 C.ar    1  UNL1        0.0433
     25 C           1.5360   77.9523   22.1693 C.2     1  UNL1        0.3381
     26 O           2.0857   79.0835   22.0784 O.2     1  UNL1       -0.2451
     27 O           0.5136   77.7646   23.0961 O.3     1  UNL1       -0.4771
     28 H           0.2085   78.5225   23.6949 H       1  UNL1        0.2954
     29 C          12.0338   80.9872   24.6726 C.2     1  UNL1        0.2839
     30 O          12.7521   79.9518   24.6999 O.2     1  UNL1       -0.2665
     31 N          10.6059   80.8678   24.5894 N.am    1  UNL1       -0.2766
     32 H          10.0279   81.5937   25.0689 H       1  UNL1        0.1553
     33 C          13.1346   82.3664   27.3833 C.3     1  UNL1        0.0345
     34 C          13.1672   82.8988   25.9824 C.ar    1  UNL1        0.0202
     35 C          12.6824   82.3032   24.8112 C.ar    1  UNL1        0.1946
     36 O          12.8731   83.1099   23.7820 O.2     1  UNL1       -0.4492
     37 C          13.4763   84.1874   24.2210 C.ar    1  UNL1        0.1452
     38 C          13.8766   85.2937   23.4797 C.ar    1  UNL1        0.0375
     39 C          14.5170   86.3458   24.1576 C.ar    1  UNL1        0.0031
     40 C          14.7464   86.2771   25.5588 C.ar    1  UNL1        0.0002
     41 C          14.3209   85.1331   26.2758 C.ar    1  UNL1        0.0028
     42 C          13.6886   84.1090   25.5704 C.ar    1  UNL1        0.0337
     43 C          15.4250   87.3937   26.2642 C.ar    1  UNL1        0.0000
     44 C          14.9952   87.7993   27.5422 C.ar    1  UNL1        0.0000
     45 C          15.6361   88.8510   28.2044 C.ar    1  UNL1        0.0000
     46 C          16.7110   89.5076   27.6014 C.ar    1  UNL1        0.0000
     47 C          17.1473   89.1145   26.3343 C.ar    1  UNL1        0.0000
     48 C          16.5096   88.0641   25.6670 C.ar    1  UNL1        0.0000
@<TRIPOS>BOND
     1    33    34    1
     2    34    35   ar
     3    35    29    1
     4    29    30    2
     5    29    31   am
     6    31     1    1
     7     1     2   ar
     8     2     3   ar
     9     3     4   ar
    10     4     7    1
    11     7     8    1
    12     8     9    1
    13     9    10    1
    14    10    17    1
    15    17    18    1
    16    18    19    1
    17    19    20   ar
    18    20    21   ar
    19    21    22   ar
    20    22    23   ar
    21    23    25    1
    22    25    26    2
    23    25    27    1
    24    23    24   ar
    25    10    11    1
    26    11    13    1
    27    13    14    2
    28    13    15    1
    29    11    12    1
    30     4     5   ar
    31     5     6   ar
    32    35    36   ar
    33    36    37   ar
    34    37    38   ar
    35    38    39   ar
    36    39    40   ar
    37    40    43    1
    38    43    44   ar
    39    44    45   ar
    40    45    46   ar
    41    46    47   ar
    42    47    48   ar
    43    40    41   ar
    44    41    42   ar
    45    42    34   ar
    46     6     1   ar
    47    42    37   ar
    48    12     7    1
    49    48    43   ar
    50    24    19   ar
    51    31    32    1
    52    27    28    1
    53    15    16    1
@<TRIPOS>MOLECULE
*****
 48 53 0 0 0
SMALL
GASTEIGER

@<TRIPOS>ATOM
      1 C           9.8313   80.0599   24.0255 C.ar    1  UNL1        0.0702
      2 C           9.4222   79.8678   22.6965 C.ar    1  UNL1        0.0191
      3 C           8.7148   78.7187   22.3400 C.ar    1  UNL1        0.0356
      4 C           8.4082   77.7606   23.3199 C.ar    1  UNL1        0.1318
      5 N           8.7920   77.9829   24.6075 N.ar    1  UNL1       -0.2279
      6 C           9.4806   79.0945   24.9779 C.ar    1  UNL1        0.1149
      7 N           7.6794   76.5611   22.9911 N.pl3   1  UNL1       -0.2927
      8 C           6.3810   76.6635   22.3143 C.3     1  UNL1        0.0923
      9 C           5.3841   75.6680   22.9143 C.3     1  UNL1        0.0258
     10 C           5.9497   74.2327   22.9685 C.3     1  UNL1        0.0577
     11 C           7.3322   74.1979   23.6758 C.3     1  UNL1        0.1222
     12 C           8.3116   75.2376   23.0897 C.3     1  UNL1        0.1033
     13 C           7.1671   74.3640   25.1704 C.2     1  UNL1        0.3151
     14 O           6.3689   73.6335   25.8165 O.2     1  UNL1       -0.2502
     15 O           7.9430   75.2919   25.8596 O.3     1  UNL1       -0.4801
     16 H           8.6195   75.8720   25.3777 H       1  UNL1        0.2951
     17 C           5.9976   73.5928   21.5610 C.3     1  UNL1        0.2059
     18 O           4.6828   73.4014   21.0350 O.3     1  UNL1       -0.4754
     19 C           3.9760   74.3183   20.2396 C.ar    1  UNL1        0.1388
     20 C           2.5784   74.2682   20.2656 C.ar    1  UNL1        0.0369
     21 C           1.8223   75.1570   19.5000 C.ar    1  UNL1        0.0033
     22 C           2.4564   76.1055   18.6955 C.ar    1  UNL1        0.0066
     23 C           3.8599   76.1718   18.6466 C.ar    1  UNL1        0.0785
     24 C           4.6149   75.2710   19.4201 C.ar    1  UNL1        0.0433
     25 C           4.5368   77.1744   17.7936 C.2     1  UNL1        0.3381
     26 O           5.2220   78.0966   18.3131 O.2     1  UNL1       -0.2451
     27 O           4.4241   77.1082   16.4071 O.3     1  UNL1       -0.4771
     28 H           4.8838   77.7892   15.8146 H       1  UNL1        0.2954
     29 C          11.9440   81.2688   24.7305 C.2     1  UNL1        0.2839
     30 O          12.5284   80.2182   25.1091 O.2     1  UNL1       -0.2665
     31 N          10.5395   81.2422   24.4360 N.am    1  UNL1       -0.2766
     32 H           9.9836   82.1034   24.6366 H       1  UNL1        0.1553
     33 C          13.5095   82.7231   27.1586 C.3     1  UNL1        0.0345
     34 C          13.3958   83.1537   25.7273 C.ar    1  UNL1        0.0202
     35 C          12.7103   82.5265   24.6793 C.ar    1  UNL1        0.1946
     36 O          12.8253   83.2406   23.5733 O.2     1  UNL1       -0.4492
     37 C          13.5679   84.2860   23.8439 C.ar    1  UNL1        0.1452
     38 C          13.9531   85.2981   22.9717 C.ar    1  UNL1        0.0375
     39 C          14.7628   86.3311   23.4758 C.ar    1  UNL1        0.0031
     40 C          15.1731   86.3372   24.8367 C.ar    1  UNL1        0.0002
     41 C          14.7566   85.2883   25.6912 C.ar    1  UNL1        0.0028
     42 C          13.9536   84.2805   25.1567 C.ar    1  UNL1        0.0337
     43 C          16.0294   87.4327   25.3580 C.ar    1  UNL1        0.0000
     44 C          15.6378   88.1692   26.4923 C.ar    1  UNL1        0.0000
     45 C          16.4461   89.2002   26.9811 C.ar    1  UNL1        0.0000
     46 C          17.6517   89.5067   26.3464 C.ar    1  UNL1        0.0000
     47 C          18.0517   88.7831   25.2208 C.ar    1  UNL1        0.0000
     48 C          17.2469   87.7518   24.7270 C.ar    1  UNL1        0.0000
@<TRIPOS>BOND
     1    33    34    1
     2    34    35   ar
     3    35    29    1
     4    29    30    2
     5    29    31   am
     6    31     1    1
     7     1     2   ar
     8     2     3   ar
     9     3     4   ar
    10     4     7    1
    11     7     8    1
    12     8     9    1
    13     9    10    1
    14    10    17    1
    15    17    18    1
    16    18    19    1
    17    19    20   ar
    18    20    21   ar
    19    21    22   ar
    20    22    23   ar
    21    23    25    1
    22    25    26    2
    23    25    27    1
    24    23    24   ar
    25    10    11    1
    26    11    13    1
    27    13    14    2
    28    13    15    1
    29    11    12    1
    30     4     5   ar
    31     5     6   ar
    32    35    36   ar
    33    36    37   ar
    34    37    38   ar
    35    38    39   ar
    36    39    40   ar
    37    40    43    1
    38    43    44   ar
    39    44    45   ar
    40    45    46   ar
    41    46    47   ar
    42    47    48   ar
    43    40    41   ar
    44    41    42   ar
    45    42    34   ar
    46     6     1   ar
    47    42    37   ar
    48    12     7    1
    49    48    43   ar
    50    24    19   ar
    51    31    32    1
    52    27    28    1
    53    15    16    1
@<TRIPOS>MOLECULE
*****
 48 53 0 0 0
SMALL
GASTEIGER

@<TRIPOS>ATOM
      1 C          10.5851   81.0982   24.7213 C.ar    1  UNL1        0.0702
      2 C          10.1391   80.4581   25.8883 C.ar    1  UNL1        0.0191
      3 C           9.4889   79.2258   25.8070 C.ar    1  UNL1        0.0356
      4 C           9.2912   78.6270   24.5522 C.ar    1  UNL1        0.1318
      5 N           9.7575   79.2546   23.4372 N.ar    1  UNL1       -0.2279
      6 C          10.3941   80.4541   23.4922 C.ar    1  UNL1        0.1149
      7 N           8.6242   77.3552   24.4271 N.pl3   1  UNL1       -0.2927
      8 C           9.1076   76.2034   25.1979 C.3     1  UNL1        0.0923
      9 C           9.0973   74.9387   24.3346 C.3     1  UNL1        0.0258
     10 C           7.7325   74.7061   23.6520 C.3     1  UNL1        0.0577
     11 C           7.2691   75.9679   22.8735 C.3     1  UNL1        0.1222
     12 C           7.3276   77.2420   23.7437 C.3     1  UNL1        0.1033
     13 C           8.0649   76.1246   21.5965 C.2     1  UNL1        0.3151
     14 O           8.2778   75.1367   20.8436 O.2     1  UNL1       -0.2502
     15 O           8.5230   77.3809   21.2091 O.3     1  UNL1       -0.4801
     16 H           8.3406   78.2030   21.7725 H       1  UNL1        0.2951
     17 C           6.6699   74.2234   24.6674 C.3     1  UNL1        0.2059
     18 O           7.2718   73.8555   25.9101 O.3     1  UNL1       -0.4754
     19 C           6.7062   74.0414   27.1823 C.ar    1  UNL1        0.1388
     20 C           7.3082   74.9693   28.0385 C.ar    1  UNL1        0.0369
     21 C           6.7882   75.2000   29.3129 C.ar    1  UNL1        0.0033
     22 C           5.6602   74.5018   29.7477 C.ar    1  UNL1        0.0066
     23 C           5.0408   73.5590   28.9086 C.ar    1  UNL1        0.0785
     24 C           5.5723   73.3308   27.6260 C.ar    1  UNL1        0.0433
     25 C           3.8459   72.8147   29.3659 C.2     1  UNL1        0.3381
     26 O           2.9103   73.4134   29.9626 O.2     1  UNL1       -0.2451
     27 O           3.7428   71.4443   29.1406 O.3     1  UNL1       -0.4771
     28 H           2.9290   70.9259   29.4491 H       1  UNL1        0.2954
     29 C          12.7005   82.4760   24.9431 C.2     1  UNL1        0.2839
     30 O          13.3415   81.5648   25.5327 O.2     1  UNL1       -0.2665
     31 N          11.2810   82.3557   24.7667 N.am    1  UNL1       -0.2766
     32 H          10.7127   83.2319   24.7820 H       1  UNL1        0.1553
     33 C          15.4717   82.6442   23.2838 C.3     1  UNL1        0.0345
     34 C          14.6170   83.7649   23.7943 C.ar    1  UNL1        0.0202
     35 C          13.4215   83.6895   24.5200 C.ar    1  UNL1        0.1946
     36 O          12.9925   84.9051   24.8109 O.2     1  UNL1       -0.4492
     37 C          13.8353   85.7647   24.2927 C.ar    1  UNL1        0.1452
     38 C          13.7683   87.1525   24.3473 C.ar    1  UNL1        0.0375
     39 C          14.7851   87.8878   23.7133 C.ar    1  UNL1        0.0031
     40 C          15.8482   87.2288   23.0380 C.ar    1  UNL1        0.0002
     41 C          15.8792   85.8138   23.0082 C.ar    1  UNL1        0.0028
     42 C          14.8539   85.1172   23.6482 C.ar    1  UNL1        0.0337
     43 C          16.9162   88.0156   22.3707 C.ar    1  UNL1        0.0000
     44 C          16.8047   88.3647   21.0112 C.ar    1  UNL1        0.0000
     45 C          17.8118   89.1058   20.3853 C.ar    1  UNL1        0.0000
     46 C          18.9382   89.5071   21.1068 C.ar    1  UNL1        0.0000
     47 C          19.0603   89.1678   22.4560 C.ar    1  UNL1        0.0000
     48 C          18.0568   88.4260   23.0868 C.ar    1  UNL1        0.0000
@<TRIPOS>BOND
     1    33    34    1
     2    34    35   ar
     3    35    29    1
     4    29    30    2
     5    29    31   am
     6    31     1    1
     7     1     2   ar
     8     2     3   ar
     9     3     4   ar
    10     4     7    1
    11     7     8    1
    12     8     9    1
    13     9    10    1
    14    10    17    1
    15    17    18    1
    16    18    19    1
    17    19    20   ar
    18    20    21   ar
    19    21    22   ar
    20    22    23   ar
    21    23    25    1
    22    25    26    2
    23    25    27    1
    24    23    24   ar
    25    10    11    1
    26    11    13    1
    27    13    14    2
    28    13    15    1
    29    11    12    1
    30     4     5   ar
    31     5     6   ar
    32    35    36   ar
    33    36    37   ar
    34    37    38   ar
    35    38    39   ar
    36    39    40   ar
    37    40    43    1
    38    43    44   ar
    39    44    45   ar
    40    45    46   ar
    41    46    47   ar
    42    47    48   ar
    43    40    41   ar
    44    41    42   ar
    45    42    34   ar
    46     6     1   ar
    47    42    37   ar
    48    12     7    1
    49    48    43   ar
    50    24    19   ar
    51    31    32    1
    52    27    28    1
    53    15    16    1
@<TRIPOS>MOLECULE
*****
 48 53 0 0 0
SMALL
GASTEIGER

@<TRIPOS>ATOM
      1 C          10.6488   81.0320   24.6332 C.ar    1  UNL1        0.0702
      2 C          10.2617   80.4524   23.4147 C.ar    1  UNL1        0.0191
      3 C           9.5991   79.2240   23.4019 C.ar    1  UNL1        0.0356
      4 C           9.3152   78.5762   24.6151 C.ar    1  UNL1        0.1318
      5 N           9.6763   79.1720   25.7853 N.ar    1  UNL1       -0.2279
      6 C          10.3213   80.3677   25.8220 C.ar    1  UNL1        0.1149
      7 N           8.6326   77.3068   24.6434 N.pl3   1  UNL1       -0.2927
      8 C           7.3697   77.1456   23.9130 C.3     1  UNL1        0.0923
      9 C           6.3658   76.3464   24.7487 C.3     1  UNL1        0.0258
     10 C           6.9607   75.0206   25.2694 C.3     1  UNL1        0.0577
     11 C           8.3045   75.2586   26.0115 C.3     1  UNL1        0.1222
     12 C           9.2892   76.1035   25.1745 C.3     1  UNL1        0.1033
     13 C           8.0569   75.8713   27.3723 C.2     1  UNL1        0.3151
     14 O           7.4066   75.2465   28.2526 O.2     1  UNL1       -0.2502
     15 O           8.5983   77.1147   27.6871 O.3     1  UNL1       -0.4801
     16 H           9.1553   77.6300   27.0158 H       1  UNL1        0.2951
     17 C           7.0975   73.9800   24.1330 C.3     1  UNL1        0.2059
     18 O           5.8378   73.7293   23.5070 O.3     1  UNL1       -0.4754
     19 C           5.5462   73.9179   22.1459 C.ar    1  UNL1        0.1388
     20 C           6.5134   73.5387   21.2094 C.ar    1  UNL1        0.0369
     21 C           6.2784   73.6977   19.8429 C.ar    1  UNL1        0.0033
     22 C           5.0726   74.2418   19.3967 C.ar    1  UNL1        0.0066
     23 C           4.0872   74.6372   20.3182 C.ar    1  UNL1        0.0785
     24 C           4.3326   74.4752   21.6941 C.ar    1  UNL1        0.0433
     25 C           2.8081   75.2165   19.8501 C.2     1  UNL1        0.3381
     26 O           2.5334   75.2475   18.6198 O.2     1  UNL1       -0.2451
     27 O           1.8940   75.7329   20.7651 O.3     1  UNL1       -0.4771
     28 H           1.0157   76.1312   20.4549 H       1  UNL1        0.2954
     29 C          12.7039   82.4710   24.9906 C.2     1  UNL1        0.2839
     30 O          13.3058   81.6017   25.6768 O.2     1  UNL1       -0.2665
     31 N          11.3104   82.3075   24.6881 N.am    1  UNL1       -0.2766
     32 H          10.7245   83.1689   24.6117 H       1  UNL1        0.1553
     33 C          15.3733   82.6453   23.1725 C.3     1  UNL1        0.0345
     34 C          14.5867   83.7622   23.7897 C.ar    1  UNL1        0.0202
     35 C          13.4356   83.6837   24.5837 C.ar    1  UNL1        0.1946
     36 O          13.0633   84.8945   24.9602 O.2     1  UNL1       -0.4492
     37 C          13.8996   85.7552   24.4335 C.ar    1  UNL1        0.1452
     38 C          13.8795   87.1398   24.5604 C.ar    1  UNL1        0.0375
     39 C          14.8786   87.8775   23.9014 C.ar    1  UNL1        0.0031
     40 C          15.8776   87.2240   23.1297 C.ar    1  UNL1        0.0002
     41 C          15.8624   85.8121   23.0284 C.ar    1  UNL1        0.0028
     42 C          14.8565   85.1130   23.6959 C.ar    1  UNL1        0.0337
     43 C          16.9272   88.0134   22.4368 C.ar    1  UNL1        0.0000
     44 C          18.0218   88.5336   23.1536 C.ar    1  UNL1        0.0000
     45 C          19.0089   89.2765   22.4987 C.ar    1  UNL1        0.0000
     46 C          18.9163   89.5073   21.1245 C.ar    1  UNL1        0.0000
     47 C          17.8360   88.9963   20.4020 C.ar    1  UNL1        0.0000
     48 C          16.8454   88.2535   21.0519 C.ar    1  UNL1        0.0000
@<TRIPOS>BOND
     1    33    34    1
     2    34    35   ar
     3    35    29    1
     4    29    30    2
     5    29    31   am
     6    31     1    1
     7     1     2   ar
     8     2     3   ar
     9     3     4   ar
    10     4     7    1
    11     7     8    1
    12     8     9    1
    13     9    10    1
    14    10    17    1
    15    17    18    1
    16    18    19    1
    17    19    20   ar
    18    20    21   ar
    19    21    22   ar
    20    22    23   ar
    21    23    25    1
    22    25    26    2
    23    25    27    1
    24    23    24   ar
    25    10    11    1
    26    11    13    1
    27    13    14    2
    28    13    15    1
    29    11    12    1
    30     4     5   ar
    31     5     6   ar
    32    35    36   ar
    33    36    37   ar
    34    37    38   ar
    35    38    39   ar
    36    39    40   ar
    37    40    43    1
    38    43    44   ar
    39    44    45   ar
    40    45    46   ar
    41    46    47   ar
    42    47    48   ar
    43    40    41   ar
    44    41    42   ar
    45    42    34   ar
    46     6     1   ar
    47    42    37   ar
    48    12     7    1
    49    48    43   ar
    50    24    19   ar
    51    31    32    1
    52    27    28    1
    53    15    16    1
@<TRIPOS>MOLECULE
*****
 48 53 0 0 0
SMALL
GASTEIGER

@<TRIPOS>ATOM
      1 C          10.4353   80.8242   24.6717 C.ar    1  UNL1        0.0702
      2 C          10.1090   80.0931   25.8247 C.ar    1  UNL1        0.0191
      3 C           9.4352   78.8757   25.7155 C.ar    1  UNL1        0.0356
      4 C           9.0932   78.3834   24.4455 C.ar    1  UNL1        0.1318
      5 N           9.4452   79.0977   23.3407 N.ar    1  UNL1       -0.2279
      6 C          10.1021   80.2846   23.4228 C.ar    1  UNL1        0.1149
      7 N           8.3973   77.1304   24.2914 N.pl3   1  UNL1       -0.2927
      8 C           7.5437   76.6361   25.3783 C.3     1  UNL1        0.0923
      9 C           7.7381   75.1292   25.5692 C.3     1  UNL1        0.0258
     10 C           7.5843   74.3464   24.2477 C.3     1  UNL1        0.0577
     11 C           8.4962   74.9331   23.1354 C.3     1  UNL1        0.1222
     12 C           8.3214   76.4598   22.9854 C.3     1  UNL1        0.1033
     13 C           9.9406   74.5559   23.3806 C.2     1  UNL1        0.3151
     14 O          10.8304   75.4424   23.4833 O.2     1  UNL1       -0.2502
     15 O          10.2935   73.2205   23.5542 O.3     1  UNL1       -0.4801
     16 H           9.5989   72.4841   23.5126 H       1  UNL1        0.2951
     17 C           6.1032   74.2689   23.8082 C.3     1  UNL1        0.2059
     18 O           5.9583   73.5010   22.6119 O.3     1  UNL1       -0.4754
     19 C           5.3821   73.9516   21.4126 C.ar    1  UNL1        0.1388
     20 C           6.2210   74.1265   20.3072 C.ar    1  UNL1        0.0369
     21 C           5.7049   74.5674   19.0877 C.ar    1  UNL1        0.0033
     22 C           4.3420   74.8422   18.9606 C.ar    1  UNL1        0.0066
     23 C           3.4791   74.6808   20.0587 C.ar    1  UNL1        0.0785
     24 C           4.0076   74.2377   21.2850 C.ar    1  UNL1        0.0433
     25 C           2.0338   74.9728   19.9294 C.2     1  UNL1        0.3381
     26 O           1.6208   76.1642   19.9259 O.2     1  UNL1       -0.2451
     27 O           1.1149   73.9333   19.8093 O.3     1  UNL1       -0.4771
     28 H           0.1238   74.1226   19.7198 H       1  UNL1        0.2954
     29 C          12.5829   82.1684   24.7266 C.2     1  UNL1        0.2839
     30 O          13.2857   81.2012   25.1258 O.2     1  UNL1       -0.2665
     31 N          11.1510   82.0694   24.7424 N.am    1  UNL1       -0.2766
     32 H          10.6048   82.9407   24.9251 H       1  UNL1        0.1553
     33 C          15.4897   82.4843   23.3437 C.3     1  UNL1        0.0345
     34 C          14.5116   83.5556   23.7215 C.ar    1  UNL1        0.0202
     35 C          13.2567   83.4168   24.3279 C.ar    1  UNL1        0.1946
     36 O          12.7167   84.6066   24.5255 O.2     1  UNL1       -0.4492
     37 C          13.5457   85.5080   24.0587 C.ar    1  UNL1        0.1452
     38 C          13.3768   86.8882   24.0502 C.ar    1  UNL1        0.0375
     39 C          14.3989   87.6747   23.4904 C.ar    1  UNL1        0.0031
     40 C          15.5684   87.0735   22.9507 C.ar    1  UNL1        0.0002
     41 C          15.7009   85.6644   22.9815 C.ar    1  UNL1        0.0028
     42 C          14.6671   84.9160   23.5448 C.ar    1  UNL1        0.0337
     43 C          16.6411   87.9139   22.3609 C.ar    1  UNL1        0.0000
     44 C          16.5580   88.3459   21.0233 C.ar    1  UNL1        0.0000
     45 C          17.5694   89.1374   20.4704 C.ar    1  UNL1        0.0000
     46 C          18.6719   89.5071   21.2438 C.ar    1  UNL1        0.0000
     47 C          18.7658   89.0857   22.5719 C.ar    1  UNL1        0.0000
     48 C          17.7578   88.2933   23.1298 C.ar    1  UNL1        0.0000
@<TRIPOS>BOND
     1    33    34    1
     2    34    35   ar
     3    35    29    1
     4    29    30    2
     5    29    31   am
     6    31     1    1
     7     1     2   ar
     8     2     3   ar
     9     3     4   ar
    10     4     7    1
    11     7     8    1
    12     8     9    1
    13     9    10    1
    14    10    17    1
    15    17    18    1
    16    18    19    1
    17    19    20   ar
    18    20    21   ar
    19    21    22   ar
    20    22    23   ar
    21    23    25    1
    22    25    26    2
    23    25    27    1
    24    23    24   ar
    25    10    11    1
    26    11    13    1
    27    13    14    2
    28    13    15    1
    29    11    12    1
    30     4     5   ar
    31     5     6   ar
    32    35    36   ar
    33    36    37   ar
    34    37    38   ar
    35    38    39   ar
    36    39    40   ar
    37    40    43    1
    38    43    44   ar
    39    44    45   ar
    40    45    46   ar
    41    46    47   ar
    42    47    48   ar
    43    40    41   ar
    44    41    42   ar
    45    42    34   ar
    46     6     1   ar
    47    42    37   ar
    48    12     7    1
    49    48    43   ar
    50    24    19   ar
    51    31    32    1
    52    27    28    1
    53    15    16    1
@<TRIPOS>MOLECULE
*****
 48 53 0 0 0
SMALL
GASTEIGER

@<TRIPOS>ATOM
      1 C          10.4694   81.0716   24.7419 C.ar    1  UNL1        0.0702
      2 C          10.1819   80.3886   25.9341 C.ar    1  UNL1        0.0191
      3 C           9.5303   79.1550   25.8956 C.ar    1  UNL1        0.0356
      4 C           9.1717   78.5980   24.6573 C.ar    1  UNL1        0.1318
      5 N           9.4861   79.2669   23.5134 N.ar    1  UNL1       -0.2279
      6 C          10.1209   80.4685   23.5266 C.ar    1  UNL1        0.1149
      7 N           8.4978   77.3262   24.5761 N.pl3   1  UNL1       -0.2927
      8 C           8.6300   76.3635   25.6761 C.3     1  UNL1        0.0923
      9 C           8.8144   74.9456   25.1279 C.3     1  UNL1        0.0258
     10 C           7.7297   74.5707   24.0956 C.3     1  UNL1        0.0577
     11 C           7.6262   75.6395   22.9732 C.3     1  UNL1        0.1222
     12 C           7.4857   77.0681   23.5417 C.3     1  UNL1        0.1033
     13 C           8.7992   75.5270   22.0245 C.2     1  UNL1        0.3151
     14 O           9.0291   74.4525   21.4074 O.2     1  UNL1       -0.2502
     15 O           9.6066   76.6340   21.7782 O.3     1  UNL1       -0.4801
     16 H           9.4304   77.5234   22.2303 H       1  UNL1        0.2951
     17 C           6.3674   74.3089   24.7801 C.3     1  UNL1        0.2059
     18 O           6.0896   75.2973   25.7739 O.3     1  UNL1       -0.4754
     19 C           5.5777   75.0482   27.0581 C.ar    1  UNL1        0.1388
     20 C           5.5887   73.7294   27.5240 C.ar    1  UNL1        0.0369
     21 C           5.0976   73.4216   28.7936 C.ar    1  UNL1        0.0033
     22 C           4.5860   74.4303   29.6119 C.ar    1  UNL1        0.0066
     23 C           4.5575   75.7627   29.1640 C.ar    1  UNL1        0.0785
     24 C           5.0528   76.0645   27.8822 C.ar    1  UNL1        0.0433
     25 C           4.0140   76.8354   30.0272 C.2     1  UNL1        0.3381
     26 O           4.7483   77.7919   30.3958 O.2     1  UNL1       -0.2451
     27 O           2.6846   76.7990   30.4403 O.3     1  UNL1       -0.4771
     28 H           2.3030   77.5284   31.0307 H       1  UNL1        0.2954
     29 C          12.5884   82.4587   24.8312 C.2     1  UNL1        0.2839
     30 O          13.2669   81.5530   25.3863 O.2     1  UNL1       -0.2665
     31 N          11.1615   82.3320   24.7398 N.am    1  UNL1       -0.2766
     32 H          10.5914   83.2061   24.7843 H       1  UNL1        0.1553
     33 C          15.4561   82.6460   23.3471 C.3     1  UNL1        0.0345
     34 C          14.5158   83.7556   23.7099 C.ar    1  UNL1        0.0202
     35 C          13.2780   83.6727   24.3601 C.ar    1  UNL1        0.1946
     36 O          12.7725   84.8826   24.5245 O.2     1  UNL1       -0.4492
     37 C          13.6069   85.7434   23.9950 C.ar    1  UNL1        0.1452
     38 C          13.4701   87.1258   23.9340 C.ar    1  UNL1        0.0375
     39 C          14.4919   87.8633   23.3106 C.ar    1  UNL1        0.0031
     40 C          15.6292   87.2118   22.7606 C.ar    1  UNL1        0.0002
     41 C          15.7298   85.8023   22.8460 C.ar    1  UNL1        0.0028
     42 C          14.6973   85.1034   23.4718 C.ar    1  UNL1        0.0337
     43 C          16.7018   88.0007   22.1032 C.ar    1  UNL1        0.0000
     44 C          17.9813   88.0922   22.6839 C.ar    1  UNL1        0.0000
     45 C          18.9895   88.8357   22.0627 C.ar    1  UNL1        0.0000
     46 C          18.7341   89.4937   20.8577 C.ar    1  UNL1        0.0000
     47 C          17.4694   89.4103   20.2712 C.ar    1  UNL1        0.0000
     48 C          16.4570   88.6690   20.8884 C.ar    1  UNL1        0.0000
@<TRIPOS>BOND
     1    33    34    1
     2    34    35   ar
     3    35    29    1
     4    29    30    2
     5    29    31   am
     6    31     1    1
     7     1     2   ar
     8     2     3   ar
     9     3     4   ar
    10     4     7    1
    11     7     8    1
    12     8     9    1
    13     9    10    1
    14    10    17    1
    15    17    18    1
    16    18    19    1
    17    19    20   ar
    18    20    21   ar
    19    21    22   ar
    20    22    23   ar
    21    23    25    1
    22    25    26    2
    23    25    27    1
    24    23    24   ar
    25    10    11    1
    26    11    13    1
    27    13    14    2
    28    13    15    1
    29    11    12    1
    30     4     5   ar
    31     5     6   ar
    32    35    36   ar
    33    36    37   ar
    34    37    38   ar
    35    38    39   ar
    36    39    40   ar
    37    40    43    1
    38    43    44   ar
    39    44    45   ar
    40    45    46   ar
    41    46    47   ar
    42    47    48   ar
    43    40    41   ar
    44    41    42   ar
    45    42    34   ar
    46     6     1   ar
    47    42    37   ar
    48    12     7    1
    49    48    43   ar
    50    24    19   ar
    51    31    32    1
    52    27    28    1
    53    15    16    1
