@<TRIPOS>MOLECULE
*****
 53 58 0 0 0
SMALL
GASTEIGER

@<TRIPOS>ATOM
      1 N          61.0545   85.5685   11.9455 N.am    1  UNL1       -0.2945
      2 C          59.8351   86.0395   11.3490 C.2     1  UNL1        0.2483
      3 O          58.7411   85.8985   11.9616 O.2     1  UNL1       -0.2701
      4 H          61.9563   85.9689   11.6006 H       1  UNL1        0.1501
      5 C          59.8473   86.7248   10.0361 C.ar    1  UNL1        0.0808
      6 C          59.1631   86.1546    8.9491 C.ar    1  UNL1        0.0080
      7 C          59.1570   86.7855    7.7026 C.ar    1  UNL1        0.0148
      8 C          59.8456   87.9936    7.5147 C.ar    1  UNL1        0.0502
      9 C          60.5420   88.5584    8.5933 C.ar    1  UNL1        0.0443
     10 C          60.5492   87.9313    9.8434 C.ar    1  UNL1        0.1457
     11 F          61.2784   88.4852   10.8451 F       1  UNL1       -0.2040
     12 N          59.8422   88.6497    6.2327 N.pl3   1  UNL1       -0.3040
     13 C          60.9863   88.4997    5.3272 C.3     1  UNL1        0.1123
     14 C          61.2711   89.8219    4.6134 C.3     1  UNL1        0.1136
     15 N          60.0283   90.3830    4.0645 N.pl3   1  UNL1       -0.2897
     16 C          58.8751   90.5140    4.9651 C.3     1  UNL1        0.1136
     17 C          58.5977   89.1880    5.6738 C.3     1  UNL1        0.1123
     18 C          60.0115   91.0531    2.7878 C.ar    1  UNL1        0.1318
     19 C          61.1941   91.2755    2.0635 C.ar    1  UNL1        0.0343
     20 C          61.1358   91.9304    0.8324 C.ar    1  UNL1        0.0083
     21 C          59.9073   92.3853    0.3309 C.ar    1  UNL1        0.0906
     22 C          58.7467   92.1280    1.0768 C.ar    1  UNL1        0.1041
     23 N          58.8277   91.4860    2.2720 N.ar    1  UNL1       -0.2292
     24 C          59.8244   93.0494   -1.0200 C.3     1  UNL1        0.4200
     25 F          59.7655   92.0781   -2.0016 F       1  UNL1       -0.1658
     26 F          60.9339   93.8471   -1.2405 F       1  UNL1       -0.1658
     27 F          58.6951   93.8453   -1.1044 F       1  UNL1       -0.1658
     28 C          61.0720   84.7828   13.1841 C.3     1  UNL1        0.1535
     29 N          61.6659   82.4642   12.3095 N.am    1  UNL1       -0.2825
     30 C          60.6977   83.3458   12.9032 C.2     1  UNL1        0.2443
     31 O          59.5371   82.9320   13.1725 O.2     1  UNL1       -0.2730
     32 H          62.6732   82.7324   12.3874 H       1  UNL1        0.1549
     33 CA         59.8690   79.3878   11.0906 C.ar    1  UNL1        0.1577
     34 C          60.1564   80.5412   11.8399 C.ar    1  UNL1        0.0404
     35 C          61.3556   81.2409   11.6162 C.ar    1  UNL1        0.0536
     36 C          62.2352   80.7745   10.6308 C.ar    1  UNL1        0.0353
     37 C          61.9224   79.6206    9.9124 C.ar    1  UNL1        0.1003
     38 N          60.7599   78.9614   10.1543 N.ar    1  UNL1       -0.2372
     39 O          57.6021   78.8865   10.5768 O.2     1  UNL1       -0.2434
     40 C          58.6092   78.6406   11.2928 C.2     1  UNL1        0.3560
     41 OXT        58.5108   77.6544   12.2724 O.3     1  UNL1       -0.4761
     42 HXT        59.2895   77.4162   12.8745 H       1  UNL1        0.2955
     43 C          62.4633   84.8773   13.8343 C.3     1  UNL1        0.0569
     44 C          62.6010   86.1172   14.6734 C.ar    1  UNL1       -0.0017
     45 C          62.4201   86.2026   16.0510 C.ar    1  UNL1        0.0681
     46 N          62.7632   87.4320   16.4977 N.ar    1  UNL1       -0.3523
     47 C          63.1684   88.1207   15.4167 C.ar    1  UNL1        0.0563
     48 C          63.6596   89.4251   15.3827 C.ar    1  UNL1        0.0170
     49 C          64.0655   89.9430   14.1394 C.ar    1  UNL1        0.0015
     50 C          63.9717   89.1551   12.9714 C.ar    1  UNL1        0.0001
     51 C          63.4745   87.8409   13.0361 C.ar    1  UNL1        0.0012
     52 C          63.0824   87.3530   14.2834 C.ar    1  UNL1        0.0131
     53 H          62.7433   87.7651   17.4871 H       1  UNL1        0.1660
@<TRIPOS>BOND
     1    39    40    2
     2    40    41    1
     3    40    33    1
     4    33    34   ar
     5    34    35   ar
     6    35    29    1
     7    29    30   am
     8    30    31    2
     9    30    28    1
    10    28    43    1
    11    43    44    1
    12    44    45   ar
    13    45    46   ar
    14    46    47   ar
    15    47    48   ar
    16    48    49   ar
    17    49    50   ar
    18    50    51   ar
    19    51    52   ar
    20    28     1    1
    21     1     2   am
    22     2     3    2
    23     2     5    1
    24     5     6   ar
    25     6     7   ar
    26     7     8   ar
    27     8    12    1
    28    12    13    1
    29    13    14    1
    30    14    15    1
    31    15    18    1
    32    18    19   ar
    33    19    20   ar
    34    20    21   ar
    35    21    24    1
    36    24    25    1
    37    24    26    1
    38    24    27    1
    39    21    22   ar
    40    22    23   ar
    41    15    16    1
    42    16    17    1
    43     8     9   ar
    44     9    10   ar
    45    10    11    1
    46    35    36   ar
    47    36    37   ar
    48    37    38   ar
    49    38    33   ar
    50    52    44   ar
    51    10     5   ar
    52    52    47   ar
    53    17    12    1
    54    23    18   ar
    55    41    42    1
    56    29    32    1
    57    46    53    1
    58     1     4    1
@<TRIPOS>MOLECULE
*****
 53 58 0 0 0
SMALL
GASTEIGER

@<TRIPOS>ATOM
      1 N          60.7472   86.9091   12.4360 N.am    1  UNL1       -0.2945
      2 C          61.0786   86.2649   11.1951 C.2     1  UNL1        0.2483
      3 O          61.5639   85.1003   11.2022 O.2     1  UNL1       -0.2701
      4 H          60.0673   87.7026   12.4109 H       1  UNL1        0.1501
      5 C          60.8234   86.9357    9.8995 C.ar    1  UNL1        0.0808
      6 C          59.9352   86.3530    8.9793 C.ar    1  UNL1        0.0080
      7 C          59.6757   86.9701    7.7531 C.ar    1  UNL1        0.0148
      8 C          60.3087   88.1765    7.4169 C.ar    1  UNL1        0.0502
      9 C          61.2072   88.7535    8.3265 C.ar    1  UNL1        0.0443
     10 C          61.4685   88.1403    9.5560 C.ar    1  UNL1        0.1457
     11 F          62.3835   88.7057   10.3836 F       1  UNL1       -0.2040
     12 N          60.0446   88.8183    6.1551 N.pl3   1  UNL1       -0.3040
     13 C          61.0270   88.7367    5.0691 C.3     1  UNL1        0.1123
     14 C          61.0970   90.0680    4.3197 C.3     1  UNL1        0.1136
     15 N          59.7441   90.5390    3.9897 N.pl3   1  UNL1       -0.2897
     16 C          58.7533   90.6010    5.0724 C.3     1  UNL1        0.1136
     17 C          58.6900   89.2664    5.8155 C.3     1  UNL1        0.1123
     18 C          59.4668   91.1939    2.7353 C.ar    1  UNL1        0.1318
     19 C          60.2996   92.2119    2.2425 C.ar    1  UNL1        0.0343
     20 C          59.9951   92.8229    1.0252 C.ar    1  UNL1        0.0083
     21 C          58.8515   92.4405    0.3084 C.ar    1  UNL1        0.0906
     22 C          58.0550   91.4076    0.8264 C.ar    1  UNL1        0.1041
     23 N          58.3729   90.8253    2.0127 N.ar    1  UNL1       -0.2292
     24 C          58.5389   93.0576   -1.0310 C.3     1  UNL1        0.4200
     25 F          57.4048   93.8397   -0.9181 F       1  UNL1       -0.1658
     26 F          58.3169   92.0756   -1.9809 F       1  UNL1       -0.1658
     27 F          59.5906   93.8474   -1.4622 F       1  UNL1       -0.1658
     28 C          61.0915   86.3304   13.7391 C.3     1  UNL1        0.1535
     29 N          62.2832   88.5698   13.9825 N.am    1  UNL1       -0.2825
     30 C          62.0063   87.2589   14.5041 C.2     1  UNL1        0.2443
     31 O          62.5357   86.8755   15.5828 O.2     1  UNL1       -0.2730
     32 H          61.6113   88.9621   13.2844 H       1  UNL1        0.1549
     33 CA         65.4784   90.5548   13.8130 C.ar    1  UNL1        0.1577
     34 C          64.4297   89.7023   13.4285 C.ar    1  UNL1        0.0404
     35 C          63.4136   89.3836   14.3471 C.ar    1  UNL1        0.0536
     36 C          63.4647   89.9425   15.6306 C.ar    1  UNL1        0.0353
     37 C          64.5258   90.7773   15.9813 C.ar    1  UNL1        0.1003
     38 N          65.4967   91.0625   15.0756 N.ar    1  UNL1       -0.2372
     39 O          67.7332   91.0806   13.2717 O.2     1  UNL1       -0.2434
     40 C          66.5520   90.9199   12.8641 C.2     1  UNL1        0.3560
     41 OXT        66.2814   91.0916   11.5079 O.3     1  UNL1       -0.4761
     42 HXT        65.3504   90.9738   11.1272 H       1  UNL1        0.2955
     43 C          59.8042   86.0425   14.5311 C.3     1  UNL1        0.0569
     44 C          58.7623   85.3781   13.6746 C.ar    1  UNL1       -0.0017
     45 C          57.5902   85.9624   13.2030 C.ar    1  UNL1        0.0681
     46 N          56.9578   85.1289   12.3461 N.ar    1  UNL1       -0.3523
     47 C          57.7246   84.0278   12.2646 C.ar    1  UNL1        0.0563
     48 C          57.5056   82.9044   11.4686 C.ar    1  UNL1        0.0170
     49 C          58.4616   81.8732   11.5086 C.ar    1  UNL1        0.0015
     50 C          59.6014   81.9864   12.3343 C.ar    1  UNL1        0.0001
     51 C          59.7978   83.1330   13.1250 C.ar    1  UNL1        0.0012
     52 C          58.8344   84.1407   13.0625 C.ar    1  UNL1        0.0131
     53 H          56.0690   85.3184   11.8320 H       1  UNL1        0.1660
@<TRIPOS>BOND
     1    39    40    2
     2    40    41    1
     3    40    33    1
     4    33    34   ar
     5    34    35   ar
     6    35    29    1
     7    29    30   am
     8    30    31    2
     9    30    28    1
    10    28    43    1
    11    43    44    1
    12    44    45   ar
    13    45    46   ar
    14    46    47   ar
    15    47    48   ar
    16    48    49   ar
    17    49    50   ar
    18    50    51   ar
    19    51    52   ar
    20    28     1    1
    21     1     2   am
    22     2     3    2
    23     2     5    1
    24     5     6   ar
    25     6     7   ar
    26     7     8   ar
    27     8    12    1
    28    12    13    1
    29    13    14    1
    30    14    15    1
    31    15    18    1
    32    18    19   ar
    33    19    20   ar
    34    20    21   ar
    35    21    24    1
    36    24    25    1
    37    24    26    1
    38    24    27    1
    39    21    22   ar
    40    22    23   ar
    41    15    16    1
    42    16    17    1
    43     8     9   ar
    44     9    10   ar
    45    10    11    1
    46    35    36   ar
    47    36    37   ar
    48    37    38   ar
    49    38    33   ar
    50    52    44   ar
    51    10     5   ar
    52    52    47   ar
    53    17    12    1
    54    23    18   ar
    55    41    42    1
    56    29    32    1
    57    46    53    1
    58     1     4    1
@<TRIPOS>MOLECULE
*****
 53 58 0 0 0
SMALL
GASTEIGER

@<TRIPOS>ATOM
      1 N          61.0073   85.7762   12.2149 N.am    1  UNL1       -0.2945
      2 C          59.7861   85.9429   11.4764 C.2     1  UNL1        0.2483
      3 O          58.6954   85.5416   11.9677 O.2     1  UNL1       -0.2701
      4 H          61.8204   86.3824   11.9621 H       1  UNL1        0.1501
      5 C          59.7825   86.6153   10.1568 C.ar    1  UNL1        0.0808
      6 C          60.3135   87.9109   10.0365 C.ar    1  UNL1        0.0080
      7 C          60.3249   88.5629    8.8009 C.ar    1  UNL1        0.0148
      8 C          59.7940   87.9370    7.6627 C.ar    1  UNL1        0.0502
      9 C          59.2496   86.6498    7.7817 C.ar    1  UNL1        0.0443
     10 C          59.2379   85.9926    9.0162 C.ar    1  UNL1        0.1457
     11 F          58.6548   84.7698    9.0968 F       1  UNL1       -0.2040
     12 N          59.8039   88.6030    6.3859 N.pl3   1  UNL1       -0.3040
     13 C          60.8983   88.3620    5.4396 C.3     1  UNL1        0.1123
     14 C          61.2735   89.6609    4.7247 C.3     1  UNL1        0.1136
     15 N          60.0665   90.3339    4.2237 N.pl3   1  UNL1       -0.2897
     16 C          58.9612   90.5569    5.1652 C.3     1  UNL1        0.1136
     17 C          58.5929   89.2537    5.8748 C.3     1  UNL1        0.1123
     18 C          60.0645   91.0150    2.9527 C.ar    1  UNL1        0.1318
     19 C          61.2619   91.3195    2.2848 C.ar    1  UNL1        0.0343
     20 C          61.2175   91.9822    1.0573 C.ar    1  UNL1        0.0083
     21 C          59.9863   92.3638    0.5039 C.ar    1  UNL1        0.0906
     22 C          58.8120   92.0258    1.1942 C.ar    1  UNL1        0.1041
     23 N          58.8800   91.3776    2.3869 N.ar    1  UNL1       -0.2292
     24 C          59.9220   93.0355   -0.8442 C.3     1  UNL1        0.4200
     25 F          59.8562   92.0699   -1.8310 F       1  UNL1       -0.1658
     26 F          61.0441   93.8185   -1.0533 F       1  UNL1       -0.1658
     27 F          58.8047   93.8477   -0.9325 F       1  UNL1       -0.1658
     28 C          61.0719   85.0138   13.4664 C.3     1  UNL1        0.1535
     29 N          60.4037   83.0355   12.0056 N.am    1  UNL1       -0.2825
     30 C          61.0677   83.5296   13.1813 C.2     1  UNL1        0.2443
     31 O          61.6281   82.7319   13.9815 O.2     1  UNL1       -0.2730
     32 H          60.2312   83.7136   11.2291 H       1  UNL1        0.1549
     33 CA         60.3114   79.3857   11.0843 C.ar    1  UNL1        0.1577
     34 C          60.7635   80.7121   11.1874 C.ar    1  UNL1        0.0404
     35 C          59.9585   81.6795   11.8151 C.ar    1  UNL1        0.0536
     36 C          58.7203   81.2889   12.3410 C.ar    1  UNL1        0.0353
     37 C          58.2989   79.9655   12.2123 C.ar    1  UNL1        0.1003
     38 N          59.0944   79.0540   11.5954 N.ar    1  UNL1       -0.2372
     39 O          61.9083   78.6398    9.4882 O.2     1  UNL1       -0.2434
     40 C          61.1424   78.3438   10.4437 C.2     1  UNL1        0.3560
     41 OXT        61.0966   77.0217   10.8817 O.3     1  UNL1       -0.4761
     42 HXT        60.4997   76.7296   11.6459 H       1  UNL1        0.2955
     43 C          62.3277   85.4241   14.2551 C.3     1  UNL1        0.0569
     44 C          62.1838   86.7958   14.8536 C.ar    1  UNL1       -0.0017
     45 C          61.1752   87.2153   15.7164 C.ar    1  UNL1        0.0681
     46 N          61.4322   88.4617   16.1739 N.ar    1  UNL1       -0.3523
     47 C          62.5985   88.8294   15.6157 C.ar    1  UNL1        0.0563
     48 C          63.2942   90.0199   15.8219 C.ar    1  UNL1        0.0170
     49 C          64.5250   90.1856   15.1612 C.ar    1  UNL1        0.0015
     50 C          65.0267   89.1698   14.3185 C.ar    1  UNL1        0.0001
     51 C          64.3043   87.9775   14.1312 C.ar    1  UNL1        0.0012
     52 C          63.0882   87.8401   14.8017 C.ar    1  UNL1        0.0131
     53 H          60.8536   89.0118   16.8468 H       1  UNL1        0.1660
@<TRIPOS>BOND
     1    39    40    2
     2    40    41    1
     3    40    33    1
     4    33    34   ar
     5    34    35   ar
     6    35    29    1
     7    29    30   am
     8    30    31    2
     9    30    28    1
    10    28    43    1
    11    43    44    1
    12    44    45   ar
    13    45    46   ar
    14    46    47   ar
    15    47    48   ar
    16    48    49   ar
    17    49    50   ar
    18    50    51   ar
    19    51    52   ar
    20    28     1    1
    21     1     2   am
    22     2     3    2
    23     2     5    1
    24     5     6   ar
    25     6     7   ar
    26     7     8   ar
    27     8    12    1
    28    12    13    1
    29    13    14    1
    30    14    15    1
    31    15    18    1
    32    18    19   ar
    33    19    20   ar
    34    20    21   ar
    35    21    24    1
    36    24    25    1
    37    24    26    1
    38    24    27    1
    39    21    22   ar
    40    22    23   ar
    41    15    16    1
    42    16    17    1
    43     8     9   ar
    44     9    10   ar
    45    10    11    1
    46    35    36   ar
    47    36    37   ar
    48    37    38   ar
    49    38    33   ar
    50    52    44   ar
    51    10     5   ar
    52    52    47   ar
    53    17    12    1
    54    23    18   ar
    55    41    42    1
    56    29    32    1
    57    46    53    1
    58     1     4    1
@<TRIPOS>MOLECULE
*****
 53 58 0 0 0
SMALL
GASTEIGER

@<TRIPOS>ATOM
      1 N          60.5620   84.6057   11.5745 N.am    1  UNL1       -0.2945
      2 C          59.6846   85.7157   11.3243 C.2     1  UNL1        0.2483
      3 O          58.8909   86.1042   12.2249 O.2     1  UNL1       -0.2701
      4 H          61.4110   84.5058   10.9731 H       1  UNL1        0.1501
      5 C          59.7237   86.4382   10.0320 C.ar    1  UNL1        0.0808
      6 C          58.9577   85.9691    8.9511 C.ar    1  UNL1        0.0080
      7 C          58.9753   86.6370    7.7241 C.ar    1  UNL1        0.0148
      8 C          59.7692   87.7808    7.5495 C.ar    1  UNL1        0.0502
      9 C          60.5466   88.2435    8.6214 C.ar    1  UNL1        0.0443
     10 C          60.5305   87.5792    9.8521 C.ar    1  UNL1        0.1457
     11 F          61.3372   88.0305   10.8457 F       1  UNL1       -0.2040
     12 N          59.7909   88.4746    6.2878 N.pl3   1  UNL1       -0.3040
     13 C          60.8906   88.2492    5.3437 C.3     1  UNL1        0.1123
     14 C          61.2766   89.5616    4.6601 C.3     1  UNL1        0.1136
     15 N          60.0762   90.2513    4.1659 N.pl3   1  UNL1       -0.2897
     16 C          58.9655   90.4588    5.1047 C.3     1  UNL1        0.1136
     17 C          58.5864   89.1421    5.7829 C.3     1  UNL1        0.1123
     18 C          60.0860   90.9601    2.9101 C.ar    1  UNL1        0.1318
     19 C          61.2887   91.3678    2.3104 C.ar    1  UNL1        0.0343
     20 C          61.2555   92.0541    1.0956 C.ar    1  UNL1        0.0083
     21 C          60.0280   92.3567    0.4877 C.ar    1  UNL1        0.0906
     22 C          58.8497   91.9167    1.1104 C.ar    1  UNL1        0.1041
     23 N          58.9070   91.2474    2.2919 N.ar    1  UNL1       -0.2292
     24 C          59.9803   93.0534   -0.8484 C.3     1  UNL1        0.4200
     25 F          61.1029   93.8477   -0.9876 F       1  UNL1       -0.1658
     26 F          58.8508   93.8477   -0.9445 F       1  UNL1       -0.1658
     27 F          59.9498   92.1305   -1.8795 F       1  UNL1       -0.1658
     28 C          60.4733   83.7918   12.7917 C.3     1  UNL1        0.1535
     29 N          61.2738   85.9739   13.8366 N.am    1  UNL1       -0.2825
     30 C          60.8209   84.6200   14.0072 C.2     1  UNL1        0.2443
     31 O          60.7306   84.1169   15.1602 O.2     1  UNL1       -0.2730
     32 H          61.0449   86.4481   12.9336 H       1  UNL1        0.1549
     33 CA         63.2080   88.7224   15.5346 C.ar    1  UNL1        0.1577
     34 C          62.5467   87.9983   14.5281 C.ar    1  UNL1        0.0404
     35 C          62.0176   86.7268   14.8128 C.ar    1  UNL1        0.0536
     36 C          62.1508   86.2155   16.1102 C.ar    1  UNL1        0.0353
     37 C          62.8217   86.9576   17.0822 C.ar    1  UNL1        0.1003
     38 N          63.3283   88.1802   16.7770 N.ar    1  UNL1       -0.2372
     39 O          64.3547   90.3085   14.1843 O.2     1  UNL1       -0.2434
     40 C          63.7607   90.0679   15.2690 C.2     1  UNL1        0.3560
     41 OXT        63.6357   91.0913   16.2065 O.3     1  UNL1       -0.4761
     42 HXT        63.1671   90.9526   17.0935 H       1  UNL1        0.2955
     43 C          59.0596   83.1965   12.9113 C.3     1  UNL1        0.0569
     44 C          58.9340   81.9067   12.1488 C.ar    1  UNL1       -0.0017
     45 C          59.0108   80.6239   12.6837 C.ar    1  UNL1        0.0681
     46 N          58.7111   79.7003   11.7425 N.ar    1  UNL1       -0.3523
     47 C          58.4361   80.3883   10.6208 C.ar    1  UNL1        0.0563
     48 C          58.0316   79.8703    9.3913 C.ar    1  UNL1        0.0170
     49 C          57.7580   80.7787    8.3526 C.ar    1  UNL1        0.0015
     50 C          57.8940   82.1682    8.5635 C.ar    1  UNL1        0.0001
     51 C          58.3015   82.6627    9.8157 C.ar    1  UNL1        0.0012
     52 C          58.5630   81.7382   10.8278 C.ar    1  UNL1        0.0131
     53 H          58.6738   78.6650   11.8728 H       1  UNL1        0.1660
@<TRIPOS>BOND
     1    39    40    2
     2    40    41    1
     3    40    33    1
     4    33    34   ar
     5    34    35   ar
     6    35    29    1
     7    29    30   am
     8    30    31    2
     9    30    28    1
    10    28    43    1
    11    43    44    1
    12    44    45   ar
    13    45    46   ar
    14    46    47   ar
    15    47    48   ar
    16    48    49   ar
    17    49    50   ar
    18    50    51   ar
    19    51    52   ar
    20    28     1    1
    21     1     2   am
    22     2     3    2
    23     2     5    1
    24     5     6   ar
    25     6     7   ar
    26     7     8   ar
    27     8    12    1
    28    12    13    1
    29    13    14    1
    30    14    15    1
    31    15    18    1
    32    18    19   ar
    33    19    20   ar
    34    20    21   ar
    35    21    24    1
    36    24    25    1
    37    24    26    1
    38    24    27    1
    39    21    22   ar
    40    22    23   ar
    41    15    16    1
    42    16    17    1
    43     8     9   ar
    44     9    10   ar
    45    10    11    1
    46    35    36   ar
    47    36    37   ar
    48    37    38   ar
    49    38    33   ar
    50    52    44   ar
    51    10     5   ar
    52    52    47   ar
    53    17    12    1
    54    23    18   ar
    55    41    42    1
    56    29    32    1
    57    46    53    1
    58     1     4    1
@<TRIPOS>MOLECULE
*****
 53 58 0 0 0
SMALL
GASTEIGER

@<TRIPOS>ATOM
      1 N          60.7228   86.3760   12.4427 N.am    1  UNL1       -0.2945
      2 C          59.5928   86.3140   11.5573 C.2     1  UNL1        0.2483
      3 O          58.5258   85.7593   11.9391 O.2     1  UNL1       -0.2701
      4 H          61.4560   87.0964   12.2530 H       1  UNL1        0.1501
      5 C          59.6491   86.9268   10.2102 C.ar    1  UNL1        0.0808
      6 C          60.2149   88.2034   10.0515 C.ar    1  UNL1        0.0080
      7 C          60.2830   88.7992    8.7897 C.ar    1  UNL1        0.0148
      8 C          59.7751   88.1355    7.6625 C.ar    1  UNL1        0.0502
      9 C          59.1961   86.8675    7.8191 C.ar    1  UNL1        0.0443
     10 C          59.1277   86.2664    9.0800 C.ar    1  UNL1        0.1457
     11 F          58.5128   85.0619    9.1941 F       1  UNL1       -0.2040
     12 N          59.8433   88.7436    6.3589 N.pl3   1  UNL1       -0.3040
     13 C          60.9208   88.3786    5.4331 C.3     1  UNL1        0.1123
     14 C          61.3992   89.6130    4.6672 C.3     1  UNL1        0.1136
     15 N          60.2506   90.3550    4.1279 N.pl3   1  UNL1       -0.2897
     16 C          59.1608   90.7026    5.0496 C.3     1  UNL1        0.1136
     17 C          58.6891   89.4632    5.8103 C.3     1  UNL1        0.1123
     18 C          60.3081   90.9793    2.8292 C.ar    1  UNL1        0.1318
     19 C          59.3832   91.9664    2.4512 C.ar    1  UNL1        0.0343
     20 C          59.4711   92.5445    1.1839 C.ar    1  UNL1        0.0083
     21 C          60.4620   92.1265    0.2832 C.ar    1  UNL1        0.0906
     22 C          61.3774   91.1502    0.7056 C.ar    1  UNL1        0.1041
     23 N          61.2737   90.6033    1.9456 N.ar    1  UNL1       -0.2292
     24 C          60.5985   92.7778   -1.0695 C.3     1  UNL1        0.4200
     25 F          59.3616   93.2390   -1.4794 F       1  UNL1       -0.1658
     26 F          61.0737   91.8716   -2.0017 F       1  UNL1       -0.1658
     27 F          61.4808   93.8428   -1.0120 F       1  UNL1       -0.1658
     28 C          60.7490   85.6817   13.7345 C.3     1  UNL1        0.1535
     29 N          60.4809   83.4794   12.4807 N.am    1  UNL1       -0.2825
     30 C          60.1382   84.3052   13.6067 C.2     1  UNL1        0.2443
     31 O          59.3200   83.8950   14.4745 O.2     1  UNL1       -0.2730
     32 H          61.3641   83.7049   11.9692 H       1  UNL1        0.1549
     33 CA         58.8089   80.1147   12.2323 C.ar    1  UNL1        0.1577
     34 C          59.6355   81.1487   12.7037 C.ar    1  UNL1        0.0404
     35 C          59.7020   82.3665   12.0034 C.ar    1  UNL1        0.0536
     36 C          58.9225   82.5253   10.8504 C.ar    1  UNL1        0.0353
     37 C          58.1205   81.4742   10.4057 C.ar    1  UNL1        0.1003
     38 N          58.0809   80.3069   11.0986 N.ar    1  UNL1       -0.2372
     39 O          58.6089   77.7469   12.3187 O.2     1  UNL1       -0.2434
     40 C          58.7067   78.8293   12.9560 C.2     1  UNL1        0.3560
     41 OXT        58.7175   78.7888   14.3489 O.3     1  UNL1       -0.4761
     42 HXT        58.7950   79.6284   14.9098 H       1  UNL1        0.2955
     43 C          62.1976   85.6010   14.2466 C.3     1  UNL1        0.0569
     44 C          62.7623   86.9649   14.5320 C.ar    1  UNL1       -0.0017
     45 C          63.1014   87.4694   15.7843 C.ar    1  UNL1        0.0681
     46 N          63.7136   88.6689   15.6611 N.ar    1  UNL1       -0.3523
     47 C          63.7731   88.9221   14.3422 C.ar    1  UNL1        0.0563
     48 C          64.3571   90.0249   13.7205 C.ar    1  UNL1        0.0170
     49 C          64.3403   90.0729   12.3146 C.ar    1  UNL1        0.0015
     50 C          63.7465   89.0301   11.5705 C.ar    1  UNL1        0.0001
     51 C          63.1670   87.9280   12.2247 C.ar    1  UNL1        0.0012
     52 C          63.2012   87.9062   13.6197 C.ar    1  UNL1        0.0131
     53 H          64.0883   89.2614   16.4349 H       1  UNL1        0.1660
@<TRIPOS>BOND
     1    39    40    2
     2    40    41    1
     3    40    33    1
     4    33    34   ar
     5    34    35   ar
     6    35    29    1
     7    29    30   am
     8    30    31    2
     9    30    28    1
    10    28    43    1
    11    43    44    1
    12    44    45   ar
    13    45    46   ar
    14    46    47   ar
    15    47    48   ar
    16    48    49   ar
    17    49    50   ar
    18    50    51   ar
    19    51    52   ar
    20    28     1    1
    21     1     2   am
    22     2     3    2
    23     2     5    1
    24     5     6   ar
    25     6     7   ar
    26     7     8   ar
    27     8    12    1
    28    12    13    1
    29    13    14    1
    30    14    15    1
    31    15    18    1
    32    18    19   ar
    33    19    20   ar
    34    20    21   ar
    35    21    24    1
    36    24    25    1
    37    24    26    1
    38    24    27    1
    39    21    22   ar
    40    22    23   ar
    41    15    16    1
    42    16    17    1
    43     8     9   ar
    44     9    10   ar
    45    10    11    1
    46    35    36   ar
    47    36    37   ar
    48    37    38   ar
    49    38    33   ar
    50    52    44   ar
    51    10     5   ar
    52    52    47   ar
    53    17    12    1
    54    23    18   ar
    55    41    42    1
    56    29    32    1
    57    46    53    1
    58     1     4    1
@<TRIPOS>MOLECULE
*****
 53 58 0 0 0
SMALL
GASTEIGER

@<TRIPOS>ATOM
      1 N          59.5964   86.7367   12.8069 N.am    1  UNL1       -0.2945
      2 C          59.5625   85.9657   11.5949 C.2     1  UNL1        0.2483
      3 O          59.4496   84.7103   11.6523 O.2     1  UNL1       -0.2701
      4 H          59.3641   87.7541   12.7480 H       1  UNL1        0.1501
      5 C          59.6211   86.6281   10.2716 C.ar    1  UNL1        0.0808
      6 C          60.1760   87.9147   10.1634 C.ar    1  UNL1        0.0080
      7 C          60.2460   88.5572    8.9247 C.ar    1  UNL1        0.0148
      8 C          59.7508   87.9308    7.7708 C.ar    1  UNL1        0.0502
      9 C          59.1827   86.6528    7.8771 C.ar    1  UNL1        0.0443
     10 C          59.1124   86.0051    9.1147 C.ar    1  UNL1        0.1457
     11 F          58.5080   84.7917    9.1807 F       1  UNL1       -0.2040
     12 N          59.8211   88.5870    6.4908 N.pl3   1  UNL1       -0.3040
     13 C          60.9966   88.4018    5.6334 C.3     1  UNL1        0.1123
     14 C          61.3518   89.7147    4.9342 C.3     1  UNL1        0.1136
     15 N          60.1508   90.3142    4.3349 N.pl3   1  UNL1       -0.2897
     16 C          58.9658   90.4807    5.1870 C.3     1  UNL1        0.1136
     17 C          58.6182   89.1638    5.8815 C.3     1  UNL1        0.1123
     18 C          60.2080   90.9849    3.0596 C.ar    1  UNL1        0.1318
     19 C          61.4188   91.1275    2.3625 C.ar    1  UNL1        0.0343
     20 C          61.4325   91.7857    1.1318 C.ar    1  UNL1        0.0083
     21 C          60.2491   92.3229    0.6040 C.ar    1  UNL1        0.0906
     22 C          59.0573   92.1440    1.3233 C.ar    1  UNL1        0.1041
     23 N          59.0680   91.4971    2.5186 N.ar    1  UNL1       -0.2292
     24 C          60.2414   92.9921   -0.7469 C.3     1  UNL1        0.4200
     25 F          60.3123   92.0265   -1.7333 F       1  UNL1       -0.1658
     26 F          61.3225   93.8471   -0.8740 F       1  UNL1       -0.1658
     27 F          59.0832   93.7298   -0.9199 F       1  UNL1       -0.1658
     28 C          59.6598   86.1143   14.1336 C.3     1  UNL1        0.1535
     29 N          61.9351   85.2253   13.4078 N.am    1  UNL1       -0.2825
     30 C          60.7259   85.0435   14.1642 C.2     1  UNL1        0.2443
     31 O          60.5441   83.9912   14.8352 O.2     1  UNL1       -0.2730
     32 H          62.1871   86.2009   13.1298 H       1  UNL1        0.1549
     33 CA         63.6627   82.5727   11.3689 C.ar    1  UNL1        0.1577
     34 C          62.7291   83.5541   11.7424 C.ar    1  UNL1        0.0404
     35 C          62.8252   84.1681   13.0040 C.ar    1  UNL1        0.0536
     36 C          63.8696   83.7932   13.8591 C.ar    1  UNL1        0.0353
     37 C          64.7730   82.8084   13.4595 C.ar    1  UNL1        0.1003
     38 N          64.6519   82.2278   12.2377 N.ar    1  UNL1       -0.2372
     39 O          64.6419   81.4742    9.5011 O.2     1  UNL1       -0.2434
     40 C          63.5961   81.9211   10.0432 C.2     1  UNL1        0.3560
     41 OXT        62.3827   81.7879    9.3709 O.3     1  UNL1       -0.4761
     42 HXT        61.5125   82.1284    9.7612 H       1  UNL1        0.2955
     43 C          59.9266   87.1940   15.1968 C.3     1  UNL1        0.0569
     44 C          61.3990   87.4098   15.4116 C.ar    1  UNL1       -0.0017
     45 C          62.1716   86.8571   16.4290 C.ar    1  UNL1        0.0681
     46 N          63.4795   87.1437   16.2386 N.ar    1  UNL1       -0.3523
     47 C          63.5410   87.8638   15.1052 C.ar    1  UNL1        0.0563
     48 C          64.6859   88.3532   14.4778 C.ar    1  UNL1        0.0170
     49 C          64.5247   89.0557   13.2698 C.ar    1  UNL1        0.0015
     50 C          63.2378   89.2518   12.7227 C.ar    1  UNL1        0.0001
     51 C          62.1004   88.7444   13.3765 C.ar    1  UNL1        0.0012
     52 C          62.2913   88.0492   14.5713 C.ar    1  UNL1        0.0131
     53 H          64.2791   86.8404   16.8377 H       1  UNL1        0.1660
@<TRIPOS>BOND
     1    39    40    2
     2    40    41    1
     3    40    33    1
     4    33    34   ar
     5    34    35   ar
     6    35    29    1
     7    29    30   am
     8    30    31    2
     9    30    28    1
    10    28    43    1
    11    43    44    1
    12    44    45   ar
    13    45    46   ar
    14    46    47   ar
    15    47    48   ar
    16    48    49   ar
    17    49    50   ar
    18    50    51   ar
    19    51    52   ar
    20    28     1    1
    21     1     2   am
    22     2     3    2
    23     2     5    1
    24     5     6   ar
    25     6     7   ar
    26     7     8   ar
    27     8    12    1
    28    12    13    1
    29    13    14    1
    30    14    15    1
    31    15    18    1
    32    18    19   ar
    33    19    20   ar
    34    20    21   ar
    35    21    24    1
    36    24    25    1
    37    24    26    1
    38    24    27    1
    39    21    22   ar
    40    22    23   ar
    41    15    16    1
    42    16    17    1
    43     8     9   ar
    44     9    10   ar
    45    10    11    1
    46    35    36   ar
    47    36    37   ar
    48    37    38   ar
    49    38    33   ar
    50    52    44   ar
    51    10     5   ar
    52    52    47   ar
    53    17    12    1
    54    23    18   ar
    55    41    42    1
    56    29    32    1
    57    46    53    1
    58     1     4    1
