@<TRIPOS>MOLECULE
*****
 42 46 0 0 0
SMALL
GASTEIGER

@<TRIPOS>ATOM
      1 C          -7.8717  -11.8404   30.0584 C.ar    1  UNL1        0.0337
      2 C          -8.9836  -12.7238   29.8850 C.ar    1  UNL1        0.0872
      3 C          -9.9732  -12.7641   30.8921 C.ar    1  UNL1        0.1398
      4 C          -9.9188  -11.9756   32.0140 C.ar    1  UNL1        0.0327
      5 C          -8.8545  -11.0864   32.1610 C.ar    1  UNL1        0.0787
      6 C          -7.8731  -11.0193   31.2061 C.ar    1  UNL1        0.0983
      7 N          -6.9635  -10.0870   31.5440 N.ar    1  UNL1       -0.2137
      8 C          -7.4299   -9.6083   32.7264 C.ar    1  UNL1        0.2018
      9 N          -8.5828  -10.2018   33.1389 N.ar    1  UNL1       -0.2977
     10 C          -9.3609   -9.9292   34.3470 C.3     1  UNL1        0.1332
     11 C         -11.1061  -12.2302   32.8751 C.3     1  UNL1        0.0709
     12 C         -11.9044  -13.2937   32.0507 C.3     1  UNL1        0.1375
     13 C         -13.2717  -12.7492   31.6156 C.3     1  UNL1        0.0439
     14 C         -12.0745  -14.6006   32.8369 C.3     1  UNL1        0.0439
     15 O         -11.1104  -13.5451   30.8892 O.3     1  UNL1       -0.4824
     16 C          -9.1495  -13.5748   28.6922 C.2     1  UNL1        0.2523
     17 O         -10.1577  -13.4053   27.9547 O.2     1  UNL1       -0.2697
     18 N          -8.1663  -14.5739   28.3724 N.am    1  UNL1       -0.2803
     19 H          -7.4064  -14.7569   29.0659 H       1  UNL1        0.1552
     20 C          -8.2237  -15.4152   27.2088 C.ar    1  UNL1        0.0505
     21 C          -8.9873  -16.5946   27.1955 C.ar    1  UNL1        0.0147
     22 C          -9.0577  -17.3736   26.0388 C.ar    1  UNL1        0.0012
     23 C          -8.3735  -16.9838   24.8853 C.ar    1  UNL1        0.0039
     24 C          -7.6013  -15.8097   24.8800 C.ar    1  UNL1        0.0726
     25 C          -7.5586  -15.0154   26.0398 C.ar    1  UNL1        0.0185
     26 C          -6.9113  -15.3545   23.6185 C.3     1  UNL1        0.4186
     27 F          -6.6298  -16.4328   22.7975 F       1  UNL1       -0.1659
     28 F          -5.7198  -14.7165   23.9174 F       1  UNL1       -0.1659
     29 F          -7.7354  -14.4756   22.9410 F       1  UNL1       -0.1659
     30 N          -6.7738   -8.5500   33.4407 N.pl3   1  UNL1       -0.2814
     31 H          -7.1521   -8.2619   34.3697 H       1  UNL1        0.1551
     32 C          -5.8257   -7.6797   32.8049 C.ar    1  UNL1        0.0889
     33 C          -4.5590   -7.5019   33.3862 C.ar    1  UNL1        0.1543
     34 F          -4.2421   -8.1353   34.5435 F       1  UNL1       -0.2028
     35 C          -3.6221   -6.6526   32.7905 C.ar    1  UNL1        0.0310
     36 C          -3.9350   -5.9853   31.6050 C.ar    1  UNL1        0.0033
     37 C          -5.1818   -6.1735   31.0046 C.ar    1  UNL1        0.0128
     38 C          -6.1284   -7.0220   31.5917 C.ar    1  UNL1        0.0733
     39 CL         -7.6457   -7.2953   30.7420 Cl      1  UNL1       -0.0809
     40 C          -6.7139  -11.7722   29.0812 C.3     1  UNL1        0.1705
     41 C          -5.1238  -10.1997   28.4676 C.3     1  UNL1        0.1746
     42 O          -6.5044  -10.4496   28.6218 O.3     1  UNL1       -0.3463
@<TRIPOS>BOND
     1    41    42    1
     2    42    40    1
     3    40     1    1
     4     1     2   ar
     5     2    16    1
     6    16    17    2
     7    16    18   am
     8    18    20    1
     9    20    21   ar
    10    21    22   ar
    11    22    23   ar
    12    23    24   ar
    13    24    26    1
    14    26    27    1
    15    26    28    1
    16    26    29    1
    17    24    25   ar
    18     2     3   ar
    19     3     4   ar
    20     4     5   ar
    21     5     6   ar
    22     6     7   ar
    23     7     8   ar
    24     8    30    1
    25    30    32    1
    26    32    33   ar
    27    33    34    1
    28    33    35   ar
    29    35    36   ar
    30    36    37   ar
    31    37    38   ar
    32    38    39    1
    33     8     9   ar
    34     9    10    1
    35     4    11    1
    36    11    12    1
    37    12    13    1
    38    12    14    1
    39    12    15    1
    40     6     1   ar
    41    38    32   ar
    42    25    20   ar
    43    15     3    1
    44     9     5   ar
    45    18    19    1
    46    30    31    1
@<TRIPOS>MOLECULE
*****
 42 46 0 0 0
SMALL
GASTEIGER

@<TRIPOS>ATOM
      1 C          -6.0198  -16.4557   23.8570 C.ar    1  UNL1        0.0337
      2 C          -7.3778  -16.4003   24.3036 C.ar    1  UNL1        0.0872
      3 C          -8.2820  -17.3755   23.8276 C.ar    1  UNL1        0.1398
      4 C          -7.9029  -18.3815   22.9745 C.ar    1  UNL1        0.0327
      5 C          -6.5695  -18.4565   22.5726 C.ar    1  UNL1        0.0787
      6 C          -5.6620  -17.5274   23.0114 C.ar    1  UNL1        0.0983
      7 N          -4.4420  -17.8038   22.5156 N.ar    1  UNL1       -0.2137
      8 C          -4.6529  -18.9179   21.7676 C.ar    1  UNL1        0.2018
      9 N          -5.9456  -19.3426   21.7736 N.ar    1  UNL1       -0.2977
     10 C          -6.5220  -20.5022   21.0937 C.3     1  UNL1        0.1332
     11 C          -9.0671  -19.2569   22.6679 C.3     1  UNL1        0.0709
     12 C         -10.2117  -18.6139   23.5190 C.3     1  UNL1        0.1375
     13 C         -10.7184  -19.5845   24.5944 C.3     1  UNL1        0.0439
     14 C         -11.3729  -18.1433   22.6330 C.3     1  UNL1        0.0439
     15 O          -9.6180  -17.4801   24.1553 O.3     1  UNL1       -0.4824
     16 C          -7.8654  -15.3838   25.2540 C.2     1  UNL1        0.2523
     17 O          -8.8007  -14.6153   24.9020 O.2     1  UNL1       -0.2697
     18 N          -7.2876  -15.2825   26.5666 N.am    1  UNL1       -0.2803
     19 H          -6.4439  -15.8613   26.7794 H       1  UNL1        0.1552
     20 C          -7.7295  -14.3542   27.5705 C.ar    1  UNL1        0.0505
     21 C          -9.0159  -14.4383   28.1295 C.ar    1  UNL1        0.0147
     22 C          -9.4065  -13.5482   29.1320 C.ar    1  UNL1        0.0012
     23 C          -8.5199  -12.5709   29.5896 C.ar    1  UNL1        0.0039
     24 C          -7.2305  -12.4681   29.0403 C.ar    1  UNL1        0.0726
     25 C          -6.8346  -13.3865   28.0514 C.ar    1  UNL1        0.0185
     26 C          -6.2508  -11.4537   29.5747 C.3     1  UNL1        0.4186
     27 F          -5.3467  -11.0819   28.5947 F       1  UNL1       -0.1659
     28 F          -5.5405  -11.9768   30.6415 F       1  UNL1       -0.1659
     29 F          -6.9412  -10.3339   29.9989 F       1  UNL1       -0.1659
     30 N          -3.5920  -19.5906   21.0731 N.pl3   1  UNL1       -0.2814
     31 H          -3.6006  -20.6334   21.0329 H       1  UNL1        0.1551
     32 C          -2.3792  -18.9165   20.7048 C.ar    1  UNL1        0.0889
     33 C          -1.1440  -19.4702   21.0813 C.ar    1  UNL1        0.1543
     34 F          -1.1001  -20.6217   21.7976 F       1  UNL1       -0.2028
     35 C           0.0501  -18.8277   20.7420 C.ar    1  UNL1        0.0310
     36 C           0.0230  -17.6370   20.0140 C.ar    1  UNL1        0.0033
     37 C          -1.1978  -17.0902   19.6127 C.ar    1  UNL1        0.0128
     38 C          -2.4006  -17.7248   19.9462 C.ar    1  UNL1        0.0733
     39 CL         -3.9029  -17.0424   19.3331 Cl      1  UNL1       -0.0809
     40 C          -4.9837  -15.4168   24.2408 C.3     1  UNL1        0.1705
     41 C          -5.0061  -14.7137   22.0311 C.3     1  UNL1        0.1746
     42 O          -5.0348  -14.2949   23.3787 O.3     1  UNL1       -0.3463
@<TRIPOS>BOND
     1    41    42    1
     2    42    40    1
     3    40     1    1
     4     1     2   ar
     5     2    16    1
     6    16    17    2
     7    16    18   am
     8    18    20    1
     9    20    21   ar
    10    21    22   ar
    11    22    23   ar
    12    23    24   ar
    13    24    26    1
    14    26    27    1
    15    26    28    1
    16    26    29    1
    17    24    25   ar
    18     2     3   ar
    19     3     4   ar
    20     4     5   ar
    21     5     6   ar
    22     6     7   ar
    23     7     8   ar
    24     8    30    1
    25    30    32    1
    26    32    33   ar
    27    33    34    1
    28    33    35   ar
    29    35    36   ar
    30    36    37   ar
    31    37    38   ar
    32    38    39    1
    33     8     9   ar
    34     9    10    1
    35     4    11    1
    36    11    12    1
    37    12    13    1
    38    12    14    1
    39    12    15    1
    40     6     1   ar
    41    38    32   ar
    42    25    20   ar
    43    15     3    1
    44     9     5   ar
    45    18    19    1
    46    30    31    1
@<TRIPOS>MOLECULE
*****
 42 46 0 0 0
SMALL
GASTEIGER

@<TRIPOS>ATOM
      1 C          -8.4948  -14.2152   28.5396 C.ar    1  UNL1        0.0337
      2 C          -7.2115  -13.7927   28.0692 C.ar    1  UNL1        0.0872
      3 C          -6.7160  -12.5422   28.5006 C.ar    1  UNL1        0.1398
      4 C          -7.4068  -11.7321   29.3666 C.ar    1  UNL1        0.0327
      5 C          -8.6395  -12.1647   29.8548 C.ar    1  UNL1        0.0787
      6 C          -9.1550  -13.3715   29.4582 C.ar    1  UNL1        0.0983
      7 N         -10.3362  -13.5904   30.0644 N.ar    1  UNL1       -0.2137
      8 C         -10.5083  -12.4789   30.8260 C.ar    1  UNL1        0.2018
      9 N          -9.4920  -11.5805   30.7178 N.ar    1  UNL1       -0.2977
     10 C          -9.3441  -10.2931   31.3959 C.3     1  UNL1        0.1332
     11 C          -6.6235  -10.4974   29.6456 C.3     1  UNL1        0.0709
     12 C          -5.3177  -10.7260   28.8146 C.3     1  UNL1        0.1375
     13 C          -4.0861  -10.8143   29.7259 C.3     1  UNL1        0.0439
     14 C          -5.1250   -9.6284   27.7595 C.3     1  UNL1        0.0439
     15 O          -5.5034  -11.9814   28.1569 O.3     1  UNL1       -0.4824
     16 C          -6.3782  -14.6157   27.1733 C.2     1  UNL1        0.2523
     17 O          -5.6215  -15.4911   27.6736 O.2     1  UNL1       -0.2697
     18 N          -6.4406  -14.4271   25.7494 N.am    1  UNL1       -0.2803
     19 H          -6.9946  -13.6202   25.3831 H       1  UNL1        0.1552
     20 C          -5.6997  -15.2122   24.8009 C.ar    1  UNL1        0.0505
     21 C          -4.7541  -16.1638   25.2185 C.ar    1  UNL1        0.0147
     22 C          -4.0763  -16.9415   24.2775 C.ar    1  UNL1        0.0012
     23 C          -4.3368  -16.7826   22.9146 C.ar    1  UNL1        0.0039
     24 C          -5.2761  -15.8334   22.4768 C.ar    1  UNL1        0.0726
     25 C          -5.9755  -15.0742   23.4320 C.ar    1  UNL1        0.0185
     26 C          -5.6037  -15.7024   21.0105 C.3     1  UNL1        0.4186
     27 F          -4.4545  -15.4898   20.2687 F       1  UNL1       -0.1659
     28 F          -6.4600  -14.6363   20.7954 F       1  UNL1       -0.1659
     29 F          -6.2125  -16.8643   20.5747 F       1  UNL1       -0.1659
     30 N         -11.6444  -12.3033   31.6855 N.pl3   1  UNL1       -0.2814
     31 H         -12.1147  -11.3719   31.7116 H       1  UNL1        0.1551
     32 C         -11.9647  -13.2441   32.7213 C.ar    1  UNL1        0.0889
     33 C         -13.0760  -14.0888   32.5625 C.ar    1  UNL1        0.1543
     34 F         -13.8456  -14.0050   31.4482 F       1  UNL1       -0.2028
     35 C         -13.4131  -15.0069   33.5612 C.ar    1  UNL1        0.0310
     36 C         -12.6382  -15.0995   34.7186 C.ar    1  UNL1        0.0033
     37 C         -11.5166  -14.2825   34.8766 C.ar    1  UNL1        0.0128
     38 C         -11.1687  -13.3593   33.8829 C.ar    1  UNL1        0.0733
     39 CL         -9.6925  -12.4235   34.0923 Cl      1  UNL1       -0.0809
     40 C          -9.1578  -15.4999   28.0813 C.3     1  UNL1        0.1705
     41 C          -8.9687  -17.1419   26.4547 C.3     1  UNL1        0.1746
     42 O          -8.8947  -15.7564   26.7141 O.3     1  UNL1       -0.3463
@<TRIPOS>BOND
     1    41    42    1
     2    42    40    1
     3    40     1    1
     4     1     2   ar
     5     2    16    1
     6    16    17    2
     7    16    18   am
     8    18    20    1
     9    20    21   ar
    10    21    22   ar
    11    22    23   ar
    12    23    24   ar
    13    24    26    1
    14    26    27    1
    15    26    28    1
    16    26    29    1
    17    24    25   ar
    18     2     3   ar
    19     3     4   ar
    20     4     5   ar
    21     5     6   ar
    22     6     7   ar
    23     7     8   ar
    24     8    30    1
    25    30    32    1
    26    32    33   ar
    27    33    34    1
    28    33    35   ar
    29    35    36   ar
    30    36    37   ar
    31    37    38   ar
    32    38    39    1
    33     8     9   ar
    34     9    10    1
    35     4    11    1
    36    11    12    1
    37    12    13    1
    38    12    14    1
    39    12    15    1
    40     6     1   ar
    41    38    32   ar
    42    25    20   ar
    43    15     3    1
    44     9     5   ar
    45    18    19    1
    46    30    31    1
@<TRIPOS>MOLECULE
*****
 42 46 0 0 0
SMALL
GASTEIGER

@<TRIPOS>ATOM
      1 C          -7.6756  -11.8470   29.9520 C.ar    1  UNL1        0.0337
      2 C          -8.7758  -12.7306   29.7168 C.ar    1  UNL1        0.0872
      3 C          -9.7956  -12.8082   30.6911 C.ar    1  UNL1        0.1398
      4 C          -9.7807  -12.0552   31.8384 C.ar    1  UNL1        0.0327
      5 C          -8.7272  -11.1653   32.0460 C.ar    1  UNL1        0.0787
      6 C          -7.7175  -11.0626   31.1244 C.ar    1  UNL1        0.0983
      7 N          -6.8247  -10.1364   31.5193 N.ar    1  UNL1       -0.2137
      8 C          -7.3302   -9.6979   32.7012 C.ar    1  UNL1        0.2018
      9 N          -8.4913  -10.3105   33.0591 N.ar    1  UNL1       -0.2977
     10 C          -9.3077  -10.0806   34.2507 C.3     1  UNL1        0.1332
     11 C         -10.9921  -12.3435   32.6541 C.3     1  UNL1        0.0709
     12 C         -11.7579  -13.3848   31.7725 C.3     1  UNL1        0.1375
     13 C         -13.1147  -12.8344   31.3129 C.3     1  UNL1        0.0439
     14 C         -11.9434  -14.7168   32.5117 C.3     1  UNL1        0.0439
     15 O         -10.9270  -13.5950   30.6287 O.3     1  UNL1       -0.4824
     16 C          -8.8996  -13.5444   28.4933 C.2     1  UNL1        0.2523
     17 O         -10.0165  -13.6106   27.9125 O.2     1  UNL1       -0.2697
     18 N          -7.7569  -14.2406   27.9674 N.am    1  UNL1       -0.2803
     19 H          -6.8807  -14.2499   28.5368 H       1  UNL1        0.1552
     20 C          -7.7749  -15.0182   26.7591 C.ar    1  UNL1        0.0505
     21 C          -6.8419  -14.7965   25.7323 C.ar    1  UNL1        0.0147
     22 C          -6.8562  -15.5925   24.5852 C.ar    1  UNL1        0.0012
     23 C          -7.7951  -16.6180   24.4522 C.ar    1  UNL1        0.0039
     24 C          -8.7390  -16.8529   25.4664 C.ar    1  UNL1        0.0726
     25 C          -8.6997  -16.0656   26.6312 C.ar    1  UNL1        0.0185
     26 C          -9.7140  -17.9978   25.3527 C.3     1  UNL1        0.4186
     27 F          -9.1574  -19.0467   24.6413 F       1  UNL1       -0.1659
     28 F         -10.8653  -17.5949   24.6983 F       1  UNL1       -0.1659
     29 F         -10.0469  -18.4394   26.6195 F       1  UNL1       -0.1659
     30 N          -6.7032   -8.6591   33.4682 N.pl3   1  UNL1       -0.2814
     31 H          -7.0966   -8.4198   34.4048 H       1  UNL1        0.1551
     32 C          -5.7668   -7.7428   32.8815 C.ar    1  UNL1        0.0889
     33 C          -4.5152   -7.5549   33.4917 C.ar    1  UNL1        0.1543
     34 F          -4.2022   -8.2222   34.6309 F       1  UNL1       -0.2028
     35 C          -3.5902   -6.6614   32.9441 C.ar    1  UNL1        0.0310
     36 C          -3.8996   -5.9592   31.7781 C.ar    1  UNL1        0.0033
     37 C          -5.1307   -6.1563   31.1488 C.ar    1  UNL1        0.0128
     38 C          -6.0653   -7.0489   31.6876 C.ar    1  UNL1        0.0733
     39 CL         -7.5603   -7.3286   30.8013 Cl      1  UNL1       -0.0809
     40 C          -6.4889  -11.7416   29.0136 C.3     1  UNL1        0.1705
     41 C          -4.9516  -10.1328   28.3606 C.3     1  UNL1        0.1746
     42 O          -6.3224  -10.4178   28.5400 O.3     1  UNL1       -0.3463
@<TRIPOS>BOND
     1    41    42    1
     2    42    40    1
     3    40     1    1
     4     1     2   ar
     5     2    16    1
     6    16    17    2
     7    16    18   am
     8    18    20    1
     9    20    21   ar
    10    21    22   ar
    11    22    23   ar
    12    23    24   ar
    13    24    26    1
    14    26    27    1
    15    26    28    1
    16    26    29    1
    17    24    25   ar
    18     2     3   ar
    19     3     4   ar
    20     4     5   ar
    21     5     6   ar
    22     6     7   ar
    23     7     8   ar
    24     8    30    1
    25    30    32    1
    26    32    33   ar
    27    33    34    1
    28    33    35   ar
    29    35    36   ar
    30    36    37   ar
    31    37    38   ar
    32    38    39    1
    33     8     9   ar
    34     9    10    1
    35     4    11    1
    36    11    12    1
    37    12    13    1
    38    12    14    1
    39    12    15    1
    40     6     1   ar
    41    38    32   ar
    42    25    20   ar
    43    15     3    1
    44     9     5   ar
    45    18    19    1
    46    30    31    1
@<TRIPOS>MOLECULE
*****
 42 46 0 0 0
SMALL
GASTEIGER

@<TRIPOS>ATOM
      1 C          -9.4500  -12.8573   29.4131 C.ar    1  UNL1        0.0337
      2 C          -8.7946  -11.6435   29.7924 C.ar    1  UNL1        0.0872
      3 C          -7.4405  -11.4693   29.4299 C.ar    1  UNL1        0.1398
      4 C          -6.7408  -12.4069   28.7125 C.ar    1  UNL1        0.0327
      5 C          -7.3939  -13.5715   28.3096 C.ar    1  UNL1        0.0787
      6 C          -8.7074  -13.7781   28.6435 C.ar    1  UNL1        0.0983
      7 N          -9.1331  -14.9502   28.1381 N.ar    1  UNL1       -0.2137
      8 C          -8.0354  -15.4339   27.5010 C.ar    1  UNL1        0.2018
      9 N          -6.9491  -14.6193   27.5905 N.ar    1  UNL1       -0.2977
     10 C          -5.6170  -14.8188   27.0208 C.3     1  UNL1        0.1332
     11 C          -5.3506  -11.9324   28.4715 C.3     1  UNL1        0.0709
     12 C          -5.3493  -10.5211   29.1470 C.3     1  UNL1        0.1375
     13 C          -5.1087   -9.4105   28.1157 C.3     1  UNL1        0.0439
     14 C          -4.3103  -10.4395   30.2734 C.3     1  UNL1        0.0439
     15 O          -6.6570  -10.3673   29.7031 O.3     1  UNL1       -0.4824
     16 C          -9.4784  -10.5614   30.5244 C.2     1  UNL1        0.2523
     17 O          -9.1045  -10.2833   31.6958 O.2     1  UNL1       -0.2697
     18 N         -10.5476   -9.8286   29.9023 N.am    1  UNL1       -0.2803
     19 H         -10.8995  -10.1617   28.9764 H       1  UNL1        0.1552
     20 C         -11.2384   -8.7319   30.5227 C.ar    1  UNL1        0.0505
     21 C         -12.2679   -8.9485   31.4541 C.ar    1  UNL1        0.0147
     22 C         -12.8962   -7.8654   32.0721 C.ar    1  UNL1        0.0012
     23 C         -12.5029   -6.5592   31.7725 C.ar    1  UNL1        0.0039
     24 C         -11.4780   -6.3219   30.8408 C.ar    1  UNL1        0.0726
     25 C         -10.8305   -7.4186   30.2442 C.ar    1  UNL1        0.0185
     26 C         -11.0100   -4.9158   30.5610 C.3     1  UNL1        0.4186
     27 F         -11.4296   -4.4995   29.3094 F       1  UNL1       -0.1659
     28 F          -9.6280   -4.8452   30.5989 F       1  UNL1       -0.1659
     29 F         -11.5310   -4.0642   31.5170 F       1  UNL1       -0.1659
     30 N          -8.0500  -16.6727   26.7759 N.pl3   1  UNL1       -0.2814
     31 H          -7.3056  -17.3775   26.9717 H       1  UNL1        0.1551
     32 C          -8.8475  -16.8517   25.5958 C.ar    1  UNL1        0.0889
     33 C          -9.7803  -17.9013   25.5497 C.ar    1  UNL1        0.1543
     34 F          -9.9144  -18.7445   26.6043 F       1  UNL1       -0.2028
     35 C         -10.5620  -18.1012   24.4083 C.ar    1  UNL1        0.0310
     36 C         -10.4299  -17.2492   23.3104 C.ar    1  UNL1        0.0033
     37 C          -9.5238  -16.1874   23.3541 C.ar    1  UNL1        0.0128
     38 C          -8.7356  -15.9768   24.4921 C.ar    1  UNL1        0.0733
     39 CL         -7.6806  -14.5681   24.5283 Cl      1  UNL1       -0.0809
     40 C         -10.8753  -13.1841   29.8155 C.3     1  UNL1        0.1705
     41 C         -12.1679  -12.8548   31.7124 C.3     1  UNL1        0.1746
     42 O         -10.9767  -13.4193   31.2078 O.3     1  UNL1       -0.3463
@<TRIPOS>BOND
     1    41    42    1
     2    42    40    1
     3    40     1    1
     4     1     2   ar
     5     2    16    1
     6    16    17    2
     7    16    18   am
     8    18    20    1
     9    20    21   ar
    10    21    22   ar
    11    22    23   ar
    12    23    24   ar
    13    24    26    1
    14    26    27    1
    15    26    28    1
    16    26    29    1
    17    24    25   ar
    18     2     3   ar
    19     3     4   ar
    20     4     5   ar
    21     5     6   ar
    22     6     7   ar
    23     7     8   ar
    24     8    30    1
    25    30    32    1
    26    32    33   ar
    27    33    34    1
    28    33    35   ar
    29    35    36   ar
    30    36    37   ar
    31    37    38   ar
    32    38    39    1
    33     8     9   ar
    34     9    10    1
    35     4    11    1
    36    11    12    1
    37    12    13    1
    38    12    14    1
    39    12    15    1
    40     6     1   ar
    41    38    32   ar
    42    25    20   ar
    43    15     3    1
    44     9     5   ar
    45    18    19    1
    46    30    31    1
@<TRIPOS>MOLECULE
*****
 42 46 0 0 0
SMALL
GASTEIGER

@<TRIPOS>ATOM
      1 C          -8.4966  -14.0002   28.5126 C.ar    1  UNL1        0.0337
      2 C          -7.2337  -13.6281   27.9530 C.ar    1  UNL1        0.0872
      3 C          -6.6311  -12.4285   28.3923 C.ar    1  UNL1        0.1398
      4 C          -7.1991  -11.6224   29.3469 C.ar    1  UNL1        0.0327
      5 C          -8.4107  -12.0082   29.9196 C.ar    1  UNL1        0.0787
      6 C          -9.0277  -13.1648   29.5184 C.ar    1  UNL1        0.0983
      7 N         -10.1658  -13.3457   30.2131 N.ar    1  UNL1       -0.2137
      8 C         -10.2085  -12.2629   31.0321 C.ar    1  UNL1        0.2018
      9 N          -9.1532  -11.4182   30.8755 N.ar    1  UNL1       -0.2977
     10 C          -8.8739  -10.1739   31.5916 C.3     1  UNL1        0.1332
     11 C          -6.3237  -10.4474   29.6095 C.3     1  UNL1        0.0709
     12 C          -5.1067  -10.7092   28.6618 C.3     1  UNL1        0.1375
     13 C          -3.8116  -10.9079   29.4607 C.3     1  UNL1        0.0439
     14 C          -4.9370   -9.5762   27.6408 C.3     1  UNL1        0.0439
     15 O          -5.4199  -11.9204   27.9706 O.3     1  UNL1       -0.4824
     16 C          -6.5272  -14.4536   26.9559 C.2     1  UNL1        0.2523
     17 O          -5.5164  -15.1159   27.3150 O.2     1  UNL1       -0.2697
     18 N          -6.9957  -14.5087   25.5978 N.am    1  UNL1       -0.2803
     19 H          -7.7666  -13.8619   25.3160 H       1  UNL1        0.1552
     20 C          -6.3977  -15.3193   24.5730 C.ar    1  UNL1        0.0505
     21 C          -5.0040  -15.3731   24.4029 C.ar    1  UNL1        0.0147
     22 C          -4.4464  -16.1994   23.4251 C.ar    1  UNL1        0.0012
     23 C          -5.2696  -16.9819   22.6122 C.ar    1  UNL1        0.0039
     24 C          -6.6660  -16.9389   22.7642 C.ar    1  UNL1        0.0726
     25 C          -7.2183  -16.1261   23.7704 C.ar    1  UNL1        0.0185
     26 C          -7.5533  -17.8279   21.9296 C.3     1  UNL1        0.4186
     27 F          -7.9234  -18.9568   22.6400 F       1  UNL1       -0.1659
     28 F          -6.8946  -18.2360   20.7826 F       1  UNL1       -0.1659
     29 F          -8.6904  -17.1284   21.5714 F       1  UNL1       -0.1659
     30 N         -11.2575  -12.0647   31.9916 N.pl3   1  UNL1       -0.2814
     31 H         -11.6796  -11.1147   32.0845 H       1  UNL1        0.1551
     32 C         -11.5319  -13.0230   33.0245 C.ar    1  UNL1        0.0889
     33 C         -10.6305  -13.1576   34.0938 C.ar    1  UNL1        0.1543
     34 F          -9.5062  -12.3994   34.1406 F       1  UNL1       -0.2028
     35 C         -10.8715  -14.0900   35.1069 C.ar    1  UNL1        0.0310
     36 C         -12.0182  -14.8851   35.0693 C.ar    1  UNL1        0.0033
     37 C         -12.9340  -14.7429   34.0246 C.ar    1  UNL1        0.0128
     38 C         -12.7037  -13.8120   33.0043 C.ar    1  UNL1        0.0733
     39 CL        -13.9374  -13.6089   31.7650 Cl      1  UNL1       -0.0809
     40 C          -9.2700  -15.2235   28.0592 C.3     1  UNL1        0.1705
     41 C          -9.0337  -17.1578   26.8022 C.3     1  UNL1        0.1746
     42 O          -8.3991  -16.2840   27.7110 O.3     1  UNL1       -0.3463
@<TRIPOS>BOND
     1    41    42    1
     2    42    40    1
     3    40     1    1
     4     1     2   ar
     5     2    16    1
     6    16    17    2
     7    16    18   am
     8    18    20    1
     9    20    21   ar
    10    21    22   ar
    11    22    23   ar
    12    23    24   ar
    13    24    26    1
    14    26    27    1
    15    26    28    1
    16    26    29    1
    17    24    25   ar
    18     2     3   ar
    19     3     4   ar
    20     4     5   ar
    21     5     6   ar
    22     6     7   ar
    23     7     8   ar
    24     8    30    1
    25    30    32    1
    26    32    33   ar
    27    33    34    1
    28    33    35   ar
    29    35    36   ar
    30    36    37   ar
    31    37    38   ar
    32    38    39    1
    33     8     9   ar
    34     9    10    1
    35     4    11    1
    36    11    12    1
    37    12    13    1
    38    12    14    1
    39    12    15    1
    40     6     1   ar
    41    38    32   ar
    42    25    20   ar
    43    15     3    1
    44     9     5   ar
    45    18    19    1
    46    30    31    1
@<TRIPOS>MOLECULE
*****
 42 46 0 0 0
SMALL
GASTEIGER

@<TRIPOS>ATOM
      1 C          -6.8569  -15.5899   24.9586 C.ar    1  UNL1        0.0337
      2 C          -8.0623  -15.9846   25.6202 C.ar    1  UNL1        0.0872
      3 C          -8.9055  -16.9193   24.9794 C.ar    1  UNL1        0.1398
      4 C          -8.6019  -17.4759   23.7623 C.ar    1  UNL1        0.0327
      5 C          -7.4066  -17.1194   23.1384 C.ar    1  UNL1        0.0787
      6 C          -6.5626  -16.2140   23.7277 C.ar    1  UNL1        0.0983
      7 N          -5.4700  -16.0360   22.9627 N.ar    1  UNL1       -0.2137
      8 C          -5.6924  -16.8559   21.9029 C.ar    1  UNL1        0.2018
      9 N          -6.8721  -17.5306   21.9730 N.ar    1  UNL1       -0.2977
     10 C          -7.4228  -18.4949   21.0212 C.3     1  UNL1        0.1332
     11 C          -9.6686  -18.4322   23.3578 C.3     1  UNL1        0.0709
     12 C         -10.6561  -18.3754   24.5700 C.3     1  UNL1        0.1375
     13 C         -10.7473  -19.7340   25.2780 C.3     1  UNL1        0.0439
     14 C         -12.0504  -17.9036   24.1359 C.3     1  UNL1        0.0439
     15 O         -10.0954  -17.4165   25.4694 O.3     1  UNL1       -0.4824
     16 C          -8.4485  -15.4743   26.9488 C.2     1  UNL1        0.2523
     17 O          -8.6732  -16.2955   27.8785 O.2     1  UNL1       -0.2697
     18 N          -8.5541  -14.0590   27.1788 N.am    1  UNL1       -0.2803
     19 H          -8.4684  -13.4187   26.3574 H       1  UNL1        0.1552
     20 C          -8.8797  -13.4729   28.4497 C.ar    1  UNL1        0.0505
     21 C         -10.0744  -13.7904   29.1175 C.ar    1  UNL1        0.0147
     22 C         -10.3484  -13.2372   30.3700 C.ar    1  UNL1        0.0012
     23 C          -9.4348  -12.3679   30.9702 C.ar    1  UNL1        0.0039
     24 C          -8.2361  -12.0349   30.3165 C.ar    1  UNL1        0.0726
     25 C          -7.9543  -12.6187   29.0684 C.ar    1  UNL1        0.0185
     26 C          -7.2207  -11.1453   30.9887 C.3     1  UNL1        0.4186
     27 F          -7.4495   -9.8166   30.6753 F       1  UNL1       -0.1659
     28 F          -5.9394  -11.4713   30.5789 F       1  UNL1       -0.1659
     29 F          -7.3103  -11.3068   32.3586 F       1  UNL1       -0.1659
     30 N          -4.7436  -17.0102   20.8369 N.pl3   1  UNL1       -0.2814
     31 H          -5.0560  -16.8316   19.8573 H       1  UNL1        0.1551
     32 C          -3.4918  -17.6866   21.0275 C.ar    1  UNL1        0.0889
     33 C          -2.3984  -16.9744   21.5483 C.ar    1  UNL1        0.1543
     34 F          -2.5219  -15.6581   21.8537 F       1  UNL1       -0.2028
     35 C          -1.1669  -17.6090   21.7345 C.ar    1  UNL1        0.0310
     36 C          -1.0195  -18.9601   21.4162 C.ar    1  UNL1        0.0033
     37 C          -2.1060  -19.6846   20.9213 C.ar    1  UNL1        0.0128
     38 C          -3.3446  -19.0601   20.7308 C.ar    1  UNL1        0.0733
     39 CL         -4.7024  -20.0440   20.1951 Cl      1  UNL1       -0.0809
     40 C          -5.9182  -14.5373   25.5163 C.3     1  UNL1        0.1705
     41 C          -4.8358  -16.3594   26.4576 C.3     1  UNL1        0.1746
     42 O          -4.6618  -15.0948   25.8552 O.3     1  UNL1       -0.3463
@<TRIPOS>BOND
     1    41    42    1
     2    42    40    1
     3    40     1    1
     4     1     2   ar
     5     2    16    1
     6    16    17    2
     7    16    18   am
     8    18    20    1
     9    20    21   ar
    10    21    22   ar
    11    22    23   ar
    12    23    24   ar
    13    24    26    1
    14    26    27    1
    15    26    28    1
    16    26    29    1
    17    24    25   ar
    18     2     3   ar
    19     3     4   ar
    20     4     5   ar
    21     5     6   ar
    22     6     7   ar
    23     7     8   ar
    24     8    30    1
    25    30    32    1
    26    32    33   ar
    27    33    34    1
    28    33    35   ar
    29    35    36   ar
    30    36    37   ar
    31    37    38   ar
    32    38    39    1
    33     8     9   ar
    34     9    10    1
    35     4    11    1
    36    11    12    1
    37    12    13    1
    38    12    14    1
    39    12    15    1
    40     6     1   ar
    41    38    32   ar
    42    25    20   ar
    43    15     3    1
    44     9     5   ar
    45    18    19    1
    46    30    31    1
@<TRIPOS>MOLECULE
*****
 42 46 0 0 0
SMALL
GASTEIGER

@<TRIPOS>ATOM
      1 C          -9.0848  -12.5988   29.2785 C.ar    1  UNL1        0.0337
      2 C          -8.3504  -11.3964   29.5263 C.ar    1  UNL1        0.0872
      3 C          -7.0116  -11.3229   29.0819 C.ar    1  UNL1        0.1398
      4 C          -6.3998  -12.3485   28.4057 C.ar    1  UNL1        0.0327
      5 C          -7.1308  -13.5038   28.1303 C.ar    1  UNL1        0.0787
      6 C          -8.4323  -13.6139   28.5468 C.ar    1  UNL1        0.0983
      7 N          -8.9427  -14.7968   28.1583 N.ar    1  UNL1       -0.2137
      8 C          -7.9072  -15.3856   27.5056 C.ar    1  UNL1        0.2018
      9 N          -6.7789  -14.6257   27.4743 N.ar    1  UNL1       -0.2977
     10 C          -5.4918  -14.9389   26.8541 C.3     1  UNL1        0.1332
     11 C          -5.0035  -11.9686   28.0565 C.3     1  UNL1        0.0709
     12 C          -4.8952  -10.5120   28.6174 C.3     1  UNL1        0.1375
     13 C          -4.6580   -9.4977   27.4905 C.3     1  UNL1        0.0439
     14 C          -3.7924  -10.4003   29.6788 C.3     1  UNL1        0.0439
     15 O          -6.1608  -10.2466   29.2263 O.3     1  UNL1       -0.4824
     16 C          -8.9383  -10.2266   30.2049 C.2     1  UNL1        0.2523
     17 O          -9.0458  -10.2374   31.4609 O.2     1  UNL1       -0.2697
     18 N          -9.3701   -9.0873   29.4416 N.am    1  UNL1       -0.2803
     19 H          -9.3660   -9.1624   28.3993 H       1  UNL1        0.1552
     20 C          -9.9115   -7.8891   30.0213 C.ar    1  UNL1        0.0505
     21 C          -9.2832   -6.6442   29.8489 C.ar    1  UNL1        0.0147
     22 C          -9.8515   -5.4890   30.3895 C.ar    1  UNL1        0.0012
     23 C         -11.0508   -5.5617   31.1015 C.ar    1  UNL1        0.0039
     24 C         -11.6923   -6.7980   31.2881 C.ar    1  UNL1        0.0726
     25 C         -11.1289   -7.9527   30.7161 C.ar    1  UNL1        0.0185
     26 C         -13.0180   -6.8709   32.0036 C.3     1  UNL1        0.4186
     27 F         -14.0656   -6.8275   31.0999 F       1  UNL1       -0.1659
     28 F         -13.1586   -5.8081   32.8793 F       1  UNL1       -0.1659
     29 F         -13.0862   -8.0536   32.7158 F       1  UNL1       -0.1659
     30 N          -8.0230  -16.6735   26.8824 N.pl3   1  UNL1       -0.2814
     31 H          -7.3555  -17.4266   27.1589 H       1  UNL1        0.1551
     32 C          -8.8036  -16.8741   25.6945 C.ar    1  UNL1        0.0889
     33 C          -9.7347  -17.9255   25.6536 C.ar    1  UNL1        0.1543
     34 F          -9.8828  -18.7502   26.7209 F       1  UNL1       -0.2028
     35 C         -10.5000  -18.1462   24.5050 C.ar    1  UNL1        0.0310
     36 C         -10.3533  -17.3135   23.3943 C.ar    1  UNL1        0.0033
     37 C          -9.4490  -16.2499   23.4322 C.ar    1  UNL1        0.0128
     38 C          -8.6771  -16.0185   24.5773 C.ar    1  UNL1        0.0733
     39 CL         -7.6241  -14.6081   24.6037 Cl      1  UNL1       -0.0809
     40 C         -10.4998  -12.8174   29.7784 C.3     1  UNL1        0.1705
     41 C         -11.6981  -12.5948   31.7513 C.3     1  UNL1        0.1746
     42 O         -10.5184  -13.1017   31.1652 O.3     1  UNL1       -0.3463
@<TRIPOS>BOND
     1    41    42    1
     2    42    40    1
     3    40     1    1
     4     1     2   ar
     5     2    16    1
     6    16    17    2
     7    16    18   am
     8    18    20    1
     9    20    21   ar
    10    21    22   ar
    11    22    23   ar
    12    23    24   ar
    13    24    26    1
    14    26    27    1
    15    26    28    1
    16    26    29    1
    17    24    25   ar
    18     2     3   ar
    19     3     4   ar
    20     4     5   ar
    21     5     6   ar
    22     6     7   ar
    23     7     8   ar
    24     8    30    1
    25    30    32    1
    26    32    33   ar
    27    33    34    1
    28    33    35   ar
    29    35    36   ar
    30    36    37   ar
    31    37    38   ar
    32    38    39    1
    33     8     9   ar
    34     9    10    1
    35     4    11    1
    36    11    12    1
    37    12    13    1
    38    12    14    1
    39    12    15    1
    40     6     1   ar
    41    38    32   ar
    42    25    20   ar
    43    15     3    1
    44     9     5   ar
    45    18    19    1
    46    30    31    1
