@<TRIPOS>MOLECULE
*****
 36 39 0 0 0
SMALL
GASTEIGER

@<TRIPOS>ATOM
      1 N         -10.5157  -11.5158   32.8640 N.am    1  UNL1       -0.2685
      2 C          -9.3169  -11.0514   33.5007 C.2     1  UNL1        0.2672
      3 O          -9.1371  -11.2820   34.7268 O.2     1  UNL1       -0.2682
      4 C          -8.3261  -10.2814   32.7255 C.ar    1  UNL1        0.1352
      5 C          -7.4930  -10.9009   31.7853 C.ar    1  UNL1        0.0238
      6 C          -6.5394  -10.1386   31.0987 C.ar    1  UNL1        0.0036
      7 C          -5.6944  -10.7444   30.1554 C.ar    1  UNL1        0.0001
      8 C          -4.7420   -9.9836   29.4743 C.ar    1  UNL1        0.0000
      9 C          -4.6246   -8.6161   29.7280 C.ar    1  UNL1        0.0001
     10 C          -5.4583   -7.9986   30.6644 C.ar    1  UNL1        0.0020
     11 C          -6.4250   -8.7505   31.3608 C.ar    1  UNL1        0.0233
     12 C          -7.2879   -8.1715   32.3153 C.ar    1  UNL1        0.1031
     13 S          -7.2305   -6.4277   32.7360 S.3     1  UNL1       -0.1228
     14 N          -8.1986   -8.9479   32.9568 N.ar    1  UNL1       -0.2348
     15 H          -8.1704   -6.1036   31.7401 H       1  UNL1        0.1086
     16 C         -10.4483  -12.6833   30.6669 C.3     1  UNL1        0.0265
     17 C         -10.4959  -12.8288   32.1959 C.3     1  UNL1        0.1007
     18 C         -11.6322  -13.7044   32.7047 C.ar    1  UNL1        0.0234
     19 C         -12.7673  -13.9878   31.9157 C.ar    1  UNL1        0.0019
     20 C         -13.8144  -14.7591   32.4275 C.ar    1  UNL1        0.0295
     21 C         -13.7535  -15.2473   33.7333 C.ar    1  UNL1        0.1424
     22 F         -14.7722  -15.9933   34.2271 F       1  UNL1       -0.2041
     23 C         -12.6465  -14.9600   34.5333 C.ar    1  UNL1        0.0590
     24 C         -11.5942  -14.1890   34.0295 C.ar    1  UNL1        0.1399
     25 F         -10.5398  -13.9135   34.8390 F       1  UNL1       -0.2044
     26 C         -11.7533  -10.7458   33.0578 C.3     1  UNL1        0.1207
     27 C         -11.8150   -9.5999   32.0803 C.ar    1  UNL1       -0.0021
     28 C         -12.6803   -8.5200   32.3137 C.ar    1  UNL1       -0.0026
     29 C         -12.6705   -7.4140   31.4626 C.ar    1  UNL1       -0.0001
     30 C         -11.7933   -7.3703   30.3768 C.ar    1  UNL1        0.0064
     31 C         -10.9141   -8.4394   30.1293 C.ar    1  UNL1        0.0752
     32 C         -10.9334   -9.5526   30.9879 C.ar    1  UNL1        0.0038
     33 C          -9.9689   -8.3904   28.9921 C.2     1  UNL1        0.3380
     34 O          -8.7963   -7.9565   29.1545 O.2     1  UNL1       -0.2451
     35 O         -10.3647   -8.8285   27.7309 O.3     1  UNL1       -0.4771
     36 H          -9.7241   -8.8035   26.9466 H       1  UNL1        0.2954
@<TRIPOS>BOND
     1    16    17    1
     2    17    18    1
     3    18    19   ar
     4    19    20   ar
     5    20    21   ar
     6    21    22    1
     7    21    23   ar
     8    23    24   ar
     9    24    25    1
    10    17     1    1
    11     1    26    1
    12    26    27    1
    13    27    28   ar
    14    28    29   ar
    15    29    30   ar
    16    30    31   ar
    17    31    33    1
    18    33    34    2
    19    33    35    1
    20    31    32   ar
    21     1     2   am
    22     2     3    2
    23     2     4    1
    24     4     5   ar
    25     5     6   ar
    26     6     7   ar
    27     7     8   ar
    28     8     9   ar
    29     9    10   ar
    30    10    11   ar
    31    11    12   ar
    32    12    13    1
    33    12    14   ar
    34    24    18   ar
    35    32    27   ar
    36    14     4   ar
    37    11     6   ar
    38    35    36    1
    39    13    15    1
@<TRIPOS>MOLECULE
*****
 36 39 0 0 0
SMALL
GASTEIGER

@<TRIPOS>ATOM
      1 N         -10.4604  -11.6000   32.9034 N.am    1  UNL1       -0.2685
      2 C          -9.2441  -11.2266   33.5662 C.2     1  UNL1        0.2672
      3 O          -9.0755  -11.5405   34.7753 O.2     1  UNL1       -0.2682
      4 C          -8.2210  -10.4518   32.8392 C.ar    1  UNL1        0.1352
      5 C          -7.8266   -9.1785   33.2694 C.ar    1  UNL1        0.0238
      6 C          -6.8795   -8.4612   32.5276 C.ar    1  UNL1        0.0036
      7 C          -6.4755   -7.1826   32.9430 C.ar    1  UNL1        0.0001
      8 C          -5.5338   -6.4674   32.2004 C.ar    1  UNL1        0.0000
      9 C          -4.9890   -7.0200   31.0402 C.ar    1  UNL1        0.0001
     10 C          -5.3813   -8.2917   30.6135 C.ar    1  UNL1        0.0020
     11 C          -6.3301   -9.0276   31.3503 C.ar    1  UNL1        0.0233
     12 C          -6.7576  -10.3140   30.9585 C.ar    1  UNL1        0.1031
     13 S          -6.1390  -11.1289   29.4839 S.3     1  UNL1       -0.1228
     14 N          -7.6772  -10.9743   31.7082 N.ar    1  UNL1       -0.2348
     15 H          -5.0867  -11.7331   30.1966 H       1  UNL1        0.1086
     16 C         -10.4782  -12.6286   30.6370 C.3     1  UNL1        0.0265
     17 C         -10.4945  -12.8685   32.1547 C.3     1  UNL1        0.1007
     18 C         -11.6438  -13.7424   32.6363 C.ar    1  UNL1        0.0234
     19 C         -12.7779  -13.9932   31.8349 C.ar    1  UNL1        0.0019
     20 C         -13.8368  -14.7640   32.3225 C.ar    1  UNL1        0.0295
     21 C         -13.7888  -15.2842   33.6164 C.ar    1  UNL1        0.1424
     22 F         -14.8190  -16.0296   34.0868 F       1  UNL1       -0.2041
     23 C         -12.6828  -15.0295   34.4288 C.ar    1  UNL1        0.0590
     24 C         -11.6188  -14.2592   33.9492 C.ar    1  UNL1        0.1399
     25 F         -10.5657  -14.0159   34.7706 F       1  UNL1       -0.2044
     26 C         -11.6650  -10.7926   33.1465 C.3     1  UNL1        0.1207
     27 C         -11.7486   -9.6645   32.1502 C.ar    1  UNL1       -0.0021
     28 C         -12.6409   -8.6022   32.3613 C.ar    1  UNL1       -0.0026
     29 C         -12.6528   -7.5102   31.4924 C.ar    1  UNL1       -0.0001
     30 C         -11.7706   -7.4628   30.4108 C.ar    1  UNL1        0.0064
     31 C         -10.8646   -8.5142   30.1855 C.ar    1  UNL1        0.0752
     32 C         -10.8621   -9.6136   31.0620 C.ar    1  UNL1        0.0038
     33 C          -9.9142   -8.4607   29.0528 C.2     1  UNL1        0.3380
     34 O          -8.7284   -8.0716   29.2318 O.2     1  UNL1       -0.2451
     35 O         -10.3200   -8.8451   27.7773 O.3     1  UNL1       -0.4771
     36 H          -9.6761   -8.8166   26.9958 H       1  UNL1        0.2954
@<TRIPOS>BOND
     1    16    17    1
     2    17    18    1
     3    18    19   ar
     4    19    20   ar
     5    20    21   ar
     6    21    22    1
     7    21    23   ar
     8    23    24   ar
     9    24    25    1
    10    17     1    1
    11     1    26    1
    12    26    27    1
    13    27    28   ar
    14    28    29   ar
    15    29    30   ar
    16    30    31   ar
    17    31    33    1
    18    33    34    2
    19    33    35    1
    20    31    32   ar
    21     1     2   am
    22     2     3    2
    23     2     4    1
    24     4     5   ar
    25     5     6   ar
    26     6     7   ar
    27     7     8   ar
    28     8     9   ar
    29     9    10   ar
    30    10    11   ar
    31    11    12   ar
    32    12    13    1
    33    12    14   ar
    34    24    18   ar
    35    32    27   ar
    36    14     4   ar
    37    11     6   ar
    38    35    36    1
    39    13    15    1
@<TRIPOS>MOLECULE
*****
 36 39 0 0 0
SMALL
GASTEIGER

@<TRIPOS>ATOM
      1 N         -10.5269  -11.4652   32.8646 N.am    1  UNL1       -0.2685
      2 C          -9.2977  -11.0566   33.4812 C.2     1  UNL1        0.2672
      3 O          -9.0960  -11.3218   34.6969 O.2     1  UNL1       -0.2682
      4 C          -8.3002  -10.3026   32.6989 C.ar    1  UNL1        0.1352
      5 C          -7.4778  -10.9369   31.7591 C.ar    1  UNL1        0.0238
      6 C          -6.5173  -10.1897   31.0656 C.ar    1  UNL1        0.0036
      7 C          -5.6829  -10.8104   30.1226 C.ar    1  UNL1        0.0001
      8 C          -4.7236  -10.0647   29.4346 C.ar    1  UNL1        0.0000
      9 C          -4.5886   -8.6975   29.6810 C.ar    1  UNL1        0.0001
     10 C          -5.4117   -8.0652   30.6170 C.ar    1  UNL1        0.0020
     11 C          -6.3850   -8.8018   31.3203 C.ar    1  UNL1        0.0233
     12 C          -7.2377   -8.2076   32.2748 C.ar    1  UNL1        0.1031
     13 S          -7.1576   -6.4626   32.6865 S.3     1  UNL1       -0.1228
     14 N          -8.1556   -8.9697   32.9232 N.ar    1  UNL1       -0.2348
     15 H          -8.0969   -6.1320   31.6922 H       1  UNL1        0.1086
     16 C         -10.5391  -12.5831   30.6409 C.3     1  UNL1        0.0265
     17 C         -10.5685  -12.7621   32.1667 C.3     1  UNL1        0.1007
     18 C         -11.7299  -13.6049   32.6742 C.ar    1  UNL1        0.0234
     19 C         -11.5694  -14.5527   33.7072 C.ar    1  UNL1        0.0019
     20 C         -12.6456  -15.3426   34.1209 C.ar    1  UNL1        0.0295
     21 C         -13.8908  -15.2106   33.5052 C.ar    1  UNL1        0.1424
     22 F         -14.9319  -15.9802   33.9077 F       1  UNL1       -0.2041
     23 C         -14.0615  -14.2912   32.4690 C.ar    1  UNL1        0.0590
     24 C         -12.9902  -13.4968   32.0485 C.ar    1  UNL1        0.1399
     25 F         -13.1849  -12.6245   31.0267 F       1  UNL1       -0.2044
     26 C         -11.7321  -10.6585   33.1067 C.3     1  UNL1        0.1207
     27 C         -11.8182   -9.5333   32.1073 C.ar    1  UNL1       -0.0021
     28 C         -12.7154   -8.4742   32.3136 C.ar    1  UNL1       -0.0026
     29 C         -12.7298   -7.3844   31.4419 C.ar    1  UNL1       -0.0001
     30 C         -11.8453   -7.3362   30.3623 C.ar    1  UNL1        0.0064
     31 C         -10.9344   -8.3843   30.1417 C.ar    1  UNL1        0.0752
     32 C         -10.9293   -9.4814   31.0211 C.ar    1  UNL1        0.0038
     33 C          -9.9816   -8.3297   29.0111 C.2     1  UNL1        0.3380
     34 O          -8.8292   -7.8438   29.1700 O.2     1  UNL1       -0.2451
     35 O         -10.3479   -8.8201   27.7602 O.3     1  UNL1       -0.4771
     36 H          -9.7017   -8.7916   26.9806 H       1  UNL1        0.2954
@<TRIPOS>BOND
     1    16    17    1
     2    17    18    1
     3    18    19   ar
     4    19    20   ar
     5    20    21   ar
     6    21    22    1
     7    21    23   ar
     8    23    24   ar
     9    24    25    1
    10    17     1    1
    11     1    26    1
    12    26    27    1
    13    27    28   ar
    14    28    29   ar
    15    29    30   ar
    16    30    31   ar
    17    31    33    1
    18    33    34    2
    19    33    35    1
    20    31    32   ar
    21     1     2   am
    22     2     3    2
    23     2     4    1
    24     4     5   ar
    25     5     6   ar
    26     6     7   ar
    27     7     8   ar
    28     8     9   ar
    29     9    10   ar
    30    10    11   ar
    31    11    12   ar
    32    12    13    1
    33    12    14   ar
    34    24    18   ar
    35    32    27   ar
    36    14     4   ar
    37    11     6   ar
    38    35    36    1
    39    13    15    1
@<TRIPOS>MOLECULE
*****
 36 39 0 0 0
SMALL
GASTEIGER

@<TRIPOS>ATOM
      1 N          -9.2536   -9.4924   31.4229 N.am    1  UNL1       -0.2685
      2 C         -10.5597   -9.7782   31.9429 C.2     1  UNL1        0.2672
      3 O         -11.4757   -8.9206   31.8233 O.2     1  UNL1       -0.2682
      4 C         -10.8082  -11.0539   32.6403 C.ar    1  UNL1        0.1352
      5 C         -11.9035  -11.8636   32.3138 C.ar    1  UNL1        0.0238
      6 C         -12.1239  -13.0485   33.0274 C.ar    1  UNL1        0.0036
      7 C         -13.2187  -13.8699   32.7151 C.ar    1  UNL1        0.0001
      8 C         -13.4388  -15.0490   33.4299 C.ar    1  UNL1        0.0000
      9 C         -12.5715  -15.4176   34.4595 C.ar    1  UNL1        0.0001
     10 C         -11.4773  -14.6102   34.7824 C.ar    1  UNL1        0.0020
     11 C         -11.2397  -13.4172   34.0719 C.ar    1  UNL1        0.0233
     12 C         -10.1494  -12.5699   34.3624 C.ar    1  UNL1        0.1031
     13 S          -8.9694  -12.9283   35.6663 S.3     1  UNL1       -0.1228
     14 N          -9.9730  -11.4310   33.6444 N.ar    1  UNL1       -0.2348
     15 H          -8.1355  -13.6427   34.7861 H       1  UNL1        0.1086
     16 C          -9.6780  -11.2205   29.6828 C.3     1  UNL1        0.0265
     17 C          -8.9274   -9.9325   30.0552 C.3     1  UNL1        0.1007
     18 C          -7.4194  -10.0115   29.8647 C.ar    1  UNL1        0.0234
     19 C          -6.7498   -9.2505   28.8830 C.ar    1  UNL1        0.0019
     20 C          -5.3697   -9.3781   28.7032 C.ar    1  UNL1        0.0295
     21 C          -4.6395  -10.2724   29.4868 C.ar    1  UNL1        0.1424
     22 F          -3.3012  -10.3952   29.3081 F       1  UNL1       -0.2041
     23 C          -5.2895  -11.0465   30.4493 C.ar    1  UNL1        0.0590
     24 C          -6.6702  -10.9254   30.6360 C.ar    1  UNL1        0.1399
     25 F          -7.2745  -11.7050   31.5687 F       1  UNL1       -0.2044
     26 C          -8.3642   -8.6227   32.2070 C.3     1  UNL1        0.1207
     27 C          -8.2654   -7.2617   31.5666 C.ar    1  UNL1       -0.0021
     28 C          -7.0133   -6.6506   31.3992 C.ar    1  UNL1       -0.0026
     29 C          -6.9086   -5.4353   30.7211 C.ar    1  UNL1       -0.0001
     30 C          -8.0486   -4.8225   30.1967 C.ar    1  UNL1        0.0064
     31 C          -9.3116   -5.4215   30.3483 C.ar    1  UNL1        0.0752
     32 C          -9.4100   -6.6433   31.0373 C.ar    1  UNL1        0.0038
     33 C         -10.5204   -4.7870   29.7781 C.2     1  UNL1        0.3380
     34 O         -10.4647   -3.6220   29.2994 O.2     1  UNL1       -0.2451
     35 O         -11.7317   -5.4738   29.7601 O.3     1  UNL1       -0.4771
     36 H         -12.5642   -5.0503   29.3680 H       1  UNL1        0.2954
@<TRIPOS>BOND
     1    16    17    1
     2    17    18    1
     3    18    19   ar
     4    19    20   ar
     5    20    21   ar
     6    21    22    1
     7    21    23   ar
     8    23    24   ar
     9    24    25    1
    10    17     1    1
    11     1    26    1
    12    26    27    1
    13    27    28   ar
    14    28    29   ar
    15    29    30   ar
    16    30    31   ar
    17    31    33    1
    18    33    34    2
    19    33    35    1
    20    31    32   ar
    21     1     2   am
    22     2     3    2
    23     2     4    1
    24     4     5   ar
    25     5     6   ar
    26     6     7   ar
    27     7     8   ar
    28     8     9   ar
    29     9    10   ar
    30    10    11   ar
    31    11    12   ar
    32    12    13    1
    33    12    14   ar
    34    24    18   ar
    35    32    27   ar
    36    14     4   ar
    37    11     6   ar
    38    35    36    1
    39    13    15    1
@<TRIPOS>MOLECULE
*****
 36 39 0 0 0
SMALL
GASTEIGER

@<TRIPOS>ATOM
      1 N         -10.5832  -10.7650   30.5487 N.am    1  UNL1       -0.2685
      2 C         -10.5404   -9.8137   29.4757 C.2     1  UNL1        0.2672
      3 O         -11.0780  -10.0996   28.3721 O.2     1  UNL1       -0.2682
      4 C          -9.8403   -8.5290   29.6625 C.ar    1  UNL1        0.1352
      5 C          -8.4436   -8.4637   29.7462 C.ar    1  UNL1        0.0238
      6 C          -7.8215   -7.2275   29.9623 C.ar    1  UNL1        0.0036
      7 C          -6.4229   -7.1449   30.0517 C.ar    1  UNL1        0.0001
      8 C          -5.8045   -5.9122   30.2706 C.ar    1  UNL1        0.0000
      9 C          -6.5738   -4.7550   30.4021 C.ar    1  UNL1        0.0001
     10 C          -7.9671   -4.8211   30.3157 C.ar    1  UNL1        0.0020
     11 C          -8.6081   -6.0561   30.0950 C.ar    1  UNL1        0.0233
     12 C         -10.0112   -6.1724   30.0015 C.ar    1  UNL1        0.1031
     13 S         -11.1092   -4.7617   30.1614 S.3     1  UNL1       -0.1228
     14 N         -10.5723   -7.3907   29.7903 N.ar    1  UNL1       -0.2348
     15 H         -11.0721   -4.5104   28.7773 H       1  UNL1        0.1086
     16 C         -11.5091   -9.4708   32.4624 C.3     1  UNL1        0.0265
     17 C         -11.6823  -10.6766   31.5258 C.3     1  UNL1        0.1007
     18 C         -11.8653  -12.0051   32.2458 C.ar    1  UNL1        0.0234
     19 C         -10.9994  -12.4193   33.2801 C.ar    1  UNL1        0.0019
     20 C         -11.1672  -13.6646   33.8920 C.ar    1  UNL1        0.0295
     21 C         -12.1884  -14.5195   33.4755 C.ar    1  UNL1        0.1424
     22 F         -12.3467  -15.7277   34.0699 F       1  UNL1       -0.2041
     23 C         -13.0417  -14.1328   32.4408 C.ar    1  UNL1        0.0590
     24 C         -12.8811  -12.8886   31.8228 C.ar    1  UNL1        0.1399
     25 F         -13.7170  -12.5500   30.8082 F       1  UNL1       -0.2044
     26 C          -9.6347  -11.8883   30.5249 C.3     1  UNL1        0.1207
     27 C          -8.2390  -11.4010   30.8199 C.ar    1  UNL1       -0.0021
     28 C          -7.8236  -11.2135   32.1471 C.ar    1  UNL1       -0.0026
     29 C          -6.5042  -10.8552   32.4273 C.ar    1  UNL1       -0.0001
     30 C          -5.5854  -10.6887   31.3889 C.ar    1  UNL1        0.0064
     31 C          -5.9801  -10.8778   30.0527 C.ar    1  UNL1        0.0752
     32 C          -7.3124  -11.2335   29.7778 C.ar    1  UNL1        0.0038
     33 C          -5.0065  -10.7219   28.9497 C.2     1  UNL1        0.3380
     34 O          -3.8410  -10.3007   29.1813 O.2     1  UNL1       -0.2451
     35 O          -5.3675  -11.0445   27.6439 O.3     1  UNL1       -0.4771
     36 H          -4.7072  -10.9458   26.8821 H       1  UNL1        0.2954
@<TRIPOS>BOND
     1    16    17    1
     2    17    18    1
     3    18    19   ar
     4    19    20   ar
     5    20    21   ar
     6    21    22    1
     7    21    23   ar
     8    23    24   ar
     9    24    25    1
    10    17     1    1
    11     1    26    1
    12    26    27    1
    13    27    28   ar
    14    28    29   ar
    15    29    30   ar
    16    30    31   ar
    17    31    33    1
    18    33    34    2
    19    33    35    1
    20    31    32   ar
    21     1     2   am
    22     2     3    2
    23     2     4    1
    24     4     5   ar
    25     5     6   ar
    26     6     7   ar
    27     7     8   ar
    28     8     9   ar
    29     9    10   ar
    30    10    11   ar
    31    11    12   ar
    32    12    13    1
    33    12    14   ar
    34    24    18   ar
    35    32    27   ar
    36    14     4   ar
    37    11     6   ar
    38    35    36    1
    39    13    15    1
@<TRIPOS>MOLECULE
*****
 36 39 0 0 0
SMALL
GASTEIGER

@<TRIPOS>ATOM
      1 N         -10.4372  -11.0955   32.2122 N.am    1  UNL1       -0.2685
      2 C          -9.5670  -10.4461   33.1498 C.2     1  UNL1        0.2672
      3 O          -9.8994  -10.3847   34.3642 O.2     1  UNL1       -0.2682
      4 C          -8.3127   -9.8285   32.6798 C.ar    1  UNL1        0.1352
      5 C          -8.2180   -8.4498   32.4520 C.ar    1  UNL1        0.0238
      6 C          -7.0192   -7.9100   31.9690 C.ar    1  UNL1        0.0036
      7 C          -6.9084   -6.5307   31.7324 C.ar    1  UNL1        0.0001
      8 C          -5.7136   -5.9947   31.2476 C.ar    1  UNL1        0.0000
      9 C          -4.6225   -6.8278   30.9951 C.ar    1  UNL1        0.0001
     10 C          -4.7174   -8.2030   31.2254 C.ar    1  UNL1        0.0020
     11 C          -5.9149   -8.7611   31.7144 C.ar    1  UNL1        0.0233
     12 C          -6.0583  -10.1430   31.9612 C.ar    1  UNL1        0.1031
     13 S          -4.7334  -11.3179   31.6691 S.3     1  UNL1       -0.1228
     14 N          -7.2384  -10.6233   32.4305 N.ar    1  UNL1       -0.2348
     15 H          -4.2432  -11.1696   32.9799 H       1  UNL1        0.1086
     16 C         -10.1578  -12.7882   30.4091 C.3     1  UNL1        0.0265
     17 C         -10.2205  -12.5234   31.9215 C.3     1  UNL1        0.1007
     18 C         -11.2366  -13.3800   32.6635 C.ar    1  UNL1        0.0234
     19 C         -12.4288  -13.8226   32.0519 C.ar    1  UNL1        0.0019
     20 C         -13.3628  -14.5710   32.7736 C.ar    1  UNL1        0.0295
     21 C         -13.1309  -14.8778   34.1150 C.ar    1  UNL1        0.1424
     22 F         -14.0403  -15.6021   34.8125 F       1  UNL1       -0.2041
     23 C         -11.9656  -14.4313   34.7402 C.ar    1  UNL1        0.0590
     24 C         -11.0256  -13.6819   34.0258 C.ar    1  UNL1        0.1399
     25 F          -9.9109  -13.2484   34.6679 F       1  UNL1       -0.2044
     26 C         -11.6098  -10.3573   31.7201 C.3     1  UNL1        0.1207
     27 C         -11.1747   -9.1884   30.8735 C.ar    1  UNL1       -0.0021
     28 C         -10.6539   -9.4039   29.5883 C.ar    1  UNL1       -0.0026
     29 C         -10.3400   -8.3211   28.7657 C.ar    1  UNL1       -0.0001
     30 C         -10.5499   -7.0148   29.2126 C.ar    1  UNL1        0.0064
     31 C         -11.0766   -6.7776   30.4946 C.ar    1  UNL1        0.0752
     32 C         -11.3854   -7.8734   31.3198 C.ar    1  UNL1        0.0038
     33 C         -11.3195   -5.3965   30.9663 C.2     1  UNL1        0.3380
     34 O         -11.7774   -5.1876   32.1222 O.2     1  UNL1       -0.2451
     35 O         -11.0392   -4.3124   30.1382 O.3     1  UNL1       -0.4771
     36 H         -11.1976   -3.3627   30.4529 H       1  UNL1        0.2954
@<TRIPOS>BOND
     1    16    17    1
     2    17    18    1
     3    18    19   ar
     4    19    20   ar
     5    20    21   ar
     6    21    22    1
     7    21    23   ar
     8    23    24   ar
     9    24    25    1
    10    17     1    1
    11     1    26    1
    12    26    27    1
    13    27    28   ar
    14    28    29   ar
    15    29    30   ar
    16    30    31   ar
    17    31    33    1
    18    33    34    2
    19    33    35    1
    20    31    32   ar
    21     1     2   am
    22     2     3    2
    23     2     4    1
    24     4     5   ar
    25     5     6   ar
    26     6     7   ar
    27     7     8   ar
    28     8     9   ar
    29     9    10   ar
    30    10    11   ar
    31    11    12   ar
    32    12    13    1
    33    12    14   ar
    34    24    18   ar
    35    32    27   ar
    36    14     4   ar
    37    11     6   ar
    38    35    36    1
    39    13    15    1
@<TRIPOS>MOLECULE
*****
 36 39 0 0 0
SMALL
GASTEIGER

@<TRIPOS>ATOM
      1 N          -9.8086   -8.8755   31.1871 N.am    1  UNL1       -0.2685
      2 C         -11.0697   -9.5125   31.4360 C.2     1  UNL1        0.2672
      3 O         -12.1281   -8.9817   31.0038 O.2     1  UNL1       -0.2682
      4 C         -11.1186  -10.7597   32.2219 C.ar    1  UNL1        0.1352
      5 C         -12.1576  -11.6850   32.0597 C.ar    1  UNL1        0.0238
      6 C         -12.1859  -12.8383   32.8539 C.ar    1  UNL1        0.0036
      7 C         -13.2217  -13.7743   32.7063 C.ar    1  UNL1        0.0001
      8 C         -13.2502  -14.9219   33.5012 C.ar    1  UNL1        0.0000
      9 C         -12.2488  -15.1447   34.4477 C.ar    1  UNL1        0.0001
     10 C         -11.2111  -14.2221   34.6066 C.ar    1  UNL1        0.0020
     11 C         -11.1662  -13.0588   33.8132 C.ar    1  UNL1        0.0233
     12 C         -10.1396  -12.0989   33.9383 C.ar    1  UNL1        0.1031
     13 S          -8.8012  -12.2660   35.1223 S.3     1  UNL1       -0.1228
     14 N         -10.1508  -10.9955   33.1469 N.ar    1  UNL1       -0.2348
     15 H          -7.9976  -12.9544   34.1946 H       1  UNL1        0.1086
     16 C          -9.8939  -10.1047   29.0246 C.3     1  UNL1        0.0265
     17 C          -9.0391   -9.2763   29.9964 C.3     1  UNL1        0.1007
     18 C          -7.7333   -9.9439   30.4039 C.ar    1  UNL1        0.0234
     19 C          -7.6307  -10.7356   31.5675 C.ar    1  UNL1        0.0019
     20 C          -6.4067  -11.2990   31.9385 C.ar    1  UNL1        0.0295
     21 C          -5.2668  -11.0726   31.1662 C.ar    1  UNL1        0.1424
     22 F          -4.0807  -11.6190   31.5305 F       1  UNL1       -0.2041
     23 C          -5.3472  -10.2762   30.0227 C.ar    1  UNL1        0.0590
     24 C          -6.5677   -9.7083   29.6441 C.ar    1  UNL1        0.1399
     25 F          -6.6084   -8.9249   28.5361 F       1  UNL1       -0.2044
     26 C          -9.4251   -7.7321   32.0285 C.3     1  UNL1        0.1207
     27 C          -8.0496   -7.2437   31.6522 C.ar    1  UNL1       -0.0021
     28 C          -7.8641   -6.4923   30.4816 C.ar    1  UNL1       -0.0026
     29 C          -6.6107   -5.9575   30.1801 C.ar    1  UNL1       -0.0001
     30 C          -5.5337   -6.1594   31.0458 C.ar    1  UNL1        0.0064
     31 C          -5.7002   -6.9041   32.2267 C.ar    1  UNL1        0.0752
     32 C          -6.9646   -7.4443   32.5211 C.ar    1  UNL1        0.0038
     33 C          -4.5678   -7.1049   33.1574 C.2     1  UNL1        0.3380
     34 O          -3.4683   -6.5200   32.9611 O.2     1  UNL1       -0.2451
     35 O          -4.7078   -7.9393   34.2636 O.3     1  UNL1       -0.4771
     36 H          -3.9402   -8.0801   34.9095 H       1  UNL1        0.2954
@<TRIPOS>BOND
     1    16    17    1
     2    17    18    1
     3    18    19   ar
     4    19    20   ar
     5    20    21   ar
     6    21    22    1
     7    21    23   ar
     8    23    24   ar
     9    24    25    1
    10    17     1    1
    11     1    26    1
    12    26    27    1
    13    27    28   ar
    14    28    29   ar
    15    29    30   ar
    16    30    31   ar
    17    31    33    1
    18    33    34    2
    19    33    35    1
    20    31    32   ar
    21     1     2   am
    22     2     3    2
    23     2     4    1
    24     4     5   ar
    25     5     6   ar
    26     6     7   ar
    27     7     8   ar
    28     8     9   ar
    29     9    10   ar
    30    10    11   ar
    31    11    12   ar
    32    12    13    1
    33    12    14   ar
    34    24    18   ar
    35    32    27   ar
    36    14     4   ar
    37    11     6   ar
    38    35    36    1
    39    13    15    1
@<TRIPOS>MOLECULE
*****
 36 39 0 0 0
SMALL
GASTEIGER

@<TRIPOS>ATOM
      1 N         -10.5980  -10.9124   30.6095 N.am    1  UNL1       -0.2685
      2 C         -10.5382   -9.9697   29.5297 C.2     1  UNL1        0.2672
      3 O         -11.0032  -10.2883   28.4024 O.2     1  UNL1       -0.2682
      4 C          -9.9044   -8.6544   29.7390 C.ar    1  UNL1        0.1352
      5 C          -8.5205   -8.4815   29.6092 C.ar    1  UNL1        0.0238
      6 C          -7.9553   -7.2236   29.8544 C.ar    1  UNL1        0.0036
      7 C          -6.5698   -7.0339   29.7318 C.ar    1  UNL1        0.0001
      8 C          -6.0076   -5.7801   29.9799 C.ar    1  UNL1        0.0000
      9 C          -6.8204   -4.7080   30.3518 C.ar    1  UNL1        0.0001
     10 C          -8.2015   -4.8811   30.4784 C.ar    1  UNL1        0.0020
     11 C          -8.7859   -6.1391   30.2318 C.ar    1  UNL1        0.0233
     12 C         -10.1744   -6.3621   30.3476 C.ar    1  UNL1        0.1031
     13 S         -11.3230   -5.0685   30.8257 S.3     1  UNL1       -0.1228
     14 N         -10.6799   -7.5977   30.0995 N.ar    1  UNL1       -0.2348
     15 H         -11.5307   -4.6869   29.4872 H       1  UNL1        0.1086
     16 C         -11.6641   -9.6587   32.4767 C.3     1  UNL1        0.0265
     17 C         -11.7506  -10.8627   31.5257 C.3     1  UNL1        0.1007
     18 C         -11.9333  -12.2008   32.2277 C.ar    1  UNL1        0.0234
     19 C         -12.9097  -13.1327   31.8163 C.ar    1  UNL1        0.0019
     20 C         -13.0824  -14.3342   32.5090 C.ar    1  UNL1        0.0295
     21 C         -12.2969  -14.6194   33.6265 C.ar    1  UNL1        0.1424
     22 F         -12.4688  -15.7850   34.2973 F       1  UNL1       -0.2041
     23 C         -11.3397  -13.6998   34.0580 C.ar    1  UNL1        0.0590
     24 C         -11.1601  -12.4950   33.3710 C.ar    1  UNL1        0.1399
     25 F         -10.2324  -11.6148   33.8266 F       1  UNL1       -0.2044
     26 C          -9.6026  -11.9939   30.6488 C.3     1  UNL1        0.1207
     27 C          -8.2212  -11.4265   30.8535 C.ar    1  UNL1       -0.0021
     28 C          -7.1796  -11.7741   29.9796 C.ar    1  UNL1       -0.0026
     29 C          -5.9247  -11.1771   30.1081 C.ar    1  UNL1       -0.0001
     30 C          -5.6987  -10.2230   31.1024 C.ar    1  UNL1        0.0064
     31 C          -6.7307   -9.8563   31.9841 C.ar    1  UNL1        0.0752
     32 C          -7.9909  -10.4659   31.8520 C.ar    1  UNL1        0.0038
     33 C          -6.5030   -8.8319   33.0270 C.2     1  UNL1        0.3380
     34 O          -7.4725   -8.3567   33.6780 O.2     1  UNL1       -0.2451
     35 O          -5.2129   -8.3861   33.3033 O.3     1  UNL1       -0.4771
     36 H          -5.0455   -7.6885   34.0183 H       1  UNL1        0.2954
@<TRIPOS>BOND
     1    16    17    1
     2    17    18    1
     3    18    19   ar
     4    19    20   ar
     5    20    21   ar
     6    21    22    1
     7    21    23   ar
     8    23    24   ar
     9    24    25    1
    10    17     1    1
    11     1    26    1
    12    26    27    1
    13    27    28   ar
    14    28    29   ar
    15    29    30   ar
    16    30    31   ar
    17    31    33    1
    18    33    34    2
    19    33    35    1
    20    31    32   ar
    21     1     2   am
    22     2     3    2
    23     2     4    1
    24     4     5   ar
    25     5     6   ar
    26     6     7   ar
    27     7     8   ar
    28     8     9   ar
    29     9    10   ar
    30    10    11   ar
    31    11    12   ar
    32    12    13    1
    33    12    14   ar
    34    24    18   ar
    35    32    27   ar
    36    14     4   ar
    37    11     6   ar
    38    35    36    1
    39    13    15    1
@<TRIPOS>MOLECULE
*****
 36 39 0 0 0
SMALL
GASTEIGER

@<TRIPOS>ATOM
      1 N         -10.5339  -10.7780   31.7306 N.am    1  UNL1       -0.2685
      2 C          -9.2347  -11.2925   31.4057 C.2     1  UNL1        0.2672
      3 O          -9.0828  -12.5329   31.2407 O.2     1  UNL1       -0.2682
      4 C          -8.0866  -10.3724   31.3024 C.ar    1  UNL1        0.1352
      5 C          -7.7407   -9.5150   32.3546 C.ar    1  UNL1        0.0238
      6 C          -6.6663   -8.6299   32.2000 C.ar    1  UNL1        0.0036
      7 C          -6.3083   -7.7617   33.2435 C.ar    1  UNL1        0.0001
      8 C          -5.2391   -6.8775   33.0862 C.ar    1  UNL1        0.0000
      9 C          -4.5202   -6.8517   31.8901 C.ar    1  UNL1        0.0001
     10 C          -4.8646   -7.7096   30.8420 C.ar    1  UNL1        0.0020
     11 C          -5.9403   -8.6083   30.9829 C.ar    1  UNL1        0.0233
     12 C          -6.3255   -9.4923   29.9528 C.ar    1  UNL1        0.1031
     13 S          -5.4871   -9.5498   28.3669 S.3     1  UNL1       -0.1228
     14 N          -7.3728  -10.3345   30.1461 N.ar    1  UNL1       -0.2348
     15 H          -4.5836  -10.5280   28.8218 H       1  UNL1        0.1086
     16 C         -11.1782  -11.1459   29.3548 C.3     1  UNL1        0.0265
     17 C         -11.4075  -10.3257   30.6338 C.3     1  UNL1        0.1007
     18 C         -11.2865   -8.8208   30.4404 C.ar    1  UNL1        0.0234
     19 C         -10.3273   -8.2539   29.5745 C.ar    1  UNL1        0.0019
     20 C         -10.2118   -6.8665   29.4520 C.ar    1  UNL1        0.0295
     21 C         -11.0382   -6.0248   30.1974 C.ar    1  UNL1        0.1424
     22 F         -10.9218   -4.6793   30.0775 F       1  UNL1       -0.2041
     23 C         -11.9793   -6.5692   31.0726 C.ar    1  UNL1        0.0590
     24 C         -12.1017   -7.9563   31.2017 C.ar    1  UNL1        0.1399
     25 F         -13.0151   -8.4535   32.0742 F       1  UNL1       -0.2044
     26 C         -11.0022  -10.8892   33.1200 C.3     1  UNL1        0.1207
     27 C         -11.1698  -12.3379   33.5013 C.ar    1  UNL1       -0.0021
     28 C         -10.4559  -12.8683   34.5868 C.ar    1  UNL1       -0.0026
     29 C         -10.6802  -14.1817   35.0021 C.ar    1  UNL1       -0.0001
     30 C         -11.6231  -14.9753   34.3452 C.ar    1  UNL1        0.0064
     31 C         -12.3532  -14.4607   33.2593 C.ar    1  UNL1        0.0752
     32 C         -12.1180  -13.1383   32.8433 C.ar    1  UNL1        0.0038
     33 C         -13.3673  -15.2901   32.5719 C.2     1  UNL1        0.3380
     34 O         -14.5864  -15.1927   32.8784 O.2     1  UNL1       -0.2451
     35 O         -12.9846  -16.1838   31.5748 O.3     1  UNL1       -0.4771
     36 H         -13.6714  -16.7530   31.0948 H       1  UNL1        0.2954
@<TRIPOS>BOND
     1    16    17    1
     2    17    18    1
     3    18    19   ar
     4    19    20   ar
     5    20    21   ar
     6    21    22    1
     7    21    23   ar
     8    23    24   ar
     9    24    25    1
    10    17     1    1
    11     1    26    1
    12    26    27    1
    13    27    28   ar
    14    28    29   ar
    15    29    30   ar
    16    30    31   ar
    17    31    33    1
    18    33    34    2
    19    33    35    1
    20    31    32   ar
    21     1     2   am
    22     2     3    2
    23     2     4    1
    24     4     5   ar
    25     5     6   ar
    26     6     7   ar
    27     7     8   ar
    28     8     9   ar
    29     9    10   ar
    30    10    11   ar
    31    11    12   ar
    32    12    13    1
    33    12    14   ar
    34    24    18   ar
    35    32    27   ar
    36    14     4   ar
    37    11     6   ar
    38    35    36    1
    39    13    15    1
