@<TRIPOS>MOLECULE
*****
 52 57 0 0 0
SMALL
GASTEIGER

@<TRIPOS>ATOM
      1 C         -61.6692  -42.5906  -24.6651 C.ar    1  UNL1        0.0504
      2 C         -62.9440  -42.2624  -24.1837 C.ar    1  UNL1        0.0148
      3 C         -63.1371  -41.9742  -22.8303 C.ar    1  UNL1        0.0080
      4 C         -62.0565  -42.0049  -21.9308 C.ar    1  UNL1        0.0808
      5 C         -60.7779  -42.3466  -22.4149 C.ar    1  UNL1        0.1457
      6 F         -59.7039  -42.3771  -21.5852 F       1  UNL1       -0.2040
      7 C         -60.5894  -42.6340  -23.7702 C.ar    1  UNL1        0.0443
      8 C         -62.6557  -43.0111  -26.9356 C.3     1  UNL1        0.1507
      9 C         -62.3807  -43.9259  -28.1490 C.3     1  UNL1        0.1194
     10 N         -61.0320  -43.7179  -28.6911 N.pl3   1  UNL1       -0.2893
     11 C         -59.9076  -43.7350  -27.7525 C.3     1  UNL1        0.1136
     12 C         -60.1387  -42.7111  -26.6476 C.3     1  UNL1        0.1126
     13 N         -61.4746  -42.8820  -26.0623 N.pl3   1  UNL1       -0.2997
     14 C         -60.7837  -43.7308  -30.1114 C.ar    1  UNL1        0.1318
     15 C         -59.6991  -44.4371  -30.6558 C.ar    1  UNL1        0.0343
     16 C         -59.4941  -44.4283  -32.0362 C.ar    1  UNL1        0.0083
     17 C         -60.3743  -43.7315  -32.8775 C.ar    1  UNL1        0.0906
     18 C         -61.4254  -43.0101  -32.2908 C.ar    1  UNL1        0.1041
     19 N         -61.6046  -43.0323  -30.9437 N.ar    1  UNL1       -0.2292
     20 C         -60.1347  -43.6725  -34.3644 C.3     1  UNL1        0.4200
     21 F         -59.5267  -44.8344  -34.8073 F       1  UNL1       -0.1658
     22 F         -61.3450  -43.5209  -35.0149 F       1  UNL1       -0.1658
     23 F         -59.3137  -42.6050  -34.6843 F       1  UNL1       -0.1658
     24 C         -64.6351  -41.2704  -27.2561 C.3     1  UNL1        0.0741
     25 C         -63.1812  -41.6422  -27.3281 C.2     1  UNL1        0.1706
     26 O         -62.3942  -40.8111  -27.7557 O.2     1  UNL1       -0.2943
     27 C         -62.2690  -41.7075  -20.4937 C.2     1  UNL1        0.2483
     28 O         -61.6149  -42.3453  -19.6236 O.2     1  UNL1       -0.2701
     29 N         -63.2045  -40.6963  -20.0809 N.am    1  UNL1       -0.2945
     30 H         -63.5819  -40.0451  -20.8053 H       1  UNL1        0.1501
     31 C         -63.5961  -40.5255  -18.6754 C.3     1  UNL1        0.1535
     32 C         -63.7442  -39.0603  -18.3283 C.2     1  UNL1        0.2443
     33 O         -62.9681  -38.5342  -17.4848 O.2     1  UNL1       -0.2730
     34 N         -64.7478  -38.2700  -18.9895 N.am    1  UNL1       -0.2825
     35 H         -65.5112  -38.7794  -19.4897 H       1  UNL1        0.1549
     36 C         -64.8139  -36.8319  -18.9694 C.ar    1  UNL1        0.0535
     37 C         -65.9790  -36.1329  -19.3329 C.ar    1  UNL1        0.0353
     38 C         -66.0014  -34.7384  -19.2519 C.ar    1  UNL1        0.1002
     39 N         -64.9068  -34.0618  -18.8154 N.ar    1  UNL1       -0.2422
     40 C         -63.7718  -34.7100  -18.4439 C.ar    1  UNL1        0.1002
     41 C         -63.7085  -36.1039  -18.5063 C.ar    1  UNL1        0.0353
     42 C         -64.9063  -41.2854  -18.3979 C.3     1  UNL1        0.0569
     43 C         -65.4790  -41.8714  -19.6580 C.ar    1  UNL1       -0.0017
     44 C         -65.6929  -43.2228  -19.9133 C.ar    1  UNL1        0.0681
     45 N         -66.3421  -43.3850  -21.0885 N.ar    1  UNL1       -0.3523
     46 C         -66.5502  -42.1481  -21.5719 C.ar    1  UNL1        0.0563
     47 C         -67.2190  -41.8020  -22.7452 C.ar    1  UNL1        0.0170
     48 C         -67.3543  -40.4346  -23.0462 C.ar    1  UNL1        0.0015
     49 C         -66.8249  -39.4551  -22.1774 C.ar    1  UNL1        0.0001
     50 C         -66.1561  -39.8336  -20.9994 C.ar    1  UNL1        0.0012
     51 C         -66.0382  -41.1969  -20.7267 C.ar    1  UNL1        0.0131
     52 H         -66.6424  -44.2887  -21.5169 H       1  UNL1        0.1660
@<TRIPOS>BOND
     1    24    25    1
     2    25    26    2
     3    25     8    1
     4     8     9    1
     5     9    10    1
     6    10    14    1
     7    14    15   ar
     8    15    16   ar
     9    16    17   ar
    10    17    20    1
    11    20    21    1
    12    20    22    1
    13    20    23    1
    14    17    18   ar
    15    18    19   ar
    16    10    11    1
    17    11    12    1
    18    12    13    1
    19    13     1    1
    20     1     2   ar
    21     2     3   ar
    22     3     4   ar
    23     4    27    1
    24    27    28    2
    25    27    29   am
    26    29    31    1
    27    31    42    1
    28    42    43    1
    29    43    44   ar
    30    44    45   ar
    31    45    46   ar
    32    46    47   ar
    33    47    48   ar
    34    48    49   ar
    35    49    50   ar
    36    50    51   ar
    37    31    32    1
    38    32    33    2
    39    32    34   am
    40    34    36    1
    41    36    37   ar
    42    37    38   ar
    43    38    39   ar
    44    39    40   ar
    45    40    41   ar
    46     4     5   ar
    47     5     6    1
    48     5     7   ar
    49    13     8    1
    50     7     1   ar
    51    19    14   ar
    52    51    43   ar
    53    41    36   ar
    54    51    46   ar
    55    29    30    1
    56    45    52    1
    57    34    35    1
@<TRIPOS>MOLECULE
*****
 52 57 0 0 0
SMALL
GASTEIGER

@<TRIPOS>ATOM
      1 C         -61.8241  -44.0222  -21.8593 C.ar    1  UNL1        0.0504
      2 C         -62.6499  -44.8341  -22.6487 C.ar    1  UNL1        0.0148
      3 C         -62.2328  -46.1128  -23.0269 C.ar    1  UNL1        0.0080
      4 C         -60.9809  -46.6070  -22.6191 C.ar    1  UNL1        0.0808
      5 C         -60.1473  -45.7844  -21.8354 C.ar    1  UNL1        0.1457
      6 F         -58.9359  -46.2244  -21.4091 F       1  UNL1       -0.2040
      7 C         -60.5691  -44.5055  -21.4591 C.ar    1  UNL1        0.0443
      8 C         -63.7063  -42.4420  -21.3444 C.3     1  UNL1        0.1507
      9 C         -64.0437  -40.9529  -21.5767 C.3     1  UNL1        0.1194
     10 N         -63.0373  -40.0682  -20.9764 N.pl3   1  UNL1       -0.2893
     11 C         -61.6275  -40.3406  -21.2659 C.3     1  UNL1        0.1136
     12 C         -61.2873  -41.7759  -20.8828 C.3     1  UNL1        0.1126
     13 N         -62.2609  -42.7066  -21.4679 N.pl3   1  UNL1       -0.2997
     14 C         -63.4128  -38.8399  -20.3211 C.ar    1  UNL1        0.1318
     15 C         -64.4810  -38.7959  -19.4109 C.ar    1  UNL1        0.0343
     16 C         -64.8117  -37.5884  -18.7942 C.ar    1  UNL1        0.0083
     17 C         -64.0724  -36.4283  -19.0691 C.ar    1  UNL1        0.0906
     18 C         -63.0347  -36.5072  -20.0106 C.ar    1  UNL1        0.1041
     19 N         -62.7317  -37.6940  -20.5995 N.ar    1  UNL1       -0.2292
     20 C         -64.4512  -35.1079  -18.4485 C.3     1  UNL1        0.4200
     21 F         -65.1030  -35.3043  -17.2433 F       1  UNL1       -0.1658
     22 F         -63.3072  -34.3644  -18.2264 F       1  UNL1       -0.1658
     23 F         -65.2945  -34.3990  -19.2865 F       1  UNL1       -0.1658
     24 C         -64.9842  -44.2711  -19.9050 C.3     1  UNL1        0.0741
     25 C         -64.2352  -42.9742  -20.0249 C.2     1  UNL1        0.1706
     26 O         -64.0773  -42.3043  -19.0153 O.2     1  UNL1       -0.2943
     27 C         -60.5393  -47.9612  -23.0315 C.2     1  UNL1        0.2483
     28 O         -59.3439  -48.1424  -23.3917 O.2     1  UNL1       -0.2701
     29 N         -61.4542  -49.0706  -23.0179 N.am    1  UNL1       -0.2945
     30 H         -62.3704  -48.9513  -22.5305 H       1  UNL1        0.1501
     31 C         -61.1142  -50.3673  -23.6186 C.3     1  UNL1        0.1535
     32 C         -61.9638  -51.4747  -23.0344 C.2     1  UNL1        0.2443
     33 O         -61.9360  -51.6982  -21.7936 O.2     1  UNL1       -0.2730
     34 N         -62.8234  -52.2419  -23.8955 N.am    1  UNL1       -0.2825
     35 H         -62.6444  -52.1931  -24.9241 H       1  UNL1        0.1549
     36 C         -63.8762  -53.1157  -23.4473 C.ar    1  UNL1        0.0535
     37 C         -65.1867  -53.0247  -23.9499 C.ar    1  UNL1        0.0353
     38 C         -66.1586  -53.9277  -23.5120 C.ar    1  UNL1        0.1002
     39 N         -65.8373  -54.8943  -22.6127 N.ar    1  UNL1       -0.2422
     40 C         -64.5769  -55.0161  -22.1198 C.ar    1  UNL1        0.1002
     41 C         -63.5744  -54.1360  -22.5340 C.ar    1  UNL1        0.0353
     42 C         -61.2843  -50.3000  -25.1475 C.3     1  UNL1        0.0569
     43 C         -62.2830  -49.2488  -25.5434 C.ar    1  UNL1       -0.0017
     44 C         -63.6310  -49.2235  -25.1981 C.ar    1  UNL1        0.0681
     45 N         -64.2033  -48.0697  -25.6106 N.ar    1  UNL1       -0.3523
     46 C         -63.2264  -47.3615  -26.2029 C.ar    1  UNL1        0.0563
     47 C         -63.3246  -46.0841  -26.7528 C.ar    1  UNL1        0.0170
     48 C         -62.1605  -45.5101  -27.2952 C.ar    1  UNL1        0.0015
     49 C         -60.9382  -46.2174  -27.2754 C.ar    1  UNL1        0.0001
     50 C         -60.8684  -47.5045  -26.7125 C.ar    1  UNL1        0.0012
     51 C         -62.0388  -48.0475  -26.1814 C.ar    1  UNL1        0.0131
     52 H         -65.1969  -47.7804  -25.4715 H       1  UNL1        0.1660
@<TRIPOS>BOND
     1    24    25    1
     2    25    26    2
     3    25     8    1
     4     8     9    1
     5     9    10    1
     6    10    14    1
     7    14    15   ar
     8    15    16   ar
     9    16    17   ar
    10    17    20    1
    11    20    21    1
    12    20    22    1
    13    20    23    1
    14    17    18   ar
    15    18    19   ar
    16    10    11    1
    17    11    12    1
    18    12    13    1
    19    13     1    1
    20     1     2   ar
    21     2     3   ar
    22     3     4   ar
    23     4    27    1
    24    27    28    2
    25    27    29   am
    26    29    31    1
    27    31    42    1
    28    42    43    1
    29    43    44   ar
    30    44    45   ar
    31    45    46   ar
    32    46    47   ar
    33    47    48   ar
    34    48    49   ar
    35    49    50   ar
    36    50    51   ar
    37    31    32    1
    38    32    33    2
    39    32    34   am
    40    34    36    1
    41    36    37   ar
    42    37    38   ar
    43    38    39   ar
    44    39    40   ar
    45    40    41   ar
    46     4     5   ar
    47     5     6    1
    48     5     7   ar
    49    13     8    1
    50     7     1   ar
    51    19    14   ar
    52    51    43   ar
    53    41    36   ar
    54    51    46   ar
    55    29    30    1
    56    45    52    1
    57    34    35    1
@<TRIPOS>MOLECULE
*****
 52 57 0 0 0
SMALL
GASTEIGER

@<TRIPOS>ATOM
      1 C         -62.7437  -42.6384  -22.8934 C.ar    1  UNL1        0.0504
      2 C         -62.5489  -42.4645  -24.2705 C.ar    1  UNL1        0.0148
      3 C         -62.1184  -43.5303  -25.0648 C.ar    1  UNL1        0.0080
      4 C         -61.8773  -44.7942  -24.4970 C.ar    1  UNL1        0.0808
      5 C         -62.0624  -44.9636  -23.1104 C.ar    1  UNL1        0.1457
      6 F         -61.8533  -46.1687  -22.5215 F       1  UNL1       -0.2040
      7 C         -62.4936  -43.8941  -22.3196 C.ar    1  UNL1        0.0443
      8 C         -62.7372  -41.4530  -20.6799 C.3     1  UNL1        0.1507
      9 C         -63.7423  -40.6895  -19.7900 C.3     1  UNL1        0.1194
     10 N         -64.3204  -39.5359  -20.4906 N.pl3   1  UNL1       -0.2893
     11 C         -64.8645  -39.7535  -21.8331 C.3     1  UNL1        0.1136
     12 C         -63.7984  -40.3693  -22.7312 C.3     1  UNL1        0.1126
     13 N         -63.1925  -41.5377  -22.0799 N.pl3   1  UNL1       -0.2997
     14 C         -64.5640  -38.2888  -19.8091 C.ar    1  UNL1        0.1318
     15 C         -65.7658  -37.5842  -19.9851 C.ar    1  UNL1        0.0343
     16 C         -65.9657  -36.3820  -19.3050 C.ar    1  UNL1        0.0083
     17 C         -64.9796  -35.8871  -18.4386 C.ar    1  UNL1        0.0906
     18 C         -63.7791  -36.6038  -18.3173 C.ar    1  UNL1        0.1041
     19 N         -63.6064  -37.7717  -18.9906 N.ar    1  UNL1       -0.2292
     20 C         -65.1622  -34.5652  -17.7379 C.3     1  UNL1        0.4200
     21 F         -66.3585  -33.9767  -18.1101 F       1  UNL1       -0.1658
     22 F         -65.1674  -34.7714  -16.3710 F       1  UNL1       -0.1658
     23 F         -64.1337  -33.6964  -18.0593 F       1  UNL1       -0.1658
     24 C         -60.1316  -41.7160  -20.2412 C.3     1  UNL1        0.0741
     25 C         -61.3301  -40.8882  -20.6097 C.2     1  UNL1        0.1706
     26 O         -61.1630  -39.6978  -20.8288 O.2     1  UNL1       -0.2943
     27 C         -61.4113  -45.9193  -25.3432 C.2     1  UNL1        0.2483
     28 O         -60.2488  -46.3809  -25.1785 O.2     1  UNL1       -0.2701
     29 N         -62.2705  -46.4950  -26.3424 N.am    1  UNL1       -0.2945
     30 H         -63.2842  -46.2432  -26.3288 H       1  UNL1        0.1501
     31 C         -61.7739  -47.4569  -27.3354 C.3     1  UNL1        0.1535
     32 C         -60.8464  -46.7850  -28.3241 C.2     1  UNL1        0.2443
     33 O         -59.7092  -47.2799  -28.5532 O.2     1  UNL1       -0.2730
     34 N         -61.2831  -45.6052  -29.0214 N.am    1  UNL1       -0.2825
     35 H         -62.1128  -45.0976  -28.6386 H       1  UNL1        0.1549
     36 C         -60.6329  -45.0371  -30.1735 C.ar    1  UNL1        0.0535
     37 C         -59.2706  -45.2566  -30.4458 C.ar    1  UNL1        0.0353
     38 C         -58.7019  -44.7175  -31.6024 C.ar    1  UNL1        0.1002
     39 N         -59.4629  -43.9932  -32.4641 N.ar    1  UNL1       -0.2422
     40 C         -60.7846  -43.7760  -32.2353 C.ar    1  UNL1        0.1002
     41 C         -61.3933  -44.3002  -31.0927 C.ar    1  UNL1        0.0353
     42 C         -61.0612  -48.6238  -26.6274 C.3     1  UNL1        0.0569
     43 C         -61.9216  -49.2195  -25.5484 C.ar    1  UNL1       -0.0017
     44 C         -63.3123  -49.1976  -25.4995 C.ar    1  UNL1        0.0681
     45 N         -63.7608  -49.9394  -24.4615 N.ar    1  UNL1       -0.3523
     46 C         -62.6665  -50.4388  -23.8616 C.ar    1  UNL1        0.0563
     47 C         -62.6234  -51.2975  -22.7641 C.ar    1  UNL1        0.0170
     48 C         -61.3618  -51.7293  -22.3159 C.ar    1  UNL1        0.0015
     49 C         -60.1853  -51.2987  -22.9676 C.ar    1  UNL1        0.0001
     50 C         -60.2592  -50.4331  -24.0738 C.ar    1  UNL1        0.0012
     51 C         -61.5240  -50.0224  -24.4961 C.ar    1  UNL1        0.0131
     52 H         -64.7572  -50.1088  -24.1989 H       1  UNL1        0.1660
@<TRIPOS>BOND
     1    24    25    1
     2    25    26    2
     3    25     8    1
     4     8     9    1
     5     9    10    1
     6    10    14    1
     7    14    15   ar
     8    15    16   ar
     9    16    17   ar
    10    17    20    1
    11    20    21    1
    12    20    22    1
    13    20    23    1
    14    17    18   ar
    15    18    19   ar
    16    10    11    1
    17    11    12    1
    18    12    13    1
    19    13     1    1
    20     1     2   ar
    21     2     3   ar
    22     3     4   ar
    23     4    27    1
    24    27    28    2
    25    27    29   am
    26    29    31    1
    27    31    42    1
    28    42    43    1
    29    43    44   ar
    30    44    45   ar
    31    45    46   ar
    32    46    47   ar
    33    47    48   ar
    34    48    49   ar
    35    49    50   ar
    36    50    51   ar
    37    31    32    1
    38    32    33    2
    39    32    34   am
    40    34    36    1
    41    36    37   ar
    42    37    38   ar
    43    38    39   ar
    44    39    40   ar
    45    40    41   ar
    46     4     5   ar
    47     5     6    1
    48     5     7   ar
    49    13     8    1
    50     7     1   ar
    51    19    14   ar
    52    51    43   ar
    53    41    36   ar
    54    51    46   ar
    55    29    30    1
    56    45    52    1
    57    34    35    1
@<TRIPOS>MOLECULE
*****
 52 57 0 0 0
SMALL
GASTEIGER

@<TRIPOS>ATOM
      1 C         -62.7409  -42.9002  -22.6575 C.ar    1  UNL1        0.0504
      2 C         -62.7708  -44.1166  -21.9617 C.ar    1  UNL1        0.0148
      3 C         -62.5381  -45.3208  -22.6307 C.ar    1  UNL1        0.0080
      4 C         -62.2665  -45.3320  -24.0106 C.ar    1  UNL1        0.0808
      5 C         -62.2487  -44.1090  -24.7104 C.ar    1  UNL1        0.1457
      6 F         -61.9792  -44.0710  -26.0403 F       1  UNL1       -0.2040
      7 C         -62.4820  -42.9063  -24.0365 C.ar    1  UNL1        0.0443
      8 C         -63.1610  -40.4263  -22.7467 C.3     1  UNL1        0.1507
      9 C         -62.7498  -39.1683  -21.9509 C.3     1  UNL1        0.1194
     10 N         -63.1525  -39.2615  -20.5420 N.pl3   1  UNL1       -0.2893
     11 C         -62.8076  -40.4834  -19.8115 C.3     1  UNL1        0.1136
     12 C         -63.3602  -41.6996  -20.5450 C.3     1  UNL1        0.1126
     13 N         -62.9766  -41.6610  -21.9620 N.pl3   1  UNL1       -0.2997
     14 C         -63.6568  -38.1147  -19.8280 C.ar    1  UNL1        0.1318
     15 C         -64.8331  -38.1899  -19.0651 C.ar    1  UNL1        0.0343
     16 C         -65.2872  -37.0588  -18.3853 C.ar    1  UNL1        0.0083
     17 C         -64.5654  -35.8577  -18.4500 C.ar    1  UNL1        0.0906
     18 C         -63.4139  -35.8149  -19.2511 C.ar    1  UNL1        0.1041
     19 N         -62.9916  -36.9289  -19.9051 N.ar    1  UNL1       -0.2292
     20 C         -65.0722  -34.6160  -17.7619 C.3     1  UNL1        0.4200
     21 F         -65.1376  -34.8090  -16.3928 F       1  UNL1       -0.1658
     22 F         -64.2142  -33.5654  -18.0286 F       1  UNL1       -0.1658
     23 F         -66.3391  -34.2900  -18.2144 F       1  UNL1       -0.1658
     24 C         -64.8828  -40.3252  -24.7656 C.3     1  UNL1        0.0741
     25 C         -64.5742  -40.3490  -23.2954 C.2     1  UNL1        0.1706
     26 O         -65.5062  -40.2676  -22.5094 O.2     1  UNL1       -0.2943
     27 C         -62.0297  -46.6139  -24.7174 C.2     1  UNL1        0.2483
     28 O         -61.0152  -47.3055  -24.4273 O.2     1  UNL1       -0.2701
     29 N         -62.9458  -47.0816  -25.7223 N.am    1  UNL1       -0.2945
     30 H         -63.8735  -46.6085  -25.8058 H       1  UNL1        0.1501
     31 C         -62.6341  -48.2274  -26.5871 C.3     1  UNL1        0.1535
     32 C         -62.9537  -49.5332  -25.8929 C.2     1  UNL1        0.2443
     33 O         -63.6097  -50.4223  -26.5008 O.2     1  UNL1       -0.2730
     34 N         -62.4765  -49.7638  -24.5557 N.am    1  UNL1       -0.2825
     35 H         -62.1540  -48.9338  -24.0084 H       1  UNL1        0.1549
     36 C         -62.4606  -51.0415  -23.8922 C.ar    1  UNL1        0.0535
     37 C         -63.6006  -51.8628  -23.8262 C.ar    1  UNL1        0.0353
     38 C         -63.5163  -53.1128  -23.2083 C.ar    1  UNL1        0.1002
     39 N         -62.3372  -53.5369  -22.6824 N.ar    1  UNL1       -0.2422
     40 C         -61.2158  -52.7720  -22.7431 C.ar    1  UNL1        0.1002
     41 C         -61.2557  -51.5172  -23.3553 C.ar    1  UNL1        0.0353
     42 C         -63.4086  -48.1124  -27.9130 C.3     1  UNL1        0.0569
     43 C         -63.2217  -46.7605  -28.5429 C.ar    1  UNL1       -0.0017
     44 C         -64.2335  -45.8966  -28.9514 C.ar    1  UNL1        0.0681
     45 N         -63.7128  -44.7147  -29.3525 N.ar    1  UNL1       -0.3523
     46 C         -62.3827  -44.8204  -29.1901 C.ar    1  UNL1        0.0563
     47 C         -61.4222  -43.8396  -29.4334 C.ar    1  UNL1        0.0170
     48 C         -60.0783  -44.1530  -29.1602 C.ar    1  UNL1        0.0015
     49 C         -59.7288  -45.4246  -28.6551 C.ar    1  UNL1        0.0001
     50 C         -60.7196  -46.3944  -28.4177 C.ar    1  UNL1        0.0012
     51 C         -62.0436  -46.0547  -28.6972 C.ar    1  UNL1        0.0131
     52 H         -64.2427  -43.8820  -29.6935 H       1  UNL1        0.1660
@<TRIPOS>BOND
     1    24    25    1
     2    25    26    2
     3    25     8    1
     4     8     9    1
     5     9    10    1
     6    10    14    1
     7    14    15   ar
     8    15    16   ar
     9    16    17   ar
    10    17    20    1
    11    20    21    1
    12    20    22    1
    13    20    23    1
    14    17    18   ar
    15    18    19   ar
    16    10    11    1
    17    11    12    1
    18    12    13    1
    19    13     1    1
    20     1     2   ar
    21     2     3   ar
    22     3     4   ar
    23     4    27    1
    24    27    28    2
    25    27    29   am
    26    29    31    1
    27    31    42    1
    28    42    43    1
    29    43    44   ar
    30    44    45   ar
    31    45    46   ar
    32    46    47   ar
    33    47    48   ar
    34    48    49   ar
    35    49    50   ar
    36    50    51   ar
    37    31    32    1
    38    32    33    2
    39    32    34   am
    40    34    36    1
    41    36    37   ar
    42    37    38   ar
    43    38    39   ar
    44    39    40   ar
    45    40    41   ar
    46     4     5   ar
    47     5     6    1
    48     5     7   ar
    49    13     8    1
    50     7     1   ar
    51    19    14   ar
    52    51    43   ar
    53    41    36   ar
    54    51    46   ar
    55    29    30    1
    56    45    52    1
    57    34    35    1
@<TRIPOS>MOLECULE
*****
 52 57 0 0 0
SMALL
GASTEIGER

@<TRIPOS>ATOM
      1 C         -61.6518  -43.7434  -21.5431 C.ar    1  UNL1        0.0504
      2 C         -62.5757  -44.7897  -21.6697 C.ar    1  UNL1        0.0148
      3 C         -62.1528  -46.0652  -22.0523 C.ar    1  UNL1        0.0080
      4 C         -60.7946  -46.3207  -22.3126 C.ar    1  UNL1        0.0808
      5 C         -59.8691  -45.2643  -22.1962 C.ar    1  UNL1        0.1457
      6 F         -58.5468  -45.4678  -22.4262 F       1  UNL1       -0.2040
      7 C         -60.2970  -43.9896  -21.8128 C.ar    1  UNL1        0.0443
      8 C         -61.9479  -41.3108  -22.0909 C.3     1  UNL1        0.1507
      9 C         -61.8217  -39.9530  -21.3661 C.3     1  UNL1        0.1194
     10 N         -62.7105  -39.8755  -20.2000 N.pl3   1  UNL1       -0.2893
     11 C         -62.6855  -40.9867  -19.2459 C.3     1  UNL1        0.1136
     12 C         -62.9649  -42.2983  -19.9699 C.3     1  UNL1        0.1126
     13 N         -62.0922  -42.4315  -21.1434 N.pl3   1  UNL1       -0.2997
     14 C         -63.4103  -38.6590  -19.8690 C.ar    1  UNL1        0.1318
     15 C         -64.6409  -38.6861  -19.1936 C.ar    1  UNL1        0.0343
     16 C         -65.2858  -37.4868  -18.8877 C.ar    1  UNL1        0.0083
     17 C         -64.7018  -36.2605  -19.2384 C.ar    1  UNL1        0.0906
     18 C         -63.4883  -36.2779  -19.9430 C.ar    1  UNL1        0.1041
     19 N         -62.8793  -37.4583  -20.2310 N.ar    1  UNL1       -0.2292
     20 C         -65.4122  -34.9607  -18.9590 C.3     1  UNL1        0.4200
     21 F         -66.7660  -35.0780  -19.2224 F       1  UNL1       -0.1658
     22 F         -65.2392  -34.6241  -17.6294 F       1  UNL1       -0.1658
     23 F         -64.9030  -33.9463  -19.7513 F       1  UNL1       -0.1658
     24 C         -62.9450  -42.0437  -24.4403 C.3     1  UNL1        0.0741
     25 C         -63.0630  -41.3356  -23.1204 C.2     1  UNL1        0.1706
     26 O         -64.0943  -40.7242  -22.8846 O.2     1  UNL1       -0.2943
     27 C         -60.3527  -47.6740  -22.7277 C.2     1  UNL1        0.2483
     28 O         -59.1291  -47.8881  -22.9477 O.2     1  UNL1       -0.2701
     29 N         -61.3002  -48.7459  -22.8742 N.am    1  UNL1       -0.2945
     30 H         -62.2647  -48.6096  -22.4969 H       1  UNL1        0.1501
     31 C         -60.9339  -50.0302  -23.4858 C.3     1  UNL1        0.1535
     32 C         -61.8049  -51.1495  -22.9587 C.2     1  UNL1        0.2443
     33 O         -61.8521  -51.3766  -21.7190 O.2     1  UNL1       -0.2730
     34 N         -62.5997  -51.9242  -23.8737 N.am    1  UNL1       -0.2825
     35 H         -62.3572  -51.8700  -24.8889 H       1  UNL1        0.1549
     36 C         -63.6678  -52.8119  -23.4944 C.ar    1  UNL1        0.0535
     37 C         -64.9487  -52.7272  -24.0693 C.ar    1  UNL1        0.0353
     38 C         -65.9352  -53.6432  -23.6960 C.ar    1  UNL1        0.1002
     39 N         -65.6560  -54.6164  -22.7896 N.ar    1  UNL1       -0.2422
     40 C         -64.4243  -54.7322  -22.2276 C.ar    1  UNL1        0.1002
     41 C         -63.4084  -53.8391  -22.5757 C.ar    1  UNL1        0.0353
     42 C         -61.0416  -49.9331  -25.0188 C.3     1  UNL1        0.0569
     43 C         -62.0347  -48.8841  -25.4344 C.ar    1  UNL1       -0.0017
     44 C         -63.4205  -48.9878  -25.3590 C.ar    1  UNL1        0.0681
     45 N         -64.0015  -47.8128  -25.6915 N.ar    1  UNL1       -0.3523
     46 C         -62.9949  -46.9650  -25.9651 C.ar    1  UNL1        0.0563
     47 C         -63.0967  -45.6204  -26.3192 C.ar    1  UNL1        0.0170
     48 C         -61.9047  -44.9033  -26.5286 C.ar    1  UNL1        0.0015
     49 C         -60.6523  -45.5388  -26.3806 C.ar    1  UNL1        0.0001
     50 C         -60.5799  -46.8966  -26.0209 C.ar    1  UNL1        0.0012
     51 C         -61.7785  -47.5817  -25.8188 C.ar    1  UNL1        0.0131
     52 H         -65.0244  -47.6035  -25.7059 H       1  UNL1        0.1660
@<TRIPOS>BOND
     1    24    25    1
     2    25    26    2
     3    25     8    1
     4     8     9    1
     5     9    10    1
     6    10    14    1
     7    14    15   ar
     8    15    16   ar
     9    16    17   ar
    10    17    20    1
    11    20    21    1
    12    20    22    1
    13    20    23    1
    14    17    18   ar
    15    18    19   ar
    16    10    11    1
    17    11    12    1
    18    12    13    1
    19    13     1    1
    20     1     2   ar
    21     2     3   ar
    22     3     4   ar
    23     4    27    1
    24    27    28    2
    25    27    29   am
    26    29    31    1
    27    31    42    1
    28    42    43    1
    29    43    44   ar
    30    44    45   ar
    31    45    46   ar
    32    46    47   ar
    33    47    48   ar
    34    48    49   ar
    35    49    50   ar
    36    50    51   ar
    37    31    32    1
    38    32    33    2
    39    32    34   am
    40    34    36    1
    41    36    37   ar
    42    37    38   ar
    43    38    39   ar
    44    39    40   ar
    45    40    41   ar
    46     4     5   ar
    47     5     6    1
    48     5     7   ar
    49    13     8    1
    50     7     1   ar
    51    19    14   ar
    52    51    43   ar
    53    41    36   ar
    54    51    46   ar
    55    29    30    1
    56    45    52    1
    57    34    35    1
@<TRIPOS>MOLECULE
*****
 52 57 0 0 0
SMALL
GASTEIGER

@<TRIPOS>ATOM
      1 C         -62.9754  -49.4976  -24.8139 C.ar    1  UNL1        0.0504
      2 C         -64.2006  -50.1268  -25.0737 C.ar    1  UNL1        0.0148
      3 C         -64.5164  -51.3419  -24.4607 C.ar    1  UNL1        0.0080
      4 C         -63.6132  -51.9508  -23.5713 C.ar    1  UNL1        0.0808
      5 C         -62.3770  -51.3224  -23.3207 C.ar    1  UNL1        0.1457
      6 F         -61.4797  -51.8678  -22.4604 F       1  UNL1       -0.2040
      7 C         -62.0654  -50.1063  -23.9363 C.ar    1  UNL1        0.0443
      8 C         -62.1436  -48.2484  -26.8271 C.3     1  UNL1        0.1507
      9 C         -61.2627  -47.0148  -27.1225 C.3     1  UNL1        0.1194
     10 N         -61.8029  -45.8002  -26.4991 N.pl3   1  UNL1       -0.2893
     11 C         -62.1645  -45.8622  -25.0810 C.3     1  UNL1        0.1136
     12 C         -63.1548  -46.9967  -24.8474 C.3     1  UNL1        0.1126
     13 N         -62.6567  -48.2424  -25.4447 N.pl3   1  UNL1       -0.2997
     14 C         -61.7645  -44.5279  -27.1766 C.ar    1  UNL1        0.1318
     15 C         -62.4851  -43.4232  -26.6952 C.ar    1  UNL1        0.0343
     16 C         -62.4195  -42.2073  -27.3771 C.ar    1  UNL1        0.0083
     17 C         -61.6265  -42.0837  -28.5277 C.ar    1  UNL1        0.0906
     18 C         -60.9495  -43.2206  -28.9953 C.ar    1  UNL1        0.1041
     19 N         -61.0294  -44.3946  -28.3152 N.ar    1  UNL1       -0.2292
     20 C         -61.5873  -40.7907  -29.3015 C.3     1  UNL1        0.4200
     21 F         -60.4910  -40.0322  -28.9290 F       1  UNL1       -0.1658
     22 F         -61.5034  -41.0710  -30.6525 F       1  UNL1       -0.1658
     23 F         -62.7298  -40.0459  -29.0651 F       1  UNL1       -0.1658
     24 C         -63.7869  -47.3034  -28.6865 C.3     1  UNL1        0.0741
     25 C         -63.2810  -48.4198  -27.8176 C.2     1  UNL1        0.1706
     26 O         -63.8374  -49.5051  -27.8914 O.2     1  UNL1       -0.2943
     27 C         -63.9496  -53.2453  -22.9308 C.2     1  UNL1        0.2483
     28 O         -63.0218  -53.9992  -22.5278 O.2     1  UNL1       -0.2701
     29 N         -65.3193  -53.6473  -22.7566 N.am    1  UNL1       -0.2945
     30 H         -66.0678  -52.9341  -22.9063 H       1  UNL1        0.1501
     31 C         -65.6837  -55.0039  -22.3270 C.3     1  UNL1        0.1535
     32 C         -66.6126  -54.9633  -21.1333 C.2     1  UNL1        0.2443
     33 O         -66.9978  -53.8529  -20.6761 O.2     1  UNL1       -0.2730
     34 N         -67.0767  -56.1937  -20.5505 N.am    1  UNL1       -0.2825
     35 H         -66.5596  -57.0686  -20.7944 H       1  UNL1        0.1549
     36 C         -68.1638  -56.3064  -19.6133 C.ar    1  UNL1        0.0535
     37 C         -68.1832  -55.5906  -18.4027 C.ar    1  UNL1        0.0353
     38 C         -69.2848  -55.7038  -17.5510 C.ar    1  UNL1        0.1002
     39 N         -70.3357  -56.4937  -17.8946 N.ar    1  UNL1       -0.2422
     40 C         -70.3521  -57.1862  -19.0636 C.ar    1  UNL1        0.1002
     41 C         -69.2724  -57.0983  -19.9454 C.ar    1  UNL1        0.0353
     42 C         -66.3321  -55.7696  -23.4950 C.3     1  UNL1        0.0569
     43 C         -67.6183  -55.1239  -23.9286 C.ar    1  UNL1       -0.0017
     44 C         -68.3923  -54.2457  -23.1758 C.ar    1  UNL1        0.0681
     45 N         -69.4096  -53.7551  -23.9196 N.ar    1  UNL1       -0.3523
     46 C         -69.2782  -54.3065  -25.1384 C.ar    1  UNL1        0.0563
     47 C         -70.0730  -54.0740  -26.2600 C.ar    1  UNL1        0.0170
     48 C         -69.7343  -54.7352  -27.4546 C.ar    1  UNL1        0.0015
     49 C         -68.6214  -55.6034  -27.5010 C.ar    1  UNL1        0.0001
     50 C         -67.8363  -55.8178  -26.3538 C.ar    1  UNL1        0.0012
     51 C         -68.1958  -55.1478  -25.1839 C.ar    1  UNL1        0.0131
     52 H         -70.1328  -53.0671  -23.6129 H       1  UNL1        0.1660
@<TRIPOS>BOND
     1    24    25    1
     2    25    26    2
     3    25     8    1
     4     8     9    1
     5     9    10    1
     6    10    14    1
     7    14    15   ar
     8    15    16   ar
     9    16    17   ar
    10    17    20    1
    11    20    21    1
    12    20    22    1
    13    20    23    1
    14    17    18   ar
    15    18    19   ar
    16    10    11    1
    17    11    12    1
    18    12    13    1
    19    13     1    1
    20     1     2   ar
    21     2     3   ar
    22     3     4   ar
    23     4    27    1
    24    27    28    2
    25    27    29   am
    26    29    31    1
    27    31    42    1
    28    42    43    1
    29    43    44   ar
    30    44    45   ar
    31    45    46   ar
    32    46    47   ar
    33    47    48   ar
    34    48    49   ar
    35    49    50   ar
    36    50    51   ar
    37    31    32    1
    38    32    33    2
    39    32    34   am
    40    34    36    1
    41    36    37   ar
    42    37    38   ar
    43    38    39   ar
    44    39    40   ar
    45    40    41   ar
    46     4     5   ar
    47     5     6    1
    48     5     7   ar
    49    13     8    1
    50     7     1   ar
    51    19    14   ar
    52    51    43   ar
    53    41    36   ar
    54    51    46   ar
    55    29    30    1
    56    45    52    1
    57    34    35    1
@<TRIPOS>MOLECULE
*****
 52 57 0 0 0
SMALL
GASTEIGER

@<TRIPOS>ATOM
      1 C         -62.9975  -42.8106  -22.4826 C.ar    1  UNL1        0.0504
      2 C         -62.8991  -44.0533  -21.8419 C.ar    1  UNL1        0.0148
      3 C         -62.5041  -45.1881  -22.5548 C.ar    1  UNL1        0.0080
      4 C         -62.1955  -45.1015  -23.9242 C.ar    1  UNL1        0.0808
      5 C         -62.3066  -43.8535  -24.5690 C.ar    1  UNL1        0.1457
      6 F         -62.0074  -43.7207  -25.8864 F       1  UNL1       -0.2040
      7 C         -62.7021  -42.7205  -23.8513 C.ar    1  UNL1        0.0443
      8 C         -62.8504  -41.4300  -20.3905 C.3     1  UNL1        0.1507
      9 C         -63.7993  -40.5933  -19.5048 C.3     1  UNL1        0.1194
     10 N         -64.4366  -39.5102  -20.2642 N.pl3   1  UNL1       -0.2893
     11 C         -65.0699  -39.8505  -21.5404 C.3     1  UNL1        0.1136
     12 C         -64.0621  -40.5405  -22.4518 C.3     1  UNL1        0.1126
     13 N         -63.4004  -41.6427  -21.7420 N.pl3   1  UNL1       -0.2997
     14 C         -64.6454  -38.2075  -19.6823 C.ar    1  UNL1        0.1318
     15 C         -63.6940  -37.6301  -18.8262 C.ar    1  UNL1        0.0343
     16 C         -63.9309  -36.3655  -18.2855 C.ar    1  UNL1        0.0083
     17 C         -65.1046  -35.6676  -18.6068 C.ar    1  UNL1        0.0906
     18 C         -66.0456  -36.2942  -19.4384 C.ar    1  UNL1        0.1041
     19 N         -65.7937  -37.5269  -19.9522 N.ar    1  UNL1       -0.2292
     20 C         -65.3955  -34.3235  -17.9897 C.3     1  UNL1        0.4200
     21 F         -66.6956  -33.9332  -18.2605 F       1  UNL1       -0.1658
     22 F         -65.2252  -34.4049  -16.6203 F       1  UNL1       -0.1658
     23 F         -64.5399  -33.3596  -18.4944 F       1  UNL1       -0.1658
     24 C         -60.2126  -41.6664  -20.1975 C.3     1  UNL1        0.0741
     25 C         -61.4477  -40.8553  -20.4698 C.2     1  UNL1        0.1706
     26 O         -61.3122  -39.6700  -20.7335 O.2     1  UNL1       -0.2943
     27 C         -61.7860  -46.3111  -24.6780 C.2     1  UNL1        0.2483
     28 O         -60.6602  -46.8333  -24.4512 O.2     1  UNL1       -0.2701
     29 N         -62.6591  -46.8998  -25.6573 N.am    1  UNL1       -0.2945
     30 H         -63.6542  -46.5834  -25.6879 H       1  UNL1        0.1501
     31 C         -62.2052  -47.9593  -26.5680 C.3     1  UNL1        0.1535
     32 C         -62.3407  -49.3220  -25.9245 C.2     1  UNL1        0.2443
     33 O         -62.8218  -50.2824  -26.5854 O.2     1  UNL1       -0.2730
     34 N         -61.8873  -49.5196  -24.5739 N.am    1  UNL1       -0.2825
     35 H         -61.7233  -48.6682  -23.9903 H       1  UNL1        0.1549
     36 C         -61.6951  -50.8005  -23.9452 C.ar    1  UNL1        0.0535
     37 C         -60.4154  -51.2972  -23.6385 C.ar    1  UNL1        0.0353
     38 C         -60.2896  -52.5269  -22.9877 C.ar    1  UNL1        0.1002
     39 N         -61.3976  -53.2347  -22.6444 N.ar    1  UNL1       -0.2422
     40 C         -62.6471  -52.7744  -22.9146 C.ar    1  UNL1        0.1002
     41 C         -62.8176  -51.5479  -23.5608 C.ar    1  UNL1        0.0353
     42 C         -63.0007  -47.8980  -27.8849 C.3     1  UNL1        0.0569
     43 C         -63.1116  -46.4884  -28.3947 C.ar    1  UNL1       -0.0017
     44 C         -64.2871  -45.7587  -28.5462 C.ar    1  UNL1        0.0681
     45 N         -64.0098  -44.4838  -28.9017 N.ar    1  UNL1       -0.3523
     46 C         -62.6698  -44.3987  -28.9648 C.ar    1  UNL1        0.0563
     47 C         -61.9088  -43.2675  -29.2560 C.ar    1  UNL1        0.0170
     48 C         -60.5079  -43.3935  -29.2337 C.ar    1  UNL1        0.0015
     49 C         -59.9061  -44.6330  -28.9237 C.ar    1  UNL1        0.0001
     50 C         -60.6992  -45.7575  -28.6324 C.ar    1  UNL1        0.0012
     51 C         -62.0855  -45.6019  -28.6613 C.ar    1  UNL1        0.0131
     52 H         -64.6993  -43.7171  -29.0668 H       1  UNL1        0.1660
@<TRIPOS>BOND
     1    24    25    1
     2    25    26    2
     3    25     8    1
     4     8     9    1
     5     9    10    1
     6    10    14    1
     7    14    15   ar
     8    15    16   ar
     9    16    17   ar
    10    17    20    1
    11    20    21    1
    12    20    22    1
    13    20    23    1
    14    17    18   ar
    15    18    19   ar
    16    10    11    1
    17    11    12    1
    18    12    13    1
    19    13     1    1
    20     1     2   ar
    21     2     3   ar
    22     3     4   ar
    23     4    27    1
    24    27    28    2
    25    27    29   am
    26    29    31    1
    27    31    42    1
    28    42    43    1
    29    43    44   ar
    30    44    45   ar
    31    45    46   ar
    32    46    47   ar
    33    47    48   ar
    34    48    49   ar
    35    49    50   ar
    36    50    51   ar
    37    31    32    1
    38    32    33    2
    39    32    34   am
    40    34    36    1
    41    36    37   ar
    42    37    38   ar
    43    38    39   ar
    44    39    40   ar
    45    40    41   ar
    46     4     5   ar
    47     5     6    1
    48     5     7   ar
    49    13     8    1
    50     7     1   ar
    51    19    14   ar
    52    51    43   ar
    53    41    36   ar
    54    51    46   ar
    55    29    30    1
    56    45    52    1
    57    34    35    1
@<TRIPOS>MOLECULE
*****
 52 57 0 0 0
SMALL
GASTEIGER

@<TRIPOS>ATOM
      1 C         -62.8866  -42.7974  -22.6988 C.ar    1  UNL1        0.0504
      2 C         -62.7453  -44.0460  -22.0780 C.ar    1  UNL1        0.0148
      3 C         -62.3244  -45.1580  -22.8117 C.ar    1  UNL1        0.0080
      4 C         -62.0321  -45.0420  -24.1825 C.ar    1  UNL1        0.0808
      5 C         -62.1862  -43.7883  -24.8072 C.ar    1  UNL1        0.1457
      6 F         -61.9042  -43.6272  -26.1253 F       1  UNL1       -0.2040
      7 C         -62.6076  -42.6782  -24.0688 C.ar    1  UNL1        0.0443
      8 C         -62.8162  -41.4842  -20.5598 C.3     1  UNL1        0.1507
      9 C         -63.7969  -40.6746  -19.6835 C.3     1  UNL1        0.1194
     10 N         -64.4053  -39.5669  -20.4311 N.pl3   1  UNL1       -0.2893
     11 C         -64.9912  -39.8655  -21.7399 C.3     1  UNL1        0.1136
     12 C         -63.9507  -40.5278  -22.6350 C.3     1  UNL1        0.1126
     13 N         -63.3161  -41.6530  -21.9367 N.pl3   1  UNL1       -0.2997
     14 C         -64.6351  -38.2831  -19.8161 C.ar    1  UNL1        0.1318
     15 C         -63.6689  -37.6868  -18.9899 C.ar    1  UNL1        0.0343
     16 C         -63.9270  -36.4413  -18.4157 C.ar    1  UNL1        0.0083
     17 C         -65.1374  -35.7808  -18.6739 C.ar    1  UNL1        0.0906
     18 C         -66.0903  -36.4262  -19.4769 C.ar    1  UNL1        0.1041
     19 N         -65.8172  -37.6398  -20.0243 N.ar    1  UNL1       -0.2292
     20 C         -65.4490  -34.4591  -18.0195 C.3     1  UNL1        0.4200
     21 F         -65.3928  -34.5718  -16.6411 F       1  UNL1       -0.1658
     22 F         -64.5252  -33.5175  -18.4328 F       1  UNL1       -0.1658
     23 F         -66.7179  -34.0295  -18.3676 F       1  UNL1       -0.1658
     24 C         -60.1864  -41.7336  -20.2906 C.3     1  UNL1        0.0741
     25 C         -61.4113  -40.9095  -20.5690 C.2     1  UNL1        0.1706
     26 O         -61.2667  -39.7144  -20.7782 O.2     1  UNL1       -0.2943
     27 C         -61.5949  -46.2276  -24.9584 C.2     1  UNL1        0.2483
     28 O         -60.4305  -46.6840  -24.7928 O.2     1  UNL1       -0.2701
     29 N         -62.4839  -46.8674  -25.8902 N.am    1  UNL1       -0.2945
     30 H         -63.4957  -46.6086  -25.8672 H       1  UNL1        0.1501
     31 C         -62.0194  -47.9009  -26.8250 C.3     1  UNL1        0.1535
     32 C         -61.6605  -49.1742  -26.0906 C.2     1  UNL1        0.2443
     33 O         -60.6651  -49.8533  -26.4627 O.2     1  UNL1       -0.2730
     34 N         -62.4379  -49.5819  -24.9511 N.am    1  UNL1       -0.2825
     35 H         -63.3756  -49.1384  -24.8229 H       1  UNL1        0.1549
     36 C         -62.0488  -50.5940  -24.0040 C.ar    1  UNL1        0.0535
     37 C         -62.8524  -51.7178  -23.7398 C.ar    1  UNL1        0.0353
     38 C         -62.4048  -52.6917  -22.8439 C.ar    1  UNL1        0.1002
     39 N         -61.1957  -52.5587  -22.2382 N.ar    1  UNL1       -0.2422
     40 C         -60.3911  -51.4916  -22.4838 C.ar    1  UNL1        0.1002
     41 C         -60.7991  -50.4969  -23.3755 C.ar    1  UNL1        0.0353
     42 C         -63.0991  -48.1724  -27.8887 C.3     1  UNL1        0.0569
     43 C         -63.4872  -46.9129  -28.6114 C.ar    1  UNL1       -0.0017
     44 C         -63.0581  -45.6244  -28.3070 C.ar    1  UNL1        0.0681
     45 N         -63.4957  -44.7476  -29.2389 N.ar    1  UNL1       -0.3523
     46 C         -64.1874  -45.4723  -30.1351 C.ar    1  UNL1        0.0563
     47 C         -64.7990  -45.0127  -31.3006 C.ar    1  UNL1        0.0170
     48 C         -65.4456  -45.9557  -32.1200 C.ar    1  UNL1        0.0015
     49 C         -65.4656  -47.3214  -31.7606 C.ar    1  UNL1        0.0001
     50 C         -64.8385  -47.7568  -30.5792 C.ar    1  UNL1        0.0012
     51 C         -64.2046  -46.7990  -29.7872 C.ar    1  UNL1        0.0131
     52 H         -63.3093  -43.7206  -29.2669 H       1  UNL1        0.1660
@<TRIPOS>BOND
     1    24    25    1
     2    25    26    2
     3    25     8    1
     4     8     9    1
     5     9    10    1
     6    10    14    1
     7    14    15   ar
     8    15    16   ar
     9    16    17   ar
    10    17    20    1
    11    20    21    1
    12    20    22    1
    13    20    23    1
    14    17    18   ar
    15    18    19   ar
    16    10    11    1
    17    11    12    1
    18    12    13    1
    19    13     1    1
    20     1     2   ar
    21     2     3   ar
    22     3     4   ar
    23     4    27    1
    24    27    28    2
    25    27    29   am
    26    29    31    1
    27    31    42    1
    28    42    43    1
    29    43    44   ar
    30    44    45   ar
    31    45    46   ar
    32    46    47   ar
    33    47    48   ar
    34    48    49   ar
    35    49    50   ar
    36    50    51   ar
    37    31    32    1
    38    32    33    2
    39    32    34   am
    40    34    36    1
    41    36    37   ar
    42    37    38   ar
    43    38    39   ar
    44    39    40   ar
    45    40    41   ar
    46     4     5   ar
    47     5     6    1
    48     5     7   ar
    49    13     8    1
    50     7     1   ar
    51    19    14   ar
    52    51    43   ar
    53    41    36   ar
    54    51    46   ar
    55    29    30    1
    56    45    52    1
    57    34    35    1
@<TRIPOS>MOLECULE
*****
 52 57 0 0 0
SMALL
GASTEIGER

@<TRIPOS>ATOM
      1 C         -62.7866  -43.0364  -23.0088 C.ar    1  UNL1        0.0504
      2 C         -62.7637  -42.8890  -24.4024 C.ar    1  UNL1        0.0148
      3 C         -62.4532  -43.9753  -25.2243 C.ar    1  UNL1        0.0080
      4 C         -62.1627  -45.2338  -24.6677 C.ar    1  UNL1        0.0808
      5 C         -62.1747  -45.3768  -23.2659 C.ar    1  UNL1        0.1457
      6 F         -61.9122  -46.5755  -22.6854 F       1  UNL1       -0.2040
      7 C         -62.4862  -44.2868  -22.4474 C.ar    1  UNL1        0.0443
      8 C         -62.5355  -41.8490  -20.8106 C.3     1  UNL1        0.1507
      9 C         -63.4240  -41.0376  -19.8425 C.3     1  UNL1        0.1194
     10 N         -64.0054  -39.8593  -20.4978 N.pl3   1  UNL1       -0.2893
     11 C         -64.6718  -40.0532  -21.7877 C.3     1  UNL1        0.1136
     12 C         -63.7164  -40.7200  -22.7700 C.3     1  UNL1        0.1126
     13 N         -63.1123  -41.9145  -22.1662 N.pl3   1  UNL1       -0.2997
     14 C         -64.1313  -38.6009  -19.8051 C.ar    1  UNL1        0.1318
     15 C         -65.1470  -38.3874  -18.8594 C.ar    1  UNL1        0.0343
     16 C         -65.2337  -37.1566  -18.2071 C.ar    1  UNL1        0.0083
     17 C         -64.3032  -36.1435  -18.4822 C.ar    1  UNL1        0.0906
     18 C         -63.3249  -36.3849  -19.4589 C.ar    1  UNL1        0.1041
     19 N         -63.2607  -37.5910  -20.0820 N.ar    1  UNL1       -0.2292
     20 C         -64.4165  -34.7931  -17.8221 C.3     1  UNL1        0.4200
     21 F         -64.6461  -34.9315  -16.4641 F       1  UNL1       -0.1658
     22 F         -63.2393  -34.0937  -18.0113 F       1  UNL1       -0.1658
     23 F         -65.4636  -34.0701  -18.3670 F       1  UNL1       -0.1658
     24 C         -59.9169  -42.2708  -20.9364 C.3     1  UNL1        0.0741
     25 C         -61.1027  -41.3510  -20.8640 C.2     1  UNL1        0.1706
     26 O         -60.8964  -40.1478  -20.8114 O.2     1  UNL1       -0.2943
     27 C         -61.8244  -46.3809  -25.5444 C.2     1  UNL1        0.2483
     28 O         -60.8774  -47.1503  -25.2237 O.2     1  UNL1       -0.2701
     29 N         -62.5673  -46.6313  -26.7500 N.am    1  UNL1       -0.2945
     30 H         -63.4645  -46.1162  -26.8951 H       1  UNL1        0.1501
     31 C         -62.1280  -47.6197  -27.7439 C.3     1  UNL1        0.1535
     32 C         -63.3080  -48.1873  -28.5020 C.2     1  UNL1        0.2443
     33 O         -64.0887  -48.9973  -27.9320 O.2     1  UNL1       -0.2730
     34 N         -63.5500  -47.7712  -29.8575 N.am    1  UNL1       -0.2825
     35 H         -62.7673  -47.2993  -30.3645 H       1  UNL1        0.1549
     36 C         -64.7680  -48.0038  -30.5890 C.ar    1  UNL1        0.0535
     37 C         -65.1530  -47.1961  -31.6742 C.ar    1  UNL1        0.0353
     38 C         -66.3231  -47.4948  -32.3765 C.ar    1  UNL1        0.1002
     39 N         -67.0801  -48.5651  -32.0191 N.ar    1  UNL1       -0.2422
     40 C         -66.7268  -49.3719  -30.9843 C.ar    1  UNL1        0.1002
     41 C         -65.5626  -49.1108  -30.2581 C.ar    1  UNL1        0.0353
     42 C         -61.1166  -46.9791  -28.7121 C.3     1  UNL1        0.0569
     43 C         -61.0776  -45.4846  -28.5562 C.ar    1  UNL1       -0.0017
     44 C         -60.0405  -44.7426  -27.9986 C.ar    1  UNL1        0.0681
     45 N         -60.2783  -43.4187  -28.1377 N.ar    1  UNL1       -0.3523
     46 C         -61.4503  -43.3180  -28.7882 C.ar    1  UNL1        0.0563
     47 C         -62.0924  -42.1490  -29.1943 C.ar    1  UNL1        0.0170
     48 C         -63.3038  -42.2746  -29.8982 C.ar    1  UNL1        0.0015
     49 C         -63.8397  -43.5509  -30.1778 C.ar    1  UNL1        0.0001
     50 C         -63.1690  -44.7135  -29.7570 C.ar    1  UNL1        0.0012
     51 C         -61.9694  -44.5578  -29.0618 C.ar    1  UNL1        0.0131
     52 H         -59.6609  -42.6367  -27.8251 H       1  UNL1        0.1660
@<TRIPOS>BOND
     1    24    25    1
     2    25    26    2
     3    25     8    1
     4     8     9    1
     5     9    10    1
     6    10    14    1
     7    14    15   ar
     8    15    16   ar
     9    16    17   ar
    10    17    20    1
    11    20    21    1
    12    20    22    1
    13    20    23    1
    14    17    18   ar
    15    18    19   ar
    16    10    11    1
    17    11    12    1
    18    12    13    1
    19    13     1    1
    20     1     2   ar
    21     2     3   ar
    22     3     4   ar
    23     4    27    1
    24    27    28    2
    25    27    29   am
    26    29    31    1
    27    31    42    1
    28    42    43    1
    29    43    44   ar
    30    44    45   ar
    31    45    46   ar
    32    46    47   ar
    33    47    48   ar
    34    48    49   ar
    35    49    50   ar
    36    50    51   ar
    37    31    32    1
    38    32    33    2
    39    32    34   am
    40    34    36    1
    41    36    37   ar
    42    37    38   ar
    43    38    39   ar
    44    39    40   ar
    45    40    41   ar
    46     4     5   ar
    47     5     6    1
    48     5     7   ar
    49    13     8    1
    50     7     1   ar
    51    19    14   ar
    52    51    43   ar
    53    41    36   ar
    54    51    46   ar
    55    29    30    1
    56    45    52    1
    57    34    35    1
