@<TRIPOS>MOLECULE
*****
 48 53 0 0 0
SMALL
GASTEIGER

@<TRIPOS>ATOM
      1 C          60.0604   88.3379    8.5274 C.2     1  UNL1        0.2839
      2 O          61.1278   88.9765    8.7313 O.2     1  UNL1       -0.2665
      3 N          59.1534   88.7549    7.4939 N.am    1  UNL1       -0.2766
      4 H          58.1657   88.4160    7.5426 H       1  UNL1        0.1553
      5 C          60.8738   85.2775    8.0367 C.3     1  UNL1        0.0345
      6 C          60.0761   85.8466    9.1716 C.ar    1  UNL1        0.0202
      7 C          59.7190   87.1818    9.3775 C.ar    1  UNL1        0.1946
      8 O          58.9966   87.2902   10.4770 O.2     1  UNL1       -0.4490
      9 C          58.8656   86.0954   11.0031 C.ar    1  UNL1        0.1514
     10 C          58.1686   85.7405   12.1647 C.ar    1  UNL1        0.1099
     11 C          58.1308   84.3682   12.5008 C.ar    1  UNL1        0.0095
     12 C          58.7941   83.3966   11.7058 C.ar    1  UNL1        0.0004
     13 C          59.4960   83.8063   10.5503 C.ar    1  UNL1        0.0028
     14 C          59.5079   85.1627   10.2297 C.ar    1  UNL1        0.0339
     15 C          58.7497   81.9612   12.0835 C.ar    1  UNL1        0.0000
     16 C          59.1577   81.5456   13.3653 C.ar    1  UNL1        0.0000
     17 C          59.1148   80.1935   13.7185 C.ar    1  UNL1        0.0000
     18 C          58.6644   79.2430   12.7997 C.ar    1  UNL1        0.0000
     19 C          58.2559   79.6427   11.5253 C.ar    1  UNL1        0.0000
     20 C          58.2975   80.9934   11.1664 C.ar    1  UNL1        0.0000
     21 C          57.4657   86.7402   13.0016 C.2     1  UNL1        0.3410
     22 O          58.0965   87.3497   13.9058 O.2     1  UNL1       -0.2450
     23 O          56.1208   87.0477   12.8028 O.3     1  UNL1       -0.4770
     24 H          55.5932   86.6899   12.0173 H       1  UNL1        0.2954
     25 C          59.4876   89.6997    6.4627 C.ar    1  UNL1        0.0702
     26 C          58.4658   90.3746    5.7839 C.ar    1  UNL1        0.0191
     27 C          58.7745   91.2770    4.7652 C.ar    1  UNL1        0.0356
     28 C          60.1159   91.4964    4.4190 C.ar    1  UNL1        0.1318
     29 N          61.0926   90.8009    5.0654 N.ar    1  UNL1       -0.2279
     30 C          60.8159   89.9198    6.0629 C.ar    1  UNL1        0.1149
     31 N          60.4657   92.4107    3.3634 N.pl3   1  UNL1       -0.2932
     32 C          61.8805   92.6534    3.0537 C.3     1  UNL1        0.0923
     33 C          62.0666   92.8624    1.5467 C.3     1  UNL1        0.0252
     34 C          61.1045   93.9440    1.0176 C.3     1  UNL1        0.0472
     35 C          59.6488   93.5722    1.3555 C.3     1  UNL1        0.0252
     36 C          59.4800   93.3801    2.8645 C.3     1  UNL1        0.0923
     37 C          61.3153   94.1932   -0.4897 C.3     1  UNL1        0.2054
     38 O          60.4944   93.3443   -1.2978 O.3     1  UNL1       -0.4755
     39 C          59.1040   93.4423   -1.4780 C.ar    1  UNL1        0.1388
     40 C          58.5444   94.7234   -1.5301 C.ar    1  UNL1        0.0369
     41 C          57.1713   94.8925   -1.7124 C.ar    1  UNL1        0.0033
     42 C          56.3386   93.7801   -1.8425 C.ar    1  UNL1        0.0066
     43 C          56.8741   92.4816   -1.7876 C.ar    1  UNL1        0.0785
     44 C          58.2591   92.3195   -1.5996 C.ar    1  UNL1        0.0433
     45 C          55.9949   91.2990   -1.9269 C.2     1  UNL1        0.3381
     46 O          54.7409   91.4313   -1.9220 O.2     1  UNL1       -0.2451
     47 O          56.5446   90.0270   -2.0667 O.3     1  UNL1       -0.4771
     48 H          55.9516   89.2115   -2.1635 H       1  UNL1        0.2954
@<TRIPOS>BOND
     1     5     6    1
     2     6     7   ar
     3     7     1    1
     4     1     2    2
     5     1     3   am
     6     3    25    1
     7    25    26   ar
     8    26    27   ar
     9    27    28   ar
    10    28    31    1
    11    31    32    1
    12    32    33    1
    13    33    34    1
    14    34    37    1
    15    37    38    1
    16    38    39    1
    17    39    40   ar
    18    40    41   ar
    19    41    42   ar
    20    42    43   ar
    21    43    45    1
    22    45    46    2
    23    45    47    1
    24    43    44   ar
    25    34    35    1
    26    35    36    1
    27    28    29   ar
    28    29    30   ar
    29     7     8   ar
    30     8     9   ar
    31     9    10   ar
    32    10    21    1
    33    21    22    2
    34    21    23    1
    35    10    11   ar
    36    11    12   ar
    37    12    15    1
    38    15    16   ar
    39    16    17   ar
    40    17    18   ar
    41    18    19   ar
    42    19    20   ar
    43    12    13   ar
    44    13    14   ar
    45    14     6   ar
    46    30    25   ar
    47    14     9   ar
    48    36    31    1
    49    20    15   ar
    50    44    39   ar
    51     3     4    1
    52    47    48    1
    53    23    24    1
@<TRIPOS>MOLECULE
*****
 48 53 0 0 0
SMALL
GASTEIGER

@<TRIPOS>ATOM
      1 C          60.9408   90.5713    6.7218 C.2     1  UNL1        0.2839
      2 O          61.9652   90.9208    7.3679 O.2     1  UNL1       -0.2665
      3 N          60.0355   89.5996    7.2703 N.am    1  UNL1       -0.2766
      4 H          59.3857   89.1098    6.6141 H       1  UNL1        0.1553
      5 C          58.0899   91.1069    5.3606 C.3     1  UNL1        0.0345
      6 C          59.4484   91.3713    4.7842 C.ar    1  UNL1        0.0202
      7 C          60.6892   91.1301    5.3801 C.ar    1  UNL1        0.1946
      8 O          61.6597   91.4734    4.5540 O.2     1  UNL1       -0.4490
      9 C          61.1183   91.9302    3.4496 C.ar    1  UNL1        0.1514
     10 C          61.7715   92.3936    2.3009 C.ar    1  UNL1        0.1099
     11 C          60.9610   92.7901    1.2131 C.ar    1  UNL1        0.0095
     12 C          59.5442   92.7430    1.2945 C.ar    1  UNL1        0.0004
     13 C          58.9318   92.2806    2.4806 C.ar    1  UNL1        0.0028
     14 C          59.7505   91.8810    3.5355 C.ar    1  UNL1        0.0339
     15 C          58.7120   93.1742    0.1428 C.ar    1  UNL1        0.0000
     16 C          57.8179   92.2758   -0.4701 C.ar    1  UNL1        0.0000
     17 C          57.0354   92.6845   -1.5543 C.ar    1  UNL1        0.0000
     18 C          57.1348   93.9911   -2.0376 C.ar    1  UNL1        0.0000
     19 C          58.0173   94.8920   -1.4376 C.ar    1  UNL1        0.0000
     20 C          58.8029   94.4886   -0.3536 C.ar    1  UNL1        0.0000
     21 C          63.2482   92.4430    2.1967 C.2     1  UNL1        0.3410
     22 O          63.7842   92.9827    1.1925 O.2     1  UNL1       -0.2450
     23 O          64.0716   91.9269    3.1959 O.3     1  UNL1       -0.4770
     24 H          63.7089   91.5966    4.0805 H       1  UNL1        0.2954
     25 C          60.0456   89.1754    8.6442 C.ar    1  UNL1        0.0702
     26 C          60.1235   90.1316    9.6640 C.ar    1  UNL1        0.0191
     27 C          60.1575   89.7331   11.0010 C.ar    1  UNL1        0.0356
     28 C          60.1228   88.3669   11.3164 C.ar    1  UNL1        0.1318
     29 N          60.0861   87.4516   10.3081 N.ar    1  UNL1       -0.2279
     30 C          60.0487   87.8164    8.9991 C.ar    1  UNL1        0.1149
     31 N          60.1702   87.9239   12.6853 N.pl3   1  UNL1       -0.2932
     32 C          59.4236   86.7243   13.0854 C.3     1  UNL1        0.0923
     33 C          60.1981   85.9487   14.1567 C.3     1  UNL1        0.0252
     34 C          60.5948   86.8711   15.3260 C.3     1  UNL1        0.0472
     35 C          61.4086   88.0702   14.8050 C.3     1  UNL1        0.0252
     36 C          60.6145   88.8389   13.7462 C.3     1  UNL1        0.0923
     37 C          61.3359   86.0899   16.4301 C.3     1  UNL1        0.2054
     38 O          62.7046   85.8448   16.0927 O.3     1  UNL1       -0.4755
     39 C          63.1916   84.8620   15.2139 C.ar    1  UNL1        0.1388
     40 C          63.9046   85.2917   14.0896 C.ar    1  UNL1        0.0369
     41 C          64.4205   84.3685   13.1793 C.ar    1  UNL1        0.0033
     42 C          64.2270   83.0011   13.3810 C.ar    1  UNL1        0.0066
     43 C          63.5089   82.5426   14.4990 C.ar    1  UNL1        0.0785
     44 C          62.9886   83.4801   15.4102 C.ar    1  UNL1        0.0433
     45 C          63.3028   81.0932   14.7178 C.2     1  UNL1        0.3381
     46 O          63.9317   80.4890   15.6285 O.2     1  UNL1       -0.2451
     47 O          62.4100   80.3819   13.9200 O.3     1  UNL1       -0.4771
     48 H          62.2612   79.3900   14.0623 H       1  UNL1        0.2954
@<TRIPOS>BOND
     1     5     6    1
     2     6     7   ar
     3     7     1    1
     4     1     2    2
     5     1     3   am
     6     3    25    1
     7    25    26   ar
     8    26    27   ar
     9    27    28   ar
    10    28    31    1
    11    31    32    1
    12    32    33    1
    13    33    34    1
    14    34    37    1
    15    37    38    1
    16    38    39    1
    17    39    40   ar
    18    40    41   ar
    19    41    42   ar
    20    42    43   ar
    21    43    45    1
    22    45    46    2
    23    45    47    1
    24    43    44   ar
    25    34    35    1
    26    35    36    1
    27    28    29   ar
    28    29    30   ar
    29     7     8   ar
    30     8     9   ar
    31     9    10   ar
    32    10    21    1
    33    21    22    2
    34    21    23    1
    35    10    11   ar
    36    11    12   ar
    37    12    15    1
    38    15    16   ar
    39    16    17   ar
    40    17    18   ar
    41    18    19   ar
    42    19    20   ar
    43    12    13   ar
    44    13    14   ar
    45    14     6   ar
    46    30    25   ar
    47    14     9   ar
    48    36    31    1
    49    20    15   ar
    50    44    39   ar
    51     3     4    1
    52    47    48    1
    53    23    24    1
@<TRIPOS>MOLECULE
*****
 48 53 0 0 0
SMALL
GASTEIGER

@<TRIPOS>ATOM
      1 C          60.9755   90.5192    6.5569 C.2     1  UNL1        0.2839
      2 O          62.0236   90.7784    7.2073 O.2     1  UNL1       -0.2665
      3 N          60.0158   89.5828    7.0735 N.am    1  UNL1       -0.2766
      4 H          59.3328   89.1612    6.4038 H       1  UNL1        0.1553
      5 C          58.1511   91.2055    5.2080 C.3     1  UNL1        0.0345
      6 C          59.5208   91.4542    4.6513 C.ar    1  UNL1        0.0202
      7 C          60.7497   91.1473    5.2415 C.ar    1  UNL1        0.1946
      8 O          61.7357   91.4985    4.4372 O.2     1  UNL1       -0.4490
      9 C          61.2156   92.0227    3.3527 C.ar    1  UNL1        0.1514
     10 C          61.8901   92.5186    2.2301 C.ar    1  UNL1        0.1099
     11 C          61.0991   92.9901    1.1580 C.ar    1  UNL1        0.0095
     12 C          59.6811   92.9832    1.2301 C.ar    1  UNL1        0.0004
     13 C          59.0472   92.4853    2.3902 C.ar    1  UNL1        0.0028
     14 C          59.8465   92.0119    3.4293 C.ar    1  UNL1        0.0339
     15 C          58.8700   93.4931    0.0956 C.ar    1  UNL1        0.0000
     16 C          59.4179   94.4117   -0.8199 C.ar    1  UNL1        0.0000
     17 C          58.6519   94.8901   -1.8873 C.ar    1  UNL1        0.0000
     18 C          57.3344   94.4578   -2.0539 C.ar    1  UNL1        0.0000
     19 C          56.7798   93.5459   -1.1531 C.ar    1  UNL1        0.0000
     20 C          57.5407   93.0649   -0.0833 C.ar    1  UNL1        0.0000
     21 C          63.3683   92.5270    2.1357 C.2     1  UNL1        0.3410
     22 O          63.9247   93.0171    1.1173 O.2     1  UNL1       -0.2450
     23 O          64.1714   92.0261    3.1589 O.3     1  UNL1       -0.4770
     24 H          63.7943   91.7366    4.0518 H       1  UNL1        0.2954
     25 C          60.0090   89.1023    8.4288 C.ar    1  UNL1        0.0702
     26 C          59.9705   87.7246    8.6752 C.ar    1  UNL1        0.0191
     27 C          59.9401   87.2447    9.9853 C.ar    1  UNL1        0.0356
     28 C          59.9387   88.1527   11.0543 C.ar    1  UNL1        0.1318
     29 N          59.9374   89.4895   10.7924 N.ar    1  UNL1       -0.2279
     30 C          59.9705   89.9797    9.5249 C.ar    1  UNL1        0.1149
     31 N          59.8940   87.6891   12.4165 N.pl3   1  UNL1       -0.2932
     32 C          59.7086   86.2582   12.6897 C.3     1  UNL1        0.0923
     33 C          60.5069   85.8462   13.9315 C.3     1  UNL1        0.0252
     34 C          60.1861   86.7686   15.1238 C.3     1  UNL1        0.0472
     35 C          60.4552   88.2375   14.7473 C.3     1  UNL1        0.0252
     36 C          59.6404   88.6336   13.5137 C.3     1  UNL1        0.0923
     37 C          60.9511   86.3344   16.3906 C.3     1  UNL1        0.2054
     38 O          61.7658   87.3863   16.9170 O.3     1  UNL1       -0.4755
     39 C          62.7363   88.1275   16.2212 C.ar    1  UNL1        0.1388
     40 C          63.5578   87.4392   15.3220 C.ar    1  UNL1        0.0369
     41 C          64.5382   88.1149   14.5944 C.ar    1  UNL1        0.0033
     42 C          64.7113   89.4900   14.7593 C.ar    1  UNL1        0.0066
     43 C          63.9036   90.2046   15.6608 C.ar    1  UNL1        0.0785
     44 C          62.9199   89.5152   16.3936 C.ar    1  UNL1        0.0433
     45 C          64.0825   91.6633   15.8375 C.2     1  UNL1        0.3381
     46 O          63.3428   92.3060   16.6311 O.2     1  UNL1       -0.2451
     47 O          65.0718   92.3410   15.1294 O.3     1  UNL1       -0.4771
     48 H          65.2029   93.3389   15.2439 H       1  UNL1        0.2954
@<TRIPOS>BOND
     1     5     6    1
     2     6     7   ar
     3     7     1    1
     4     1     2    2
     5     1     3   am
     6     3    25    1
     7    25    26   ar
     8    26    27   ar
     9    27    28   ar
    10    28    31    1
    11    31    32    1
    12    32    33    1
    13    33    34    1
    14    34    37    1
    15    37    38    1
    16    38    39    1
    17    39    40   ar
    18    40    41   ar
    19    41    42   ar
    20    42    43   ar
    21    43    45    1
    22    45    46    2
    23    45    47    1
    24    43    44   ar
    25    34    35    1
    26    35    36    1
    27    28    29   ar
    28    29    30   ar
    29     7     8   ar
    30     8     9   ar
    31     9    10   ar
    32    10    21    1
    33    21    22    2
    34    21    23    1
    35    10    11   ar
    36    11    12   ar
    37    12    15    1
    38    15    16   ar
    39    16    17   ar
    40    17    18   ar
    41    18    19   ar
    42    19    20   ar
    43    12    13   ar
    44    13    14   ar
    45    14     6   ar
    46    30    25   ar
    47    14     9   ar
    48    36    31    1
    49    20    15   ar
    50    44    39   ar
    51     3     4    1
    52    47    48    1
    53    23    24    1
@<TRIPOS>MOLECULE
*****
 48 53 0 0 0
SMALL
GASTEIGER

@<TRIPOS>ATOM
      1 C          62.6324   88.8754   12.1929 C.2     1  UNL1        0.2839
      2 O          61.6606   89.2964   11.5095 O.2     1  UNL1       -0.2665
      3 N          62.6836   87.5009   12.6087 N.am    1  UNL1       -0.2766
      4 H          63.3131   87.2531   13.4057 H       1  UNL1        0.1553
      5 C          64.4156   88.7084   14.8500 C.3     1  UNL1        0.0345
      6 C          64.4870   89.7326   13.7574 C.ar    1  UNL1        0.0202
      7 C          63.7024   89.8040   12.6032 C.ar    1  UNL1        0.1946
      8 O          64.0462   90.8602   11.8899 O.2     1  UNL1       -0.4490
      9 C          65.0176   91.4815   12.5158 C.ar    1  UNL1        0.1514
     10 C          65.6778   92.6538   12.1274 C.ar    1  UNL1        0.1099
     11 C          66.6649   93.1592   13.0036 C.ar    1  UNL1        0.0095
     12 C          66.9884   92.4900   14.2133 C.ar    1  UNL1        0.0004
     13 C          66.3036   91.3024   14.5545 C.ar    1  UNL1        0.0028
     14 C          65.3239   90.8300   13.6829 C.ar    1  UNL1        0.0339
     15 C          68.0364   93.0336   15.1140 C.ar    1  UNL1        0.0000
     16 C          69.0771   92.2083   15.5809 C.ar    1  UNL1        0.0000
     17 C          70.0626   92.7228   16.4289 C.ar    1  UNL1        0.0000
     18 C          70.0219   94.0632   16.8188 C.ar    1  UNL1        0.0000
     19 C          68.9952   94.8923   16.3616 C.ar    1  UNL1        0.0000
     20 C          68.0066   94.3831   15.5142 C.ar    1  UNL1        0.0000
     21 C          65.3481   93.3682   10.8724 C.2     1  UNL1        0.3410
     22 O          65.9145   94.4626   10.6113 O.2     1  UNL1       -0.2450
     23 O          64.4393   92.8506    9.9509 O.3     1  UNL1       -0.4770
     24 H          64.0477   91.9221   10.0386 H       1  UNL1        0.2954
     25 C          61.8395   86.4664   12.0749 C.ar    1  UNL1        0.0702
     26 C          61.1011   85.6564   12.9461 C.ar    1  UNL1        0.0191
     27 C          60.2957   84.6337   12.4433 C.ar    1  UNL1        0.0356
     28 C          60.2380   84.4163   11.0588 C.ar    1  UNL1        0.1318
     29 N          60.9939   85.1906   10.2313 N.ar    1  UNL1       -0.2279
     30 C          61.7827   86.1945   10.6981 C.ar    1  UNL1        0.1149
     31 N          59.4272   83.3607   10.5105 N.pl3   1  UNL1       -0.2932
     32 C          59.7984   82.7542    9.2257 C.3     1  UNL1        0.0923
     33 C          59.4669   81.2577    9.2287 C.3     1  UNL1        0.0252
     34 C          58.0026   81.0187    9.6459 C.3     1  UNL1        0.0472
     35 C          57.7311   81.6549   11.0219 C.3     1  UNL1        0.0252
     36 C          58.0558   83.1503   10.9956 C.3     1  UNL1        0.0923
     37 C          57.6466   79.5186    9.6087 C.3     1  UNL1        0.2054
     38 O          58.1449   78.8164   10.7516 O.3     1  UNL1       -0.4755
     39 C          58.9998   79.3248   11.7446 C.ar    1  UNL1        0.1388
     40 C          58.5023   79.4086   13.0494 C.ar    1  UNL1        0.0369
     41 C          59.2998   79.8988   14.0842 C.ar    1  UNL1        0.0033
     42 C          60.6068   80.3146   13.8260 C.ar    1  UNL1        0.0066
     43 C          61.1294   80.2470   12.5228 C.ar    1  UNL1        0.0785
     44 C          60.3175   79.7552   11.4841 C.ar    1  UNL1        0.0433
     45 C          62.5156   80.6853   12.2447 C.2     1  UNL1        0.3381
     46 O          62.8972   80.8830   11.0592 O.2     1  UNL1       -0.2451
     47 O          63.4127   80.8855   13.2909 O.3     1  UNL1       -0.4771
     48 H          64.3632   81.1862   13.1111 H       1  UNL1        0.2954
@<TRIPOS>BOND
     1     5     6    1
     2     6     7   ar
     3     7     1    1
     4     1     2    2
     5     1     3   am
     6     3    25    1
     7    25    26   ar
     8    26    27   ar
     9    27    28   ar
    10    28    31    1
    11    31    32    1
    12    32    33    1
    13    33    34    1
    14    34    37    1
    15    37    38    1
    16    38    39    1
    17    39    40   ar
    18    40    41   ar
    19    41    42   ar
    20    42    43   ar
    21    43    45    1
    22    45    46    2
    23    45    47    1
    24    43    44   ar
    25    34    35    1
    26    35    36    1
    27    28    29   ar
    28    29    30   ar
    29     7     8   ar
    30     8     9   ar
    31     9    10   ar
    32    10    21    1
    33    21    22    2
    34    21    23    1
    35    10    11   ar
    36    11    12   ar
    37    12    15    1
    38    15    16   ar
    39    16    17   ar
    40    17    18   ar
    41    18    19   ar
    42    19    20   ar
    43    12    13   ar
    44    13    14   ar
    45    14     6   ar
    46    30    25   ar
    47    14     9   ar
    48    36    31    1
    49    20    15   ar
    50    44    39   ar
    51     3     4    1
    52    47    48    1
    53    23    24    1
