@<TRIPOS>MOLECULE
*****
 55 61 0 0 0
SMALL
GASTEIGER

@<TRIPOS>ATOM
      1 N         -27.7202   47.0508   -5.8268 N.ar    1  UNL1       -0.2357
      2 N         -28.8273   46.3194   -5.9287 N.ar    1  UNL1       -0.1663
      3 C         -29.3588   46.5107   -7.1625 C.ar    1  UNL1        0.1260
      4 C         -28.5383   47.3778   -7.8554 C.ar    1  UNL1        0.0880
      5 C         -28.5679   47.9492   -9.1231 C.ar    1  UNL1        0.1383
      6 N         -27.5706   48.8296   -9.4382 N.ar    1  UNL1       -0.2117
      7 C         -26.5621   49.1346   -8.5553 C.ar    1  UNL1        0.1653
      8 N         -26.5482   48.5550   -7.3142 N.ar    1  UNL1       -0.2079
      9 C         -27.5406   47.6907   -6.9940 C.ar    1  UNL1        0.1652
     10 C         -29.0116   47.0454   -0.9311 C.2     1  UNL1        0.4050
     11 O         -29.2499   45.9433   -0.3635 O.2     1  UNL1       -0.2262
     12 N         -28.4119   47.0725   -2.2428 N.am    1  UNL1       -0.2459
     13 C         -28.2496   48.3554   -2.9415 C.3     1  UNL1        0.0987
     14 C         -26.9868   48.3613   -3.8188 C.3     1  UNL1        0.0461
     15 C         -26.8169   47.0840   -4.6675 C.3     1  UNL1        0.1102
     16 C         -26.9831   45.8220   -3.8081 C.3     1  UNL1        0.0461
     17 C         -28.2986   45.8365   -3.0300 C.3     1  UNL1        0.0987
     18 C         -30.1076   48.2896    0.9090 C.3     1  UNL1        0.2573
     19 O         -29.3297   48.2435   -0.2810 O.3     1  UNL1       -0.4304
     20 N         -29.6009   47.6478  -10.0738 N.pl3   1  UNL1       -0.2807
     21 C         -30.1145   48.7276  -10.9212 C.3     1  UNL1        0.1247
     22 C         -31.5119   48.3684  -11.4328 C.3     1  UNL1        0.1636
     23 O         -31.5113   47.0918  -12.0420 O.3     1  UNL1       -0.3496
     24 C         -31.2366   46.0987  -11.0712 C.3     1  UNL1        0.1734
     25 C         -29.8174   46.2560  -10.4948 C.3     1  UNL1        0.2035
     26 C         -28.7659   45.8463  -11.4908 C.2     1  UNL1        0.3346
     27 O         -28.9632   45.9887  -12.7278 O.2     1  UNL1       -0.2484
     28 O         -27.5526   45.3366  -11.0392 O.3     1  UNL1       -0.4790
     29 H         -26.8266   45.0678  -11.6924 H       1  UNL1        0.2951
     30 C         -25.4950   50.0888   -8.9441 C.ar    1  UNL1        0.0360
     31 C         -25.4696   50.6484  -10.2347 C.ar    1  UNL1        0.0043
     32 C         -24.4636   51.5471  -10.6009 C.ar    1  UNL1        0.0148
     33 C         -23.4682   51.9151   -9.6799 C.ar    1  UNL1        0.0516
     34 C         -23.4785   51.3419   -8.4012 C.ar    1  UNL1        0.0148
     35 C         -24.4840   50.4439   -8.0325 C.ar    1  UNL1        0.0043
     36 N         -22.4080   52.8170  -10.0407 N.am    1  UNL1       -0.2681
     37 C         -21.1512   52.3977  -10.5968 C.2     1  UNL1        0.3082
     38 O         -21.0568   51.2820  -11.1755 O.2     1  UNL1       -0.2522
     39 N         -20.0169   53.2761  -10.5877 N.am    1  UNL1       -0.2681
     40 H         -22.5901   53.8438   -9.9717 H       1  UNL1        0.1564
     41 H         -19.2878   53.1350  -11.3233 H       1  UNL1        0.1564
     42 C         -19.8379   54.3500   -9.6493 C.ar    1  UNL1        0.0516
     43 C         -19.2056   54.0958   -8.4239 C.ar    1  UNL1        0.0144
     44 C         -19.0375   55.1196   -7.4871 C.ar    1  UNL1       -0.0029
     45 C         -19.5236   56.4091   -7.7523 C.ar    1  UNL1       -0.0207
     46 C         -20.1665   56.6637   -8.9734 C.ar    1  UNL1       -0.0029
     47 C         -20.3339   55.6398   -9.9101 C.ar    1  UNL1        0.0144
     48 C         -19.3097   57.5202   -6.7590 C.3     1  UNL1        0.0437
     49 C         -18.7892   58.7810   -7.4624 C.3     1  UNL1        0.0769
     50 N         -18.9403   59.9743   -6.6017 N.3     1  UNL1       -0.2681
     51 C         -19.2861   61.1776   -7.3941 C.3     1  UNL1        0.1046
     52 C         -19.8093   62.3135   -6.4935 C.3     1  UNL1        0.1595
     53 O         -19.4246   62.1005   -5.1517 O.3     1  UNL1       -0.3508
     54 C         -20.0883   60.9581   -4.6397 C.3     1  UNL1        0.1595
     55 C         -19.9689   59.7336   -5.5728 C.3     1  UNL1        0.1046
@<TRIPOS>BOND
     1    18    19    1
     2    19    10    1
     3    10    11    2
     4    10    12   am
     5    12    13    1
     6    13    14    1
     7    14    15    1
     8    15     1    1
     9     1     2   ar
    10     2     3   ar
    11     3     4   ar
    12     4     5   ar
    13     5    20    1
    14    20    21    1
    15    21    22    1
    16    22    23    1
    17    23    24    1
    18    24    25    1
    19    25    26    1
    20    26    27    2
    21    26    28    1
    22     5     6   ar
    23     6     7   ar
    24     7    30    1
    25    30    31   ar
    26    31    32   ar
    27    32    33   ar
    28    33    36    1
    29    36    37   am
    30    37    38    2
    31    37    39   am
    32    39    42    1
    33    42    43   ar
    34    43    44   ar
    35    44    45   ar
    36    45    48    1
    37    48    49    1
    38    49    50    1
    39    50    51    1
    40    51    52    1
    41    52    53    1
    42    53    54    1
    43    54    55    1
    44    45    46   ar
    45    46    47   ar
    46    33    34   ar
    47    34    35   ar
    48     7     8   ar
    49     8     9   ar
    50    15    16    1
    51    16    17    1
    52    17    12    1
    53     9     1   ar
    54     9     4   ar
    55    25    20    1
    56    35    30   ar
    57    47    42   ar
    58    55    50    1
    59    28    29    1
    60    36    40    1
    61    39    41    1
@<TRIPOS>MOLECULE
*****
 55 61 0 0 0
SMALL
GASTEIGER

@<TRIPOS>ATOM
      1 N         -29.1566   48.5203   -6.0273 N.ar    1  UNL1       -0.2357
      2 N         -30.2623   47.8045   -6.2171 N.ar    1  UNL1       -0.1663
      3 C         -30.4609   47.6630   -7.5519 C.ar    1  UNL1        0.1260
      4 C         -29.4283   48.2989   -8.2110 C.ar    1  UNL1        0.0880
      5 C         -29.1023   48.5071   -9.5469 C.ar    1  UNL1        0.1383
      6 N         -27.9893   49.2554   -9.8121 N.ar    1  UNL1       -0.2117
      7 C         -27.2035   49.7730   -8.8100 C.ar    1  UNL1        0.1653
      8 N         -27.5390   49.5500   -7.5007 N.ar    1  UNL1       -0.2079
      9 C         -28.6471   48.8185   -7.2337 C.ar    1  UNL1        0.1652
     10 C         -26.0345   45.6517   -3.2596 C.2     1  UNL1        0.4050
     11 O         -24.7987   45.6707   -3.5167 O.2     1  UNL1       -0.2262
     12 N         -26.9158   46.6254   -3.8565 N.am    1  UNL1       -0.2459
     13 C         -28.3664   46.5196   -3.6440 C.3     1  UNL1        0.0987
     14 C         -29.0301   47.9059   -3.5996 C.3     1  UNL1        0.0461
     15 C         -28.5621   48.8524   -4.7245 C.3     1  UNL1        0.1102
     16 C         -27.0293   48.8886   -4.8159 C.3     1  UNL1        0.0461
     17 C         -26.4371   47.4857   -4.9478 C.3     1  UNL1        0.0987
     18 C         -25.8085   44.1701   -1.2875 C.3     1  UNL1        0.2573
     19 O         -26.5473   44.6822   -2.3899 O.3     1  UNL1       -0.4304
     20 N         -29.8950   47.9750  -10.6194 N.pl3   1  UNL1       -0.2807
     21 C         -30.1048   48.7968  -11.8145 C.3     1  UNL1        0.1247
     22 C         -31.3604   48.3289  -12.5547 C.3     1  UNL1        0.1636
     23 O         -31.3101   46.9365  -12.7993 O.3     1  UNL1       -0.3496
     24 C         -31.3545   46.2333  -11.5714 C.3     1  UNL1        0.1734
     25 C         -30.1088   46.5236  -10.7140 C.3     1  UNL1        0.2035
     26 C         -28.8823   45.8544  -11.2738 C.2     1  UNL1        0.3346
     27 O         -27.9460   45.4897  -10.5125 O.2     1  UNL1       -0.2484
     28 O         -28.7973   45.6070  -12.6403 O.3     1  UNL1       -0.4790
     29 H         -27.9867   45.1456  -13.0354 H       1  UNL1        0.2951
     30 C         -25.9990   50.5714   -9.1451 C.ar    1  UNL1        0.0360
     31 C         -25.8740   51.1854  -10.4047 C.ar    1  UNL1        0.0043
     32 C         -24.7387   51.9373  -10.7203 C.ar    1  UNL1        0.0148
     33 C         -23.7094   52.1015   -9.7780 C.ar    1  UNL1        0.0516
     34 C         -23.8214   51.4725   -8.5309 C.ar    1  UNL1        0.0148
     35 C         -24.9561   50.7211   -8.2128 C.ar    1  UNL1        0.0043
     36 N         -22.5200   52.8479  -10.0878 N.am    1  UNL1       -0.2681
     37 C         -21.2850   52.2502  -10.5148 C.2     1  UNL1        0.3082
     38 O         -21.2846   51.1007  -11.0317 O.2     1  UNL1       -0.2522
     39 N         -20.0546   52.9852  -10.4490 N.am    1  UNL1       -0.2681
     40 H         -22.5779   53.8914  -10.0817 H       1  UNL1        0.1564
     41 H         -19.2928   52.7166  -11.1124 H       1  UNL1        0.1564
     42 C         -19.8183   54.0805   -9.5489 C.ar    1  UNL1        0.0516
     43 C         -19.2105   53.8348   -8.3094 C.ar    1  UNL1        0.0144
     44 C         -18.9880   54.8807   -7.4092 C.ar    1  UNL1       -0.0029
     45 C         -19.3948   56.1861   -7.7256 C.ar    1  UNL1       -0.0207
     46 C         -20.0132   56.4330   -8.9609 C.ar    1  UNL1       -0.0029
     47 C         -20.2349   55.3869   -9.8610 C.ar    1  UNL1        0.0144
     48 C         -19.1218   57.3186   -6.7717 C.3     1  UNL1        0.0437
     49 C         -18.8425   58.6172   -7.5403 C.3     1  UNL1        0.0769
     50 N         -18.9461   59.7962   -6.6534 N.3     1  UNL1       -0.2681
     51 C         -19.1727   61.0406   -7.4253 C.3     1  UNL1        0.1046
     52 C         -19.6528   62.1880   -6.5152 C.3     1  UNL1        0.1595
     53 O         -19.3415   61.9145   -5.1654 O.3     1  UNL1       -0.3508
     54 C         -20.1049   60.8098   -4.7131 C.3     1  UNL1        0.1595
     55 C         -20.0320   59.6037   -5.6744 C.3     1  UNL1        0.1046
@<TRIPOS>BOND
     1    18    19    1
     2    19    10    1
     3    10    11    2
     4    10    12   am
     5    12    13    1
     6    13    14    1
     7    14    15    1
     8    15     1    1
     9     1     2   ar
    10     2     3   ar
    11     3     4   ar
    12     4     5   ar
    13     5    20    1
    14    20    21    1
    15    21    22    1
    16    22    23    1
    17    23    24    1
    18    24    25    1
    19    25    26    1
    20    26    27    2
    21    26    28    1
    22     5     6   ar
    23     6     7   ar
    24     7    30    1
    25    30    31   ar
    26    31    32   ar
    27    32    33   ar
    28    33    36    1
    29    36    37   am
    30    37    38    2
    31    37    39   am
    32    39    42    1
    33    42    43   ar
    34    43    44   ar
    35    44    45   ar
    36    45    48    1
    37    48    49    1
    38    49    50    1
    39    50    51    1
    40    51    52    1
    41    52    53    1
    42    53    54    1
    43    54    55    1
    44    45    46   ar
    45    46    47   ar
    46    33    34   ar
    47    34    35   ar
    48     7     8   ar
    49     8     9   ar
    50    15    16    1
    51    16    17    1
    52    17    12    1
    53     9     1   ar
    54     9     4   ar
    55    25    20    1
    56    35    30   ar
    57    47    42   ar
    58    55    50    1
    59    28    29    1
    60    36    40    1
    61    39    41    1
