@<TRIPOS>MOLECULE
*****
 43 47 0 0 0
SMALL
GASTEIGER

@<TRIPOS>ATOM
      1 C         -61.5525  -43.7682  -29.3435 C.3     1  UNL1        0.2392
      2 O         -60.6523  -43.0996  -28.4539 O.3     1  UNL1       -0.4694
      3 C         -60.9090  -43.0287  -27.0814 C.ar    1  UNL1        0.1723
      4 C         -60.1930  -42.1495  -26.2665 C.ar    1  UNL1        0.0398
      5 C         -60.4872  -42.0681  -24.9016 C.ar    1  UNL1        0.0026
      6 C         -61.4935  -42.8767  -24.3394 C.ar    1  UNL1        0.0233
      7 C         -62.2064  -43.7616  -25.1680 C.ar    1  UNL1        0.0393
      8 C         -61.8996  -43.8497  -26.5286 C.ar    1  UNL1        0.1725
      9 O         -62.5745  -44.7533  -27.3545 O.3     1  UNL1       -0.4679
     10 C         -62.0969  -45.0566  -28.6698 C.3     1  UNL1        0.2305
     11 C         -61.8397  -42.7629  -22.8737 C.3     1  UNL1        0.2223
     12 O         -62.5989  -41.5745  -22.6473 O.3     1  UNL1       -0.4715
     13 C         -63.2680  -41.3442  -21.4410 C.ar    1  UNL1        0.1477
     14 C         -63.7126  -40.0571  -21.1453 C.ar    1  UNL1        0.0738
     15 C         -64.3749  -39.7880  -19.9359 C.ar    1  UNL1        0.1430
     16 C         -64.5596  -40.8263  -18.9996 C.ar    1  UNL1        0.0752
     17 C         -64.1136  -42.1339  -19.3014 C.ar    1  UNL1        0.1457
     18 C         -63.4981  -42.4017  -20.5457 C.ar    1  UNL1        0.1050
     19 C         -63.1337  -43.7743  -20.9897 C.2     1  UNL1        0.2095
     20 O         -63.3433  -44.7712  -20.2472 O.2     1  UNL1       -0.2884
     21 C         -62.6211  -43.9989  -22.3924 C.3     1  UNL1        0.2169
     22 O         -61.7780  -45.1228  -22.4280 O.3     1  UNL1       -0.3739
     23 H         -62.3638  -45.9214  -22.5008 H       1  UNL1        0.2110
     24 C         -65.3127  -40.5460  -17.7212 C.3     1  UNL1        0.1697
     25 O         -64.6223  -41.1153  -16.6446 O.3     1  UNL1       -0.3771
     26 H         -65.1659  -40.9251  -15.8361 H       1  UNL1        0.2109
     27 O         -64.8604  -38.5040  -19.6329 O.3     1  UNL1       -0.4715
     28 C         -64.0476  -37.4002  -19.2473 C.3     1  UNL1        0.2525
     29 O         -64.2945  -43.1585  -18.3679 O.3     1  UNL1       -0.4714
     30 C         -65.5307  -43.8575  -18.2686 C.3     1  UNL1        0.2525
     31 C         -63.2043  -45.6879  -29.4813 C.ar    1  UNL1        0.0241
     32 C         -63.9204  -44.9304  -30.4195 C.ar    1  UNL1        0.0026
     33 C         -64.9179  -45.5244  -31.1939 C.ar    1  UNL1        0.0398
     34 C         -65.2088  -46.8944  -31.0534 C.ar    1  UNL1        0.1724
     35 C         -64.4868  -47.6646  -30.1285 C.ar    1  UNL1        0.1722
     36 C         -63.4867  -47.0562  -29.3454 C.ar    1  UNL1        0.0393
     37 O         -66.2033  -47.5269  -31.8163 O.3     1  UNL1       -0.4684
     38 C         -66.0500  -47.9166  -33.1773 C.3     1  UNL1        0.2526
     39 O         -64.7886  -49.0314  -30.0195 O.3     1  UNL1       -0.4684
     40 C         -64.3981  -49.8596  -28.9288 C.3     1  UNL1        0.2526
     41 C         -60.8410  -44.0470  -30.6734 C.3     1  UNL1        0.1897
     42 C         -58.8536  -44.7592  -31.5945 C.3     1  UNL1        0.1743
     43 O         -59.6652  -44.7958  -30.4428 O.3     1  UNL1       -0.3471
@<TRIPOS>BOND
     1    42    43    1
     2    43    41    1
     3    41     1    1
     4     1     2    1
     5     2     3    1
     6     3     4   ar
     7     4     5   ar
     8     5     6   ar
     9     6    11    1
    10    11    12    1
    11    12    13    1
    12    13    14   ar
    13    14    15   ar
    14    15    27    1
    15    27    28    1
    16    15    16   ar
    17    16    24    1
    18    24    25    1
    19    16    17   ar
    20    17    29    1
    21    29    30    1
    22    17    18   ar
    23    18    19    1
    24    19    20    2
    25    19    21    1
    26    21    22    1
    27     6     7   ar
    28     7     8   ar
    29     8     9    1
    30     9    10    1
    31    10    31    1
    32    31    32   ar
    33    32    33   ar
    34    33    34   ar
    35    34    37    1
    36    37    38    1
    37    34    35   ar
    38    35    39    1
    39    39    40    1
    40    35    36   ar
    41    10     1    1
    42    36    31   ar
    43     8     3   ar
    44    21    11    1
    45    18    13   ar
    46    25    26    1
    47    22    23    1
@<TRIPOS>MOLECULE
*****
 43 47 0 0 0
SMALL
GASTEIGER

@<TRIPOS>ATOM
      1 C         -60.9138  -45.0276  -27.0580 C.3     1  UNL1        0.2392
      2 O         -60.2192  -45.0185  -25.8065 O.3     1  UNL1       -0.4694
      3 C         -60.7114  -44.3049  -24.7096 C.ar    1  UNL1        0.1723
      4 C         -59.9055  -44.0658  -23.5946 C.ar    1  UNL1        0.0398
      5 C         -60.4042  -43.3209  -22.5210 C.ar    1  UNL1        0.0026
      6 C         -61.7197  -42.8198  -22.5507 C.ar    1  UNL1        0.0233
      7 C         -62.5245  -43.0692  -23.6768 C.ar    1  UNL1        0.0393
      8 C         -62.0268  -43.8258  -24.7411 C.ar    1  UNL1        0.1725
      9 O         -62.8301  -44.1133  -25.8484 O.3     1  UNL1       -0.4679
     10 C         -62.4444  -45.1027  -26.8088 C.3     1  UNL1        0.2305
     11 C         -62.2476  -41.9824  -21.4100 C.3     1  UNL1        0.2223
     12 O         -62.1289  -40.5962  -21.7329 O.3     1  UNL1       -0.4715
     13 C         -62.7658  -39.6052  -20.9790 C.ar    1  UNL1        0.1477
     14 C         -62.3664  -38.2782  -21.1251 C.ar    1  UNL1        0.0738
     15 C         -62.9748  -37.2598  -20.3724 C.ar    1  UNL1        0.1430
     16 C         -63.9758  -37.5921  -19.4362 C.ar    1  UNL1        0.0752
     17 C         -64.3854  -38.9378  -19.2914 C.ar    1  UNL1        0.1457
     18 C         -63.8031  -39.9448  -20.0950 C.ar    1  UNL1        0.1050
     19 C         -64.2813  -41.3538  -20.1001 C.2     1  UNL1        0.2095
     20 O         -65.2302  -41.7174  -19.3541 O.2     1  UNL1       -0.2884
     21 C         -63.7124  -42.3367  -21.0955 C.3     1  UNL1        0.2169
     22 O         -63.7726  -43.6423  -20.5786 O.3     1  UNL1       -0.3739
     23 H         -64.6904  -43.9795  -20.7513 H       1  UNL1        0.2110
     24 C         -64.6611  -36.4916  -18.6621 C.3     1  UNL1        0.1697
     25 O         -64.9810  -35.4442  -19.5342 O.3     1  UNL1       -0.3771
     26 H         -65.4051  -34.7406  -18.9772 H       1  UNL1        0.2109
     27 O         -62.6096  -35.9113  -20.5286 O.3     1  UNL1       -0.4715
     28 C         -61.2973  -35.4584  -20.8455 C.3     1  UNL1        0.2525
     29 O         -65.3743  -39.2627  -18.3584 O.3     1  UNL1       -0.4714
     30 C         -65.0778  -40.0547  -17.2133 C.3     1  UNL1        0.2525
     31 C         -63.2298  -44.9078  -28.0850 C.ar    1  UNL1        0.0241
     32 C         -63.9624  -45.9675  -28.6391 C.ar    1  UNL1        0.0026
     33 C         -64.7166  -45.7754  -29.7976 C.ar    1  UNL1        0.0398
     34 C         -64.7627  -44.5124  -30.4172 C.ar    1  UNL1        0.1724
     35 C         -64.0456  -43.4415  -29.8614 C.ar    1  UNL1        0.1722
     36 C         -63.2810  -43.6452  -28.6962 C.ar    1  UNL1        0.0393
     37 O         -65.5117  -44.2808  -31.5818 O.3     1  UNL1       -0.4684
     38 C         -65.6018  -45.1872  -32.6764 C.3     1  UNL1        0.2526
     39 O         -64.1211  -42.1897  -30.4926 O.3     1  UNL1       -0.4684
     40 C         -64.9061  -41.0969  -30.0261 C.3     1  UNL1        0.2526
     41 C         -60.3938  -46.1842  -27.9208 C.3     1  UNL1        0.1897
     42 C         -59.7481  -44.8134  -29.6554 C.3     1  UNL1        0.1743
     43 O         -59.2995  -45.7487  -28.7012 O.3     1  UNL1       -0.3471
@<TRIPOS>BOND
     1    42    43    1
     2    43    41    1
     3    41     1    1
     4     1     2    1
     5     2     3    1
     6     3     4   ar
     7     4     5   ar
     8     5     6   ar
     9     6    11    1
    10    11    12    1
    11    12    13    1
    12    13    14   ar
    13    14    15   ar
    14    15    27    1
    15    27    28    1
    16    15    16   ar
    17    16    24    1
    18    24    25    1
    19    16    17   ar
    20    17    29    1
    21    29    30    1
    22    17    18   ar
    23    18    19    1
    24    19    20    2
    25    19    21    1
    26    21    22    1
    27     6     7   ar
    28     7     8   ar
    29     8     9    1
    30     9    10    1
    31    10    31    1
    32    31    32   ar
    33    32    33   ar
    34    33    34   ar
    35    34    37    1
    36    37    38    1
    37    34    35   ar
    38    35    39    1
    39    39    40    1
    40    35    36   ar
    41    10     1    1
    42    36    31   ar
    43     8     3   ar
    44    21    11    1
    45    18    13   ar
    46    25    26    1
    47    22    23    1
@<TRIPOS>MOLECULE
*****
 43 47 0 0 0
SMALL
GASTEIGER

@<TRIPOS>ATOM
      1 C         -63.1842  -41.8958  -19.8037 C.3     1  UNL1        0.2392
      2 O         -62.8293  -43.2299  -20.1818 O.3     1  UNL1       -0.4694
      3 C         -62.6510  -43.5798  -21.5236 C.ar    1  UNL1        0.1723
      4 C         -62.5856  -44.9205  -21.9083 C.ar    1  UNL1        0.0398
      5 C         -62.4410  -45.2516  -23.2595 C.ar    1  UNL1        0.0026
      6 C         -62.3482  -44.2409  -24.2355 C.ar    1  UNL1        0.0233
      7 C         -62.4116  -42.8936  -23.8373 C.ar    1  UNL1        0.0393
      8 C         -62.5421  -42.5672  -22.4847 C.ar    1  UNL1        0.1725
      9 O         -62.5670  -41.2316  -22.0728 O.3     1  UNL1       -0.4679
     10 C         -62.4217  -40.8771  -20.6932 C.3     1  UNL1        0.2305
     11 C         -62.2311  -44.5960  -25.6988 C.3     1  UNL1        0.2223
     12 O         -62.7071  -43.5126  -26.4985 O.3     1  UNL1       -0.4715
     13 C         -62.4838  -43.4592  -27.8781 C.ar    1  UNL1        0.1477
     14 C         -63.2306  -42.5749  -28.6539 C.ar    1  UNL1        0.0738
     15 C         -63.0421  -42.5064  -30.0444 C.ar    1  UNL1        0.1430
     16 C         -62.1108  -43.3669  -30.6619 C.ar    1  UNL1        0.0752
     17 C         -61.3486  -44.2607  -29.8745 C.ar    1  UNL1        0.1457
     18 C         -61.5094  -44.2797  -28.4700 C.ar    1  UNL1        0.1050
     19 C         -60.6453  -45.0874  -27.5672 C.2     1  UNL1        0.2095
     20 O         -59.7310  -45.8201  -28.0319 O.2     1  UNL1       -0.2884
     21 C         -60.7769  -44.9387  -26.0701 C.3     1  UNL1        0.2169
     22 O         -60.4038  -46.1320  -25.4282 O.3     1  UNL1       -0.3739
     23 H         -59.4135  -46.1232  -25.3546 H       1  UNL1        0.2110
     24 C         -61.8758  -43.2595  -32.1496 C.3     1  UNL1        0.1697
     25 O         -63.1095  -43.2019  -32.8087 O.3     1  UNL1       -0.3771
     26 H         -62.9029  -43.1561  -33.7784 H       1  UNL1        0.2109
     27 O         -63.7614  -41.5982  -30.8405 O.3     1  UNL1       -0.4715
     28 C         -64.8673  -40.8233  -30.3885 C.3     1  UNL1        0.2525
     29 O         -60.4305  -45.1151  -30.4919 O.3     1  UNL1       -0.4714
     30 C         -59.2300  -44.6152  -31.0711 C.3     1  UNL1        0.2525
     31 C         -62.9136  -39.4650  -20.4752 C.ar    1  UNL1        0.0241
     32 C         -64.0164  -39.2151  -19.6457 C.ar    1  UNL1        0.0026
     33 C         -64.4462  -37.9073  -19.4165 C.ar    1  UNL1        0.0398
     34 C         -63.7702  -36.8213  -20.0038 C.ar    1  UNL1        0.1724
     35 C         -62.6556  -37.0601  -20.8227 C.ar    1  UNL1        0.1722
     36 C         -62.2325  -38.3832  -21.0550 C.ar    1  UNL1        0.0393
     37 O         -64.1719  -35.4925  -19.7945 O.3     1  UNL1       -0.4684
     38 C         -65.2852  -35.1026  -18.9968 C.3     1  UNL1        0.2526
     39 O         -61.9922  -35.9572  -21.3839 O.3     1  UNL1       -0.4684
     40 C         -60.8552  -35.3213  -20.8088 C.3     1  UNL1        0.2526
     41 C         -62.9107  -41.7007  -18.3071 C.3     1  UNL1        0.1897
     42 C         -65.0445  -42.4057  -17.8021 C.3     1  UNL1        0.1743
     43 O         -64.1090  -41.3643  -17.6384 O.3     1  UNL1       -0.3471
@<TRIPOS>BOND
     1    42    43    1
     2    43    41    1
     3    41     1    1
     4     1     2    1
     5     2     3    1
     6     3     4   ar
     7     4     5   ar
     8     5     6   ar
     9     6    11    1
    10    11    12    1
    11    12    13    1
    12    13    14   ar
    13    14    15   ar
    14    15    27    1
    15    27    28    1
    16    15    16   ar
    17    16    24    1
    18    24    25    1
    19    16    17   ar
    20    17    29    1
    21    29    30    1
    22    17    18   ar
    23    18    19    1
    24    19    20    2
    25    19    21    1
    26    21    22    1
    27     6     7   ar
    28     7     8   ar
    29     8     9    1
    30     9    10    1
    31    10    31    1
    32    31    32   ar
    33    32    33   ar
    34    33    34   ar
    35    34    37    1
    36    37    38    1
    37    34    35   ar
    38    35    39    1
    39    39    40    1
    40    35    36   ar
    41    10     1    1
    42    36    31   ar
    43     8     3   ar
    44    21    11    1
    45    18    13   ar
    46    25    26    1
    47    22    23    1
@<TRIPOS>MOLECULE
*****
 43 47 0 0 0
SMALL
GASTEIGER

@<TRIPOS>ATOM
      1 C         -62.9968  -41.6618  -20.1998 C.3     1  UNL1        0.2392
      2 O         -62.4781  -42.8493  -20.8077 O.3     1  UNL1       -0.4694
      3 C         -62.4626  -43.0049  -22.1970 C.ar    1  UNL1        0.1723
      4 C         -62.2248  -44.2550  -22.7721 C.ar    1  UNL1        0.0398
      5 C         -62.2468  -44.3978  -24.1632 C.ar    1  UNL1        0.0026
      6 C         -62.4951  -43.2858  -24.9905 C.ar    1  UNL1        0.0233
      7 C         -62.7298  -42.0304  -24.4017 C.ar    1  UNL1        0.0393
      8 C         -62.6931  -41.8895  -23.0118 C.ar    1  UNL1        0.1725
      9 O         -62.8862  -40.6396  -22.4166 O.3     1  UNL1       -0.4679
     10 C         -62.5824  -40.4202  -21.0346 C.3     1  UNL1        0.2305
     11 C         -62.5579  -43.4449  -26.4911 C.3     1  UNL1        0.2223
     12 O         -63.1899  -44.6827  -26.8198 O.3     1  UNL1       -0.4715
     13 C         -63.6104  -44.9745  -28.1214 C.ar    1  UNL1        0.1477
     14 C         -63.9151  -46.2918  -28.4581 C.ar    1  UNL1        0.0738
     15 C         -64.3260  -46.6220  -29.7604 C.ar    1  UNL1        0.1430
     16 C         -64.3969  -45.6125  -30.7427 C.ar    1  UNL1        0.0752
     17 C         -64.0932  -44.2745  -30.4004 C.ar    1  UNL1        0.1457
     18 C         -63.7345  -43.9481  -29.0723 C.ar    1  UNL1        0.1050
     19 C         -63.5409  -42.5482  -28.6069 C.2     1  UNL1        0.2095
     20 O         -63.6695  -41.5787  -29.4022 O.2     1  UNL1       -0.2884
     21 C         -63.3098  -42.2691  -27.1408 C.3     1  UNL1        0.2169
     22 O         -62.5565  -41.0932  -26.9825 O.3     1  UNL1       -0.3739
     23 H         -63.1924  -40.3326  -27.0399 H       1  UNL1        0.2110
     24 C         -64.8835  -45.9607  -32.1291 C.3     1  UNL1        0.1697
     25 O         -65.7639  -44.9666  -32.5724 O.3     1  UNL1       -0.3771
     26 H         -66.0720  -45.2513  -33.4719 H       1  UNL1        0.2109
     27 O         -64.6697  -47.9389  -30.1117 O.3     1  UNL1       -0.4715
     28 C         -64.4150  -49.0854  -29.3065 C.3     1  UNL1        0.2525
     29 O         -64.1600  -43.2785  -31.3789 O.3     1  UNL1       -0.4714
     30 C         -63.0219  -42.9348  -32.1619 C.3     1  UNL1        0.2525
     31 C         -63.2739  -39.1657  -20.5536 C.ar    1  UNL1        0.0241
     32 C         -64.5785  -39.2231  -20.0421 C.ar    1  UNL1        0.0026
     33 C         -65.2015  -38.0693  -19.5644 C.ar    1  UNL1        0.0398
     34 C         -64.5239  -36.8356  -19.5769 C.ar    1  UNL1        0.1724
     35 C         -63.2122  -36.7708  -20.0721 C.ar    1  UNL1        0.1722
     36 C         -62.5929  -37.9382  -20.5592 C.ar    1  UNL1        0.0393
     37 O         -65.1172  -35.6549  -19.1029 O.3     1  UNL1       -0.4684
     38 C         -64.7835  -35.0226  -17.8714 C.3     1  UNL1        0.2526
     39 O         -62.5555  -35.5299  -20.0594 O.3     1  UNL1       -0.4684
     40 C         -61.3949  -35.2233  -20.8256 C.3     1  UNL1        0.2526
     41 C         -62.5212  -41.5856  -18.7436 C.3     1  UNL1        0.1897
     42 C         -64.6310  -42.2601  -18.1120 C.3     1  UNL1        0.1743
     43 O         -63.6152  -41.3079  -17.8936 O.3     1  UNL1       -0.3471
@<TRIPOS>BOND
     1    42    43    1
     2    43    41    1
     3    41     1    1
     4     1     2    1
     5     2     3    1
     6     3     4   ar
     7     4     5   ar
     8     5     6   ar
     9     6    11    1
    10    11    12    1
    11    12    13    1
    12    13    14   ar
    13    14    15   ar
    14    15    27    1
    15    27    28    1
    16    15    16   ar
    17    16    24    1
    18    24    25    1
    19    16    17   ar
    20    17    29    1
    21    29    30    1
    22    17    18   ar
    23    18    19    1
    24    19    20    2
    25    19    21    1
    26    21    22    1
    27     6     7   ar
    28     7     8   ar
    29     8     9    1
    30     9    10    1
    31    10    31    1
    32    31    32   ar
    33    32    33   ar
    34    33    34   ar
    35    34    37    1
    36    37    38    1
    37    34    35   ar
    38    35    39    1
    39    39    40    1
    40    35    36   ar
    41    10     1    1
    42    36    31   ar
    43     8     3   ar
    44    21    11    1
    45    18    13   ar
    46    25    26    1
    47    22    23    1
@<TRIPOS>MOLECULE
*****
 43 47 0 0 0
SMALL
GASTEIGER

@<TRIPOS>ATOM
      1 C         -69.5308  -55.6152  -22.5482 C.3     1  UNL1        0.2392
      2 O         -68.6423  -55.7874  -23.6571 O.3     1  UNL1       -0.4694
      3 C         -67.4959  -54.9995  -23.7964 C.ar    1  UNL1        0.1723
      4 C         -66.7923  -54.9709  -25.0023 C.ar    1  UNL1        0.0398
      5 C         -65.6672  -54.1506  -25.1335 C.ar    1  UNL1        0.0026
      6 C         -65.2303  -53.3610  -24.0527 C.ar    1  UNL1        0.0233
      7 C         -65.9437  -53.3995  -22.8413 C.ar    1  UNL1        0.0393
      8 C         -67.0591  -54.2312  -22.7102 C.ar    1  UNL1        0.1725
      9 O         -67.7530  -54.3076  -21.4991 O.3     1  UNL1       -0.4679
     10 C         -68.7130  -55.3420  -21.2572 C.3     1  UNL1        0.2305
     11 C         -64.0389  -52.4450  -24.2040 C.3     1  UNL1        0.2223
     12 O         -64.4642  -51.1785  -24.7087 O.3     1  UNL1       -0.4715
     13 C         -63.6216  -50.0622  -24.7072 C.ar    1  UNL1        0.1477
     14 C         -63.9533  -48.9591  -25.4914 C.ar    1  UNL1        0.0738
     15 C         -63.1215  -47.8274  -25.5246 C.ar    1  UNL1        0.1430
     16 C         -61.9226  -47.8251  -24.7819 C.ar    1  UNL1        0.0752
     17 C         -61.5881  -48.9419  -23.9815 C.ar    1  UNL1        0.1457
     18 C         -62.4620  -50.0513  -23.9146 C.ar    1  UNL1        0.1050
     19 C         -62.2478  -51.1957  -22.9882 C.2     1  UNL1        0.2095
     20 O         -61.2440  -51.2322  -22.2266 O.2     1  UNL1       -0.2884
     21 C         -63.3030  -52.2689  -22.8633 C.3     1  UNL1        0.2169
     22 O         -62.7134  -53.4902  -22.4944 O.3     1  UNL1       -0.3739
     23 H         -62.5994  -53.4699  -21.5082 H       1  UNL1        0.2110
     24 C         -61.0534  -46.5903  -24.7817 C.3     1  UNL1        0.1697
     25 O         -61.8501  -45.4653  -24.5375 O.3     1  UNL1       -0.3771
     26 H         -61.2405  -44.6826  -24.5706 H       1  UNL1        0.2109
     27 O         -63.4545  -46.6916  -26.2830 O.3     1  UNL1       -0.4715
     28 C         -63.5192  -46.6569  -27.7051 C.3     1  UNL1        0.2525
     29 O         -60.3962  -48.9368  -23.2512 O.3     1  UNL1       -0.4714
     30 C         -60.2672  -48.1788  -22.0531 C.3     1  UNL1        0.2525
     31 C         -69.6046  -54.9500  -20.1018 C.ar    1  UNL1        0.0241
     32 C         -70.5028  -53.8803  -20.2265 C.ar    1  UNL1        0.0026
     33 C         -71.3512  -53.5434  -19.1709 C.ar    1  UNL1        0.0398
     34 C         -71.3262  -54.2813  -17.9725 C.ar    1  UNL1        0.1724
     35 C         -70.4419  -55.3636  -17.8438 C.ar    1  UNL1        0.1722
     36 C         -69.5837  -55.6928  -18.9110 C.ar    1  UNL1        0.0393
     37 O         -72.1659  -53.9735  -16.8904 O.3     1  UNL1       -0.4684
     38 C         -73.1886  -52.9830  -16.9194 C.3     1  UNL1        0.2526
     39 O         -70.4484  -56.0905  -16.6426 O.3     1  UNL1       -0.4684
     40 C         -69.3774  -56.1081  -15.7043 C.3     1  UNL1        0.2526
     41 C         -70.4397  -56.8449  -22.4280 C.3     1  UNL1        0.1897
     42 C         -72.3824  -56.0248  -23.3545 C.3     1  UNL1        0.1743
     43 O         -71.7656  -56.4391  -22.1568 O.3     1  UNL1       -0.3471
@<TRIPOS>BOND
     1    42    43    1
     2    43    41    1
     3    41     1    1
     4     1     2    1
     5     2     3    1
     6     3     4   ar
     7     4     5   ar
     8     5     6   ar
     9     6    11    1
    10    11    12    1
    11    12    13    1
    12    13    14   ar
    13    14    15   ar
    14    15    27    1
    15    27    28    1
    16    15    16   ar
    17    16    24    1
    18    24    25    1
    19    16    17   ar
    20    17    29    1
    21    29    30    1
    22    17    18   ar
    23    18    19    1
    24    19    20    2
    25    19    21    1
    26    21    22    1
    27     6     7   ar
    28     7     8   ar
    29     8     9    1
    30     9    10    1
    31    10    31    1
    32    31    32   ar
    33    32    33   ar
    34    33    34   ar
    35    34    37    1
    36    37    38    1
    37    34    35   ar
    38    35    39    1
    39    39    40    1
    40    35    36   ar
    41    10     1    1
    42    36    31   ar
    43     8     3   ar
    44    21    11    1
    45    18    13   ar
    46    25    26    1
    47    22    23    1
@<TRIPOS>MOLECULE
*****
 43 47 0 0 0
SMALL
GASTEIGER

@<TRIPOS>ATOM
      1 C         -70.7017  -55.5761  -22.1968 C.3     1  UNL1        0.2392
      2 O         -69.8887  -55.8470  -23.3433 O.3     1  UNL1       -0.4694
      3 C         -68.6311  -55.2554  -23.4961 C.ar    1  UNL1        0.1723
      4 C         -67.9696  -55.2936  -24.7252 C.ar    1  UNL1        0.0398
      5 C         -66.7275  -54.6669  -24.8680 C.ar    1  UNL1        0.0026
      6 C         -66.1319  -54.0070  -23.7761 C.ar    1  UNL1        0.0233
      7 C         -66.8046  -53.9772  -22.5414 C.ar    1  UNL1        0.0393
      8 C         -68.0390  -54.6167  -22.3995 C.ar    1  UNL1        0.1725
      9 O         -68.6989  -54.6274  -21.1672 O.3     1  UNL1       -0.4679
     10 C         -69.8108  -55.4971  -20.9278 C.3     1  UNL1        0.2305
     11 C         -64.8090  -53.2962  -23.9379 C.3     1  UNL1        0.2223
     12 O         -65.0329  -51.9444  -24.3407 O.3     1  UNL1       -0.4715
     13 C         -64.0121  -50.9886  -24.3186 C.ar    1  UNL1        0.1477
     14 C         -64.1844  -49.7939  -25.0149 C.ar    1  UNL1        0.0738
     15 C         -63.1732  -48.8187  -25.0259 C.ar    1  UNL1        0.1430
     16 C         -61.9596  -49.0694  -24.3524 C.ar    1  UNL1        0.0752
     17 C         -61.7863  -50.2792  -23.6410 C.ar    1  UNL1        0.1457
     18 C         -62.8336  -51.2277  -23.5927 C.ar    1  UNL1        0.1050
     19 C         -62.7778  -52.4531  -22.7505 C.2     1  UNL1        0.2095
     20 O         -61.7621  -52.7104  -22.0497 O.2     1  UNL1       -0.2884
     21 C         -63.9947  -53.3395  -22.6321 C.3     1  UNL1        0.2169
     22 O         -63.6074  -54.6650  -22.3713 O.3     1  UNL1       -0.3739
     23 H         -63.4477  -54.7325  -21.3935 H       1  UNL1        0.2110
     24 C         -60.8925  -48.0015  -24.3261 C.3     1  UNL1        0.1697
     25 O         -60.4252  -47.8482  -23.0153 O.3     1  UNL1       -0.3771
     26 H         -59.7473  -47.1239  -23.0465 H       1  UNL1        0.2109
     27 O         -63.3400  -47.5935  -25.6945 O.3     1  UNL1       -0.4715
     28 C         -63.4438  -47.4485  -27.1073 C.3     1  UNL1        0.2525
     29 O         -60.5798  -50.5251  -22.9793 O.3     1  UNL1       -0.4714
     30 C         -59.5089  -51.2058  -23.6246 C.3     1  UNL1        0.2525
     31 C         -70.5887  -55.0112  -19.7268 C.ar    1  UNL1        0.0241
     32 C         -70.6040  -55.7567  -18.5390 C.ar    1  UNL1        0.0026
     33 C         -71.2928  -55.2880  -17.4195 C.ar    1  UNL1        0.0398
     34 C         -71.9697  -54.0546  -17.4633 C.ar    1  UNL1        0.1724
     35 C         -71.9470  -53.2936  -18.6425 C.ar    1  UNL1        0.1722
     36 C         -71.2557  -53.7769  -19.7704 C.ar    1  UNL1        0.0393
     37 O         -72.6711  -53.5500  -16.3569 O.3     1  UNL1       -0.4684
     38 C         -72.3347  -53.8158  -14.9990 C.3     1  UNL1        0.2526
     39 O         -72.6189  -52.0609  -18.6532 O.3     1  UNL1       -0.4684
     40 C         -73.9627  -51.8706  -18.2219 C.3     1  UNL1        0.2526
     41 C         -71.7996  -56.6416  -22.0878 C.3     1  UNL1        0.1897
     42 C         -73.8584  -56.2708  -21.1240 C.3     1  UNL1        0.1743
     43 O         -73.0681  -56.0463  -22.2692 O.3     1  UNL1       -0.3471
@<TRIPOS>BOND
     1    42    43    1
     2    43    41    1
     3    41     1    1
     4     1     2    1
     5     2     3    1
     6     3     4   ar
     7     4     5   ar
     8     5     6   ar
     9     6    11    1
    10    11    12    1
    11    12    13    1
    12    13    14   ar
    13    14    15   ar
    14    15    27    1
    15    27    28    1
    16    15    16   ar
    17    16    24    1
    18    24    25    1
    19    16    17   ar
    20    17    29    1
    21    29    30    1
    22    17    18   ar
    23    18    19    1
    24    19    20    2
    25    19    21    1
    26    21    22    1
    27     6     7   ar
    28     7     8   ar
    29     8     9    1
    30     9    10    1
    31    10    31    1
    32    31    32   ar
    33    32    33   ar
    34    33    34   ar
    35    34    37    1
    36    37    38    1
    37    34    35   ar
    38    35    39    1
    39    39    40    1
    40    35    36   ar
    41    10     1    1
    42    36    31   ar
    43     8     3   ar
    44    21    11    1
    45    18    13   ar
    46    25    26    1
    47    22    23    1
@<TRIPOS>MOLECULE
*****
 43 47 0 0 0
SMALL
GASTEIGER

@<TRIPOS>ATOM
      1 C         -61.4729  -41.8228  -22.2676 C.3     1  UNL1        0.2392
      2 O         -60.6185  -41.8658  -23.4152 O.3     1  UNL1       -0.4694
      3 C         -61.0961  -42.2899  -24.6588 C.ar    1  UNL1        0.1723
      4 C         -60.2121  -42.5985  -25.6948 C.ar    1  UNL1        0.0398
      5 C         -60.7071  -43.0538  -26.9211 C.ar    1  UNL1        0.0026
      6 C         -62.0937  -43.1917  -27.1236 C.ar    1  UNL1        0.0233
      7 C         -62.9758  -42.8748  -26.0751 C.ar    1  UNL1        0.0393
      8 C         -62.4775  -42.4070  -24.8562 C.ar    1  UNL1        0.1725
      9 O         -63.3460  -42.0519  -23.8201 O.3     1  UNL1       -0.4679
     10 C         -62.8823  -41.3194  -22.6805 C.3     1  UNL1        0.2305
     11 C         -62.6289  -43.7199  -28.4334 C.3     1  UNL1        0.2223
     12 O         -63.0504  -45.0749  -28.2719 O.3     1  UNL1       -0.4715
     13 C         -63.8159  -45.7308  -29.2414 C.ar    1  UNL1        0.1477
     14 C         -63.9236  -47.1194  -29.1976 C.ar    1  UNL1        0.0738
     15 C         -64.6723  -47.8109  -30.1646 C.ar    1  UNL1        0.1430
     16 C         -65.2916  -47.0918  -31.2078 C.ar    1  UNL1        0.0752
     17 C         -65.1875  -45.6822  -31.2497 C.ar    1  UNL1        0.1457
     18 C         -64.4769  -44.9951  -30.2388 C.ar    1  UNL1        0.1050
     19 C         -64.4449  -43.5109  -30.1379 C.2     1  UNL1        0.2095
     20 O         -65.0445  -42.7922  -30.9824 O.2     1  UNL1       -0.2884
     21 C         -63.7936  -42.8528  -28.9448 C.3     1  UNL1        0.2169
     22 O         -63.3059  -41.5824  -29.2962 O.3     1  UNL1       -0.3739
     23 H         -64.0721  -40.9531  -29.2408 H       1  UNL1        0.2110
     24 C         -66.1343  -47.8316  -32.2191 C.3     1  UNL1        0.1697
     25 O         -66.9514  -48.7529  -31.5532 O.3     1  UNL1       -0.3771
     26 H         -67.4649  -49.2269  -32.2581 H       1  UNL1        0.2109
     27 O         -64.8206  -49.2080  -30.1194 O.3     1  UNL1       -0.4715
     28 C         -64.4758  -50.0242  -29.0046 C.3     1  UNL1        0.2525
     29 O         -65.7989  -44.9745  -32.2886 O.3     1  UNL1       -0.4714
     30 C         -65.1093  -44.7048  -33.5045 C.3     1  UNL1        0.2525
     31 C         -63.8771  -41.4508  -21.5507 C.ar    1  UNL1        0.0241
     32 C         -64.4109  -40.3092  -20.9355 C.ar    1  UNL1        0.0026
     33 C         -65.3571  -40.4324  -19.9171 C.ar    1  UNL1        0.0398
     34 C         -65.7982  -41.7036  -19.5035 C.ar    1  UNL1        0.1724
     35 C         -65.2818  -42.8517  -20.1239 C.ar    1  UNL1        0.1722
     36 C         -64.3217  -42.7192  -21.1460 C.ar    1  UNL1        0.0393
     37 O         -66.7499  -41.8667  -18.4844 O.3     1  UNL1       -0.4684
     38 C         -66.5077  -41.6063  -17.1055 C.3     1  UNL1        0.2526
     39 O         -65.7501  -44.1059  -19.7009 O.3     1  UNL1       -0.4684
     40 C         -64.9316  -45.1231  -19.1324 C.3     1  UNL1        0.2526
     41 C         -60.8249  -40.9539  -21.1824 C.3     1  UNL1        0.1897
     42 C         -61.5796  -41.4461  -19.0627 C.3     1  UNL1        0.1743
     43 O         -60.5880  -41.7273  -20.0240 O.3     1  UNL1       -0.3471
@<TRIPOS>BOND
     1    42    43    1
     2    43    41    1
     3    41     1    1
     4     1     2    1
     5     2     3    1
     6     3     4   ar
     7     4     5   ar
     8     5     6   ar
     9     6    11    1
    10    11    12    1
    11    12    13    1
    12    13    14   ar
    13    14    15   ar
    14    15    27    1
    15    27    28    1
    16    15    16   ar
    17    16    24    1
    18    24    25    1
    19    16    17   ar
    20    17    29    1
    21    29    30    1
    22    17    18   ar
    23    18    19    1
    24    19    20    2
    25    19    21    1
    26    21    22    1
    27     6     7   ar
    28     7     8   ar
    29     8     9    1
    30     9    10    1
    31    10    31    1
    32    31    32   ar
    33    32    33   ar
    34    33    34   ar
    35    34    37    1
    36    37    38    1
    37    34    35   ar
    38    35    39    1
    39    39    40    1
    40    35    36   ar
    41    10     1    1
    42    36    31   ar
    43     8     3   ar
    44    21    11    1
    45    18    13   ar
    46    25    26    1
    47    22    23    1
@<TRIPOS>MOLECULE
*****
 43 47 0 0 0
SMALL
GASTEIGER

@<TRIPOS>ATOM
      1 C         -68.2424  -56.4096  -23.6067 C.3     1  UNL1        0.2392
      2 O         -67.1789  -56.1864  -22.6751 O.3     1  UNL1       -0.4694
      3 C         -66.2159  -55.1976  -22.8978 C.ar    1  UNL1        0.1723
      4 C         -65.0378  -55.1679  -22.1489 C.ar    1  UNL1        0.0398
      5 C         -64.0709  -54.1914  -22.4090 C.ar    1  UNL1        0.0026
      6 C         -64.2824  -53.2283  -23.4142 C.ar    1  UNL1        0.0233
      7 C         -65.4738  -53.2646  -24.1605 C.ar    1  UNL1        0.0393
      8 C         -66.4432  -54.2335  -23.8877 C.ar    1  UNL1        0.1725
      9 O         -67.6481  -54.2558  -24.5962 O.3     1  UNL1       -0.4679
     10 C         -68.7545  -55.0503  -24.1550 C.3     1  UNL1        0.2305
     11 C         -63.2233  -52.1968  -23.7234 C.3     1  UNL1        0.2223
     12 O         -63.8160  -51.0797  -24.3872 O.3     1  UNL1       -0.4715
     13 C         -63.1276  -49.8751  -24.5634 C.ar    1  UNL1        0.1477
     14 C         -63.6085  -48.9458  -25.4836 C.ar    1  UNL1        0.0738
     15 C         -62.9332  -47.7323  -25.6961 C.ar    1  UNL1        0.1430
     16 C         -61.7386  -47.4705  -24.9938 C.ar    1  UNL1        0.0752
     17 C         -61.2530  -48.4106  -24.0557 C.ar    1  UNL1        0.1457
     18 C         -61.9726  -49.6029  -23.8119 C.ar    1  UNL1        0.1050
     19 C         -61.6015  -50.5680  -22.7418 C.2     1  UNL1        0.2095
     20 O         -60.5950  -50.3667  -22.0102 O.2     1  UNL1       -0.2884
     21 C         -62.5052  -51.7399  -22.4406 C.3     1  UNL1        0.2169
     22 O         -61.7567  -52.8105  -21.9222 O.3     1  UNL1       -0.3739
     23 H         -61.6376  -52.6369  -20.9518 H       1  UNL1        0.2110
     24 C         -61.0395  -46.1463  -25.1885 C.3     1  UNL1        0.1697
     25 O         -61.9604  -45.1074  -25.0081 O.3     1  UNL1       -0.3771
     26 H         -61.4613  -44.2646  -25.1687 H       1  UNL1        0.2109
     27 O         -63.4195  -46.7674  -26.5953 O.3     1  UNL1       -0.4715
     28 C         -63.5457  -46.9597  -28.0006 C.3     1  UNL1        0.2525
     29 O         -60.0657  -48.1488  -23.3659 O.3     1  UNL1       -0.4714
     30 C         -60.0185  -47.1908  -22.3140 C.3     1  UNL1        0.2525
     31 C         -69.7329  -55.2376  -25.2912 C.ar    1  UNL1        0.0241
     32 C         -69.4358  -56.1068  -26.3509 C.ar    1  UNL1        0.0026
     33 C         -70.3565  -56.3062  -27.3806 C.ar    1  UNL1        0.0398
     34 C         -71.6007  -55.6483  -27.3619 C.ar    1  UNL1        0.1724
     35 C         -71.9139  -54.7887  -26.2975 C.ar    1  UNL1        0.1722
     36 C         -70.9764  -54.5870  -25.2659 C.ar    1  UNL1        0.0393
     37 O         -72.5526  -55.8258  -28.3784 O.3     1  UNL1       -0.4684
     38 C         -72.5833  -56.9359  -29.2697 C.3     1  UNL1        0.2526
     39 O         -73.1677  -54.1568  -26.2978 O.3     1  UNL1       -0.4684
     40 C         -73.4142  -52.8533  -26.8157 C.3     1  UNL1        0.2526
     41 C         -69.3464  -57.2329  -22.9315 C.3     1  UNL1        0.1897
     42 C         -71.4399  -56.8260  -22.0616 C.3     1  UNL1        0.1743
     43 O         -70.0927  -56.4120  -22.0566 O.3     1  UNL1       -0.3471
@<TRIPOS>BOND
     1    42    43    1
     2    43    41    1
     3    41     1    1
     4     1     2    1
     5     2     3    1
     6     3     4   ar
     7     4     5   ar
     8     5     6   ar
     9     6    11    1
    10    11    12    1
    11    12    13    1
    12    13    14   ar
    13    14    15   ar
    14    15    27    1
    15    27    28    1
    16    15    16   ar
    17    16    24    1
    18    24    25    1
    19    16    17   ar
    20    17    29    1
    21    29    30    1
    22    17    18   ar
    23    18    19    1
    24    19    20    2
    25    19    21    1
    26    21    22    1
    27     6     7   ar
    28     7     8   ar
    29     8     9    1
    30     9    10    1
    31    10    31    1
    32    31    32   ar
    33    32    33   ar
    34    33    34   ar
    35    34    37    1
    36    37    38    1
    37    34    35   ar
    38    35    39    1
    39    39    40    1
    40    35    36   ar
    41    10     1    1
    42    36    31   ar
    43     8     3   ar
    44    21    11    1
    45    18    13   ar
    46    25    26    1
    47    22    23    1
@<TRIPOS>MOLECULE
*****
 43 47 0 0 0
SMALL
GASTEIGER

@<TRIPOS>ATOM
      1 C         -63.6235  -42.1458  -20.7612 C.3     1  UNL1        0.2392
      2 O         -63.1477  -43.2588  -21.5253 O.3     1  UNL1       -0.4694
      3 C         -62.7209  -43.1009  -22.8472 C.ar    1  UNL1        0.1723
      4 C         -62.5284  -44.2111  -23.6719 C.ar    1  UNL1        0.0398
      5 C         -62.1338  -44.0316  -25.0016 C.ar    1  UNL1        0.0026
      6 C         -61.9167  -42.7376  -25.5126 C.ar    1  UNL1        0.0233
      7 C         -62.1099  -41.6261  -24.6729 C.ar    1  UNL1        0.0393
      8 C         -62.4906  -41.8109  -23.3410 C.ar    1  UNL1        0.1725
      9 O         -62.6478  -40.7162  -22.4860 O.3     1  UNL1       -0.4679
     10 C         -62.7634  -40.8907  -21.0696 C.3     1  UNL1        0.2305
     11 C         -61.5285  -42.5389  -26.9587 C.3     1  UNL1        0.2223
     12 O         -60.8083  -43.6800  -27.4268 O.3     1  UNL1       -0.4715
     13 C         -60.5483  -43.8827  -28.7859 C.ar    1  UNL1        0.1477
     14 C         -59.5817  -44.8134  -29.1617 C.ar    1  UNL1        0.0738
     15 C         -59.2853  -45.0309  -30.5176 C.ar    1  UNL1        0.1430
     16 C         -59.9508  -44.2737  -31.5039 C.ar    1  UNL1        0.0752
     17 C         -60.9359  -43.3331  -31.1235 C.ar    1  UNL1        0.1457
     18 C         -61.2631  -43.1642  -29.7585 C.ar    1  UNL1        0.1050
     19 C         -62.3832  -42.3012  -29.2953 C.2     1  UNL1        0.2095
     20 O         -63.0847  -41.6546  -30.1191 O.2     1  UNL1       -0.2884
     21 C         -62.7694  -42.2907  -27.8353 C.3     1  UNL1        0.2169
     22 O         -63.3392  -41.0527  -27.4919 O.3     1  UNL1       -0.3739
     23 H         -64.2953  -41.0909  -27.7574 H       1  UNL1        0.2110
     24 C         -59.6650  -44.5417  -32.9621 C.3     1  UNL1        0.1697
     25 O         -59.4668  -43.3246  -33.6248 O.3     1  UNL1       -0.3771
     26 H         -59.3070  -43.5516  -34.5777 H       1  UNL1        0.2109
     27 O         -58.3376  -45.9884  -30.9191 O.3     1  UNL1       -0.4715
     28 C         -58.2986  -47.3343  -30.4557 C.3     1  UNL1        0.2525
     29 O         -61.5890  -42.5813  -32.1045 O.3     1  UNL1       -0.4714
     30 C         -62.6491  -43.1357  -32.8761 C.3     1  UNL1        0.2525
     31 C         -63.3491  -39.6439  -20.4484 C.ar    1  UNL1        0.0241
     32 C         -64.5953  -39.6861  -19.8066 C.ar    1  UNL1        0.0026
     33 C         -65.1176  -38.5420  -19.2016 C.ar    1  UNL1        0.0398
     34 C         -64.3944  -37.3345  -19.2158 C.ar    1  UNL1        0.1724
     35 C         -63.1391  -37.2862  -19.8418 C.ar    1  UNL1        0.1722
     36 C         -62.6221  -38.4432  -20.4565 C.ar    1  UNL1        0.0393
     37 O         -64.8863  -36.1644  -18.6161 O.3     1  UNL1       -0.4684
     38 C         -65.7191  -35.2119  -19.2696 C.3     1  UNL1        0.2526
     39 O         -62.4338  -36.0722  -19.8284 O.3     1  UNL1       -0.4684
     40 C         -61.6970  -35.5548  -20.9318 C.3     1  UNL1        0.2526
     41 C         -63.6263  -42.5142  -19.2723 C.3     1  UNL1        0.1897
     42 C         -65.3629  -42.7164  -17.7728 C.3     1  UNL1        0.1743
     43 O         -64.8001  -43.2345  -18.9566 O.3     1  UNL1       -0.3471
@<TRIPOS>BOND
     1    42    43    1
     2    43    41    1
     3    41     1    1
     4     1     2    1
     5     2     3    1
     6     3     4   ar
     7     4     5   ar
     8     5     6   ar
     9     6    11    1
    10    11    12    1
    11    12    13    1
    12    13    14   ar
    13    14    15   ar
    14    15    27    1
    15    27    28    1
    16    15    16   ar
    17    16    24    1
    18    24    25    1
    19    16    17   ar
    20    17    29    1
    21    29    30    1
    22    17    18   ar
    23    18    19    1
    24    19    20    2
    25    19    21    1
    26    21    22    1
    27     6     7   ar
    28     7     8   ar
    29     8     9    1
    30     9    10    1
    31    10    31    1
    32    31    32   ar
    33    32    33   ar
    34    33    34   ar
    35    34    37    1
    36    37    38    1
    37    34    35   ar
    38    35    39    1
    39    39    40    1
    40    35    36   ar
    41    10     1    1
    42    36    31   ar
    43     8     3   ar
    44    21    11    1
    45    18    13   ar
    46    25    26    1
    47    22    23    1
