@<TRIPOS>MOLECULE
*****
 37 40 0 0 0
SMALL
GASTEIGER

@<TRIPOS>ATOM
      1 N          -9.3208  -10.6106   31.7712 N.am    1  UNL1       -0.2685
      2 C          -9.0412  -11.4564   32.8998 C.2     1  UNL1        0.2672
      3 O          -7.9263  -11.3626   33.4804 O.2     1  UNL1       -0.2682
      4 C         -10.0448  -12.4395   33.3601 C.ar    1  UNL1        0.1347
      5 C         -11.0768  -12.8771   32.5155 C.ar    1  UNL1        0.0238
      6 C         -11.9945  -13.8275   32.9831 C.ar    1  UNL1        0.0031
      7 C         -13.0335  -14.2904   32.1607 C.ar    1  UNL1        0.0001
      8 C         -13.9387  -15.2408   32.6431 C.ar    1  UNL1        0.0000
      9 C         -13.8141  -15.7344   33.9451 C.ar    1  UNL1        0.0000
     10 C         -12.7835  -15.2810   34.7737 C.ar    1  UNL1        0.0015
     11 C         -11.8705  -14.3279   34.2991 C.ar    1  UNL1        0.0192
     12 C         -10.8299  -13.8591   35.1079 C.ar    1  UNL1        0.0989
     13 N          -9.9549  -12.9416   34.6226 N.ar    1  UNL1       -0.2393
     14 C          -9.9840   -9.3036   31.9551 C.3     1  UNL1        0.1007
     15 C         -11.3922   -9.3245   31.3450 C.3     1  UNL1        0.0265
     16 C          -7.0330   -6.8859   31.5347 C.ar    1  UNL1        0.0619
     17 C          -7.3330   -6.2990   30.2936 C.ar    1  UNL1        0.1406
     18 F          -6.4722   -5.4263   29.7106 F       1  UNL1       -0.2044
     19 C          -8.5196   -6.6213   29.6353 C.ar    1  UNL1        0.0293
     20 C          -9.4028   -7.5493   30.1871 C.ar    1  UNL1        0.0018
     21 C          -9.1158   -8.1700   31.4193 C.ar    1  UNL1        0.0231
     22 C          -7.9257   -7.8203   32.0911 C.ar    1  UNL1        0.1382
     23 F          -7.6177   -8.4040   33.2774 F       1  UNL1       -0.2046
     24 C          -5.7222   -6.6061   32.2196 C.3     1  UNL1        0.1731
     25 C          -4.2351   -7.7586   33.5494 C.3     1  UNL1        0.1746
     26 O          -5.0327   -7.8262   32.3894 O.3     1  UNL1       -0.3462
     27 C          -8.8220  -11.0256   30.4529 C.3     1  UNL1        0.1207
     28 C          -7.3589  -10.6953   30.3279 C.ar    1  UNL1       -0.0021
     29 C          -6.4669  -11.0285   31.3585 C.ar    1  UNL1       -0.0026
     30 C          -5.0946  -10.8355   31.1896 C.ar    1  UNL1       -0.0001
     31 C          -4.5996  -10.3213   29.9886 C.ar    1  UNL1        0.0064
     32 C          -5.4781   -9.9830   28.9441 C.ar    1  UNL1        0.0752
     33 C          -6.8599  -10.1625   29.1296 C.ar    1  UNL1        0.0038
     34 C          -4.9597   -9.4653   27.6587 C.2     1  UNL1        0.3380
     35 O          -3.8149   -8.9407   27.5963 O.2     1  UNL1       -0.2451
     36 O          -5.7302   -9.5587   26.5024 O.3     1  UNL1       -0.4771
     37 H          -5.3835   -9.2111   25.6164 H       1  UNL1        0.2954
@<TRIPOS>BOND
     1    25    26    1
     2    26    24    1
     3    24    16    1
     4    16    17   ar
     5    17    18    1
     6    17    19   ar
     7    19    20   ar
     8    20    21   ar
     9    21    14    1
    10    14    15    1
    11    14     1    1
    12     1    27    1
    13    27    28    1
    14    28    29   ar
    15    29    30   ar
    16    30    31   ar
    17    31    32   ar
    18    32    34    1
    19    34    35    2
    20    34    36    1
    21    32    33   ar
    22     1     2   am
    23     2     3    2
    24     2     4    1
    25     4     5   ar
    26     5     6   ar
    27     6     7   ar
    28     7     8   ar
    29     8     9   ar
    30     9    10   ar
    31    10    11   ar
    32    11    12   ar
    33    12    13   ar
    34    21    22   ar
    35    22    23    1
    36    22    16   ar
    37    33    28   ar
    38    13     4   ar
    39    11     6   ar
    40    36    37    1
@<TRIPOS>MOLECULE
*****
 37 40 0 0 0
SMALL
GASTEIGER

@<TRIPOS>ATOM
      1 N          -9.4384  -10.3584   31.5749 N.am    1  UNL1       -0.2685
      2 C          -9.0768  -11.1841   32.6951 C.2     1  UNL1        0.2672
      3 O          -7.9510  -11.0271   33.2398 O.2     1  UNL1       -0.2682
      4 C         -10.0096  -12.2195   33.1884 C.ar    1  UNL1        0.1347
      5 C         -11.0338  -12.7256   32.3732 C.ar    1  UNL1        0.0238
      6 C         -11.8826  -13.7234   32.8714 C.ar    1  UNL1        0.0031
      7 C         -12.9117  -14.2549   32.0788 C.ar    1  UNL1        0.0001
      8 C         -13.7477  -15.2517   32.5915 C.ar    1  UNL1        0.0000
      9 C         -13.5632  -15.7238   33.8944 C.ar    1  UNL1        0.0000
     10 C         -12.5417  -15.2022   34.6936 C.ar    1  UNL1        0.0015
     11 C         -11.6979  -14.2021   34.1884 C.ar    1  UNL1        0.0192
     12 C         -10.6678  -13.6647   34.9674 C.ar    1  UNL1        0.0989
     13 N          -9.8602  -12.7025   34.4529 N.ar    1  UNL1       -0.2393
     14 C         -10.1665   -9.0894   31.7782 C.3     1  UNL1        0.1007
     15 C         -11.5386   -9.1408   31.0919 C.3     1  UNL1        0.0265
     16 C          -7.2609   -6.5917   31.5570 C.ar    1  UNL1        0.0619
     17 C          -7.5785   -5.9045   30.3731 C.ar    1  UNL1        0.1406
     18 F          -6.7365   -4.9692   29.8646 F       1  UNL1       -0.2044
     19 C          -8.7630   -6.1897   29.6943 C.ar    1  UNL1        0.0293
     20 C          -9.6267   -7.1778   30.1671 C.ar    1  UNL1        0.0018
     21 C          -9.3215   -7.8981   31.3393 C.ar    1  UNL1        0.0231
     22 C          -8.1339   -7.5869   32.0338 C.ar    1  UNL1        0.1382
     23 F          -7.8086   -8.2659   33.1634 F       1  UNL1       -0.2046
     24 C          -5.9512   -6.3491   32.2580 C.3     1  UNL1        0.1731
     25 C          -4.3094   -7.4175   33.4707 C.3     1  UNL1        0.1746
     26 O          -5.3535   -7.5962   32.5411 O.3     1  UNL1       -0.3462
     27 C          -8.9596  -10.7494   30.2420 C.3     1  UNL1        0.1207
     28 C          -7.4868  -10.4641   30.1191 C.ar    1  UNL1       -0.0021
     29 C          -7.0247   -9.5059   29.2043 C.ar    1  UNL1       -0.0026
     30 C          -5.6743   -9.1527   29.1788 C.ar    1  UNL1       -0.0001
     31 C          -4.7766   -9.7419   30.0726 C.ar    1  UNL1        0.0064
     32 C          -5.2216  -10.7031   30.9975 C.ar    1  UNL1        0.0752
     33 C          -6.5794  -11.0668   31.0035 C.ar    1  UNL1        0.0038
     34 C          -4.2830  -11.3102   31.9667 C.2     1  UNL1        0.3380
     35 O          -4.0079  -12.5392   31.9057 O.2     1  UNL1       -0.2451
     36 O          -3.6885  -10.5272   32.9530 O.3     1  UNL1       -0.4771
     37 H          -3.0415  -10.9318   33.6191 H       1  UNL1        0.2954
@<TRIPOS>BOND
     1    25    26    1
     2    26    24    1
     3    24    16    1
     4    16    17   ar
     5    17    18    1
     6    17    19   ar
     7    19    20   ar
     8    20    21   ar
     9    21    14    1
    10    14    15    1
    11    14     1    1
    12     1    27    1
    13    27    28    1
    14    28    29   ar
    15    29    30   ar
    16    30    31   ar
    17    31    32   ar
    18    32    34    1
    19    34    35    2
    20    34    36    1
    21    32    33   ar
    22     1     2   am
    23     2     3    2
    24     2     4    1
    25     4     5   ar
    26     5     6   ar
    27     6     7   ar
    28     7     8   ar
    29     8     9   ar
    30     9    10   ar
    31    10    11   ar
    32    11    12   ar
    33    12    13   ar
    34    21    22   ar
    35    22    23    1
    36    22    16   ar
    37    33    28   ar
    38    13     4   ar
    39    11     6   ar
    40    36    37    1
@<TRIPOS>MOLECULE
*****
 37 40 0 0 0
SMALL
GASTEIGER

@<TRIPOS>ATOM
      1 N          -9.7361  -10.6433   30.8775 N.am    1  UNL1       -0.2685
      2 C          -9.8296  -10.7603   32.3075 C.2     1  UNL1        0.2672
      3 O          -9.2790   -9.8908   33.0353 O.2     1  UNL1       -0.2682
      4 C         -10.5476  -11.9005   32.9158 C.ar    1  UNL1        0.1347
      5 C         -11.6502  -12.4907   32.2789 C.ar    1  UNL1        0.0238
      6 C         -12.2888  -13.5847   32.8784 C.ar    1  UNL1        0.0031
      7 C         -13.3896  -14.2013   32.2634 C.ar    1  UNL1        0.0001
      8 C         -14.0132  -15.2934   32.8748 C.ar    1  UNL1        0.0000
      9 C         -13.5443  -15.7765   34.1001 C.ar    1  UNL1        0.0000
     10 C         -12.4488  -15.1707   34.7224 C.ar    1  UNL1        0.0015
     11 C         -11.8166  -14.0747   34.1171 C.ar    1  UNL1        0.0192
     12 C         -10.7180  -13.4518   34.7187 C.ar    1  UNL1        0.0989
     13 N         -10.1191  -12.3971   34.1091 N.ar    1  UNL1       -0.2393
     14 C         -10.7765   -9.9287   30.1103 C.3     1  UNL1        0.1007
     15 C         -10.5161  -10.0563   28.6030 C.3     1  UNL1        0.0265
     16 C         -10.1268   -6.1616   30.4529 C.ar    1  UNL1        0.0619
     17 C         -11.2702   -5.7483   31.1574 C.ar    1  UNL1        0.1406
     18 F         -11.4917   -4.4340   31.4143 F       1  UNL1       -0.2044
     19 C         -12.2047   -6.6893   31.5893 C.ar    1  UNL1        0.0293
     20 C         -12.0282   -8.0426   31.3008 C.ar    1  UNL1        0.0018
     21 C         -10.9021   -8.4819   30.5761 C.ar    1  UNL1        0.0231
     22 C          -9.9490   -7.5272   30.1642 C.ar    1  UNL1        0.1382
     23 F          -8.8559   -7.9173   29.4601 F       1  UNL1       -0.2046
     24 C          -9.1495   -5.1513   29.9146 C.3     1  UNL1        0.1731
     25 C          -6.8628   -5.1688   30.1954 C.3     1  UNL1        0.1746
     26 O          -8.1007   -4.9972   30.8469 O.3     1  UNL1       -0.3462
     27 C          -8.5227  -11.1456   30.2184 C.3     1  UNL1        0.1207
     28 C          -7.3769  -10.1992   30.4573 C.ar    1  UNL1       -0.0021
     29 C          -6.4678   -9.9132   29.4276 C.ar    1  UNL1       -0.0026
     30 C          -5.4814   -8.9425   29.6109 C.ar    1  UNL1       -0.0001
     31 C          -5.4010   -8.2408   30.8162 C.ar    1  UNL1        0.0064
     32 C          -6.3043   -8.5127   31.8591 C.ar    1  UNL1        0.0752
     33 C          -7.2823   -9.5050   31.6731 C.ar    1  UNL1        0.0038
     34 C          -6.2442   -7.7538   33.1276 C.2     1  UNL1        0.3380
     35 O          -7.1754   -6.9652   33.4450 O.2     1  UNL1       -0.2451
     36 O          -5.1598   -7.9085   33.9875 O.3     1  UNL1       -0.4771
     37 H          -5.1105   -7.3969   34.8604 H       1  UNL1        0.2954
@<TRIPOS>BOND
     1    25    26    1
     2    26    24    1
     3    24    16    1
     4    16    17   ar
     5    17    18    1
     6    17    19   ar
     7    19    20   ar
     8    20    21   ar
     9    21    14    1
    10    14    15    1
    11    14     1    1
    12     1    27    1
    13    27    28    1
    14    28    29   ar
    15    29    30   ar
    16    30    31   ar
    17    31    32   ar
    18    32    34    1
    19    34    35    2
    20    34    36    1
    21    32    33   ar
    22     1     2   am
    23     2     3    2
    24     2     4    1
    25     4     5   ar
    26     5     6   ar
    27     6     7   ar
    28     7     8   ar
    29     8     9   ar
    30     9    10   ar
    31    10    11   ar
    32    11    12   ar
    33    12    13   ar
    34    21    22   ar
    35    22    23    1
    36    22    16   ar
    37    33    28   ar
    38    13     4   ar
    39    11     6   ar
    40    36    37    1
@<TRIPOS>MOLECULE
*****
 37 40 0 0 0
SMALL
GASTEIGER

@<TRIPOS>ATOM
      1 N         -10.7750   -9.4252   30.2053 N.am    1  UNL1       -0.2685
      2 C          -9.8041   -9.2047   29.1680 C.2     1  UNL1        0.2672
      3 O         -10.1886   -8.7968   28.0390 O.2     1  UNL1       -0.2682
      4 C          -8.3722   -9.4736   29.4193 C.ar    1  UNL1        0.1347
      5 C          -7.9636  -10.3677   30.4209 C.ar    1  UNL1        0.0238
      6 C          -6.5968  -10.6121   30.6116 C.ar    1  UNL1        0.0031
      7 C          -6.1564  -11.5059   31.6001 C.ar    1  UNL1        0.0001
      8 C          -4.7888  -11.7396   31.7748 C.ar    1  UNL1        0.0000
      9 C          -3.8540  -11.0853   30.9669 C.ar    1  UNL1        0.0000
     10 C          -4.2805  -10.1928   29.9790 C.ar    1  UNL1        0.0015
     11 C          -5.6500   -9.9518   29.7960 C.ar    1  UNL1        0.0192
     12 C          -6.1023   -9.0644   28.8138 C.ar    1  UNL1        0.0989
     13 N          -7.4336   -8.8536   28.6518 N.ar    1  UNL1       -0.2393
     14 C         -11.1143   -8.3510   31.1606 C.3     1  UNL1        0.1007
     15 C         -12.5922   -7.9588   31.0263 C.3     1  UNL1        0.0265
     16 C          -7.9778   -6.1599   31.4635 C.ar    1  UNL1        0.0619
     17 C          -8.2535   -5.1533   30.5226 C.ar    1  UNL1        0.1406
     18 F          -7.3343   -4.1958   30.2387 F       1  UNL1       -0.2044
     19 C          -9.4773   -5.1365   29.8537 C.ar    1  UNL1        0.0293
     20 C         -10.4243   -6.1331   30.0901 C.ar    1  UNL1        0.0018
     21 C         -10.1644   -7.1672   31.0117 C.ar    1  UNL1        0.0231
     22 C          -8.9346   -7.1634   31.7025 C.ar    1  UNL1        0.1382
     23 F          -8.6517   -8.1483   32.5930 F       1  UNL1       -0.2046
     24 C          -6.6333   -6.2348   32.1362 C.3     1  UNL1        0.1731
     25 C          -5.1017   -7.7748   32.9048 C.3     1  UNL1        0.1746
     26 O          -6.1057   -7.5304   31.9464 O.3     1  UNL1       -0.3462
     27 C         -11.5043  -10.7008   30.2128 C.3     1  UNL1        0.1207
     28 C         -11.2988  -11.4042   31.5275 C.ar    1  UNL1       -0.0021
     29 C         -12.1332  -12.4693   31.8992 C.ar    1  UNL1       -0.0026
     30 C         -11.8651  -13.2005   33.0577 C.ar    1  UNL1       -0.0001
     31 C         -10.7570  -12.8847   33.8478 C.ar    1  UNL1        0.0064
     32 C          -9.9087  -11.8217   33.4905 C.ar    1  UNL1        0.0752
     33 C         -10.1968  -11.0784   32.3328 C.ar    1  UNL1        0.0038
     34 C          -8.7170  -11.4994   34.3058 C.2     1  UNL1        0.3380
     35 O          -7.9436  -10.5637   33.9650 O.2     1  UNL1       -0.2451
     36 O          -8.4413  -12.2237   35.4630 O.3     1  UNL1       -0.4771
     37 H          -7.6304  -12.0088   36.0306 H       1  UNL1        0.2954
@<TRIPOS>BOND
     1    25    26    1
     2    26    24    1
     3    24    16    1
     4    16    17   ar
     5    17    18    1
     6    17    19   ar
     7    19    20   ar
     8    20    21   ar
     9    21    14    1
    10    14    15    1
    11    14     1    1
    12     1    27    1
    13    27    28    1
    14    28    29   ar
    15    29    30   ar
    16    30    31   ar
    17    31    32   ar
    18    32    34    1
    19    34    35    2
    20    34    36    1
    21    32    33   ar
    22     1     2   am
    23     2     3    2
    24     2     4    1
    25     4     5   ar
    26     5     6   ar
    27     6     7   ar
    28     7     8   ar
    29     8     9   ar
    30     9    10   ar
    31    10    11   ar
    32    11    12   ar
    33    12    13   ar
    34    21    22   ar
    35    22    23    1
    36    22    16   ar
    37    33    28   ar
    38    13     4   ar
    39    11     6   ar
    40    36    37    1
@<TRIPOS>MOLECULE
*****
 37 40 0 0 0
SMALL
GASTEIGER

@<TRIPOS>ATOM
      1 N         -10.4897   -8.3782   30.9376 N.am    1  UNL1       -0.2685
      2 C         -11.6717   -9.1231   31.2768 C.2     1  UNL1        0.2672
      3 O         -12.7962   -8.7079   30.8868 O.2     1  UNL1       -0.2682
      4 C         -11.5688  -10.3523   32.0917 C.ar    1  UNL1        0.1347
      5 C         -12.4524  -11.4265   31.9049 C.ar    1  UNL1        0.0238
      6 C         -12.3063  -12.5831   32.6828 C.ar    1  UNL1        0.0031
      7 C         -13.1695  -13.6772   32.5152 C.ar    1  UNL1        0.0001
      8 C         -13.0075  -14.8242   33.2985 C.ar    1  UNL1        0.0000
      9 C         -11.9864  -14.8876   34.2513 C.ar    1  UNL1        0.0000
     10 C         -11.1204  -13.8044   34.4274 C.ar    1  UNL1        0.0015
     11 C         -11.2747  -12.6494   33.6466 C.ar    1  UNL1        0.0192
     12 C         -10.4206  -11.5526   33.8027 C.ar    1  UNL1        0.0989
     13 N         -10.5864  -10.4490   33.0298 N.ar    1  UNL1       -0.2393
     14 C          -9.7270   -8.6919   29.7121 C.3     1  UNL1        0.1007
     15 C         -10.6478   -9.3046   28.6478 C.3     1  UNL1        0.0265
     16 C          -6.0869   -9.8748   29.9949 C.ar    1  UNL1        0.0619
     17 C          -6.2216  -10.9753   30.8583 C.ar    1  UNL1        0.1406
     18 F          -5.1298  -11.6471   31.3045 F       1  UNL1       -0.2044
     19 C          -7.4867  -11.3822   31.2817 C.ar    1  UNL1        0.0293
     20 C          -8.6244  -10.6840   30.8770 C.ar    1  UNL1        0.0018
     21 C          -8.5162   -9.5629   30.0299 C.ar    1  UNL1        0.0231
     22 C          -7.2355   -9.1726   29.5859 C.ar    1  UNL1        0.1382
     23 F          -7.0968   -8.0939   28.7734 F       1  UNL1       -0.2046
     24 C          -4.7247   -9.3777   29.5912 C.3     1  UNL1        0.1731
     25 C          -4.7400   -9.8055   27.3274 C.3     1  UNL1        0.1746
     26 O          -4.2225  -10.2160   28.5724 O.3     1  UNL1       -0.3462
     27 C         -10.1330   -7.2244   31.7746 C.3     1  UNL1        0.1207
     28 C          -8.7366   -6.7651   31.4512 C.ar    1  UNL1       -0.0021
     29 C          -8.5228   -5.7818   30.4734 C.ar    1  UNL1       -0.0026
     30 C          -7.2422   -5.2675   30.2625 C.ar    1  UNL1       -0.0001
     31 C          -6.1675   -5.7195   31.0323 C.ar    1  UNL1        0.0064
     32 C          -6.3628   -6.7034   32.0178 C.ar    1  UNL1        0.0752
     33 C          -7.6519   -7.2296   32.2106 C.ar    1  UNL1        0.0038
     34 C          -5.2356   -7.1662   32.8569 C.2     1  UNL1        0.3380
     35 O          -4.0631   -6.7609   32.6320 O.2     1  UNL1       -0.2451
     36 O          -5.4606   -8.0505   33.9090 O.3     1  UNL1       -0.4771
     37 H          -4.6968   -8.3707   34.4922 H       1  UNL1        0.2954
@<TRIPOS>BOND
     1    25    26    1
     2    26    24    1
     3    24    16    1
     4    16    17   ar
     5    17    18    1
     6    17    19   ar
     7    19    20   ar
     8    20    21   ar
     9    21    14    1
    10    14    15    1
    11    14     1    1
    12     1    27    1
    13    27    28    1
    14    28    29   ar
    15    29    30   ar
    16    30    31   ar
    17    31    32   ar
    18    32    34    1
    19    34    35    2
    20    34    36    1
    21    32    33   ar
    22     1     2   am
    23     2     3    2
    24     2     4    1
    25     4     5   ar
    26     5     6   ar
    27     6     7   ar
    28     7     8   ar
    29     8     9   ar
    30     9    10   ar
    31    10    11   ar
    32    11    12   ar
    33    12    13   ar
    34    21    22   ar
    35    22    23    1
    36    22    16   ar
    37    33    28   ar
    38    13     4   ar
    39    11     6   ar
    40    36    37    1
@<TRIPOS>MOLECULE
*****
 37 40 0 0 0
SMALL
GASTEIGER

@<TRIPOS>ATOM
      1 N         -10.7661   -9.5388   30.4982 N.am    1  UNL1       -0.2685
      2 C          -9.8682   -9.3922   29.3849 C.2     1  UNL1        0.2672
      3 O         -10.3335   -9.0968   28.2513 O.2     1  UNL1       -0.2682
      4 C          -8.4166   -9.6059   29.5661 C.ar    1  UNL1        0.1347
      5 C          -7.9244  -10.4453   30.5775 C.ar    1  UNL1        0.0238
      6 C          -6.5419  -10.6391   30.7009 C.ar    1  UNL1        0.0031
      7 C          -6.0186  -11.4777   31.6974 C.ar    1  UNL1        0.0001
      8 C          -4.6365  -11.6613   31.8044 C.ar    1  UNL1        0.0000
      9 C          -3.7695  -11.0118   30.9207 C.ar    1  UNL1        0.0000
     10 C          -4.2787  -10.1741   29.9240 C.ar    1  UNL1        0.0015
     11 C          -5.6635   -9.9834   29.8086 C.ar    1  UNL1        0.0192
     12 C          -6.1980   -9.1514   28.8193 C.ar    1  UNL1        0.0989
     13 N          -7.5424   -8.9889   28.7238 N.ar    1  UNL1       -0.2393
     14 C         -11.0745   -8.3899   31.3739 C.3     1  UNL1        0.1007
     15 C         -12.5505   -7.9910   31.2379 C.3     1  UNL1        0.0265
     16 C          -7.9096   -6.2202   31.4480 C.ar    1  UNL1        0.0619
     17 C          -8.1923   -5.2868   30.4363 C.ar    1  UNL1        0.1406
     18 F          -7.2684   -4.3656   30.0619 F       1  UNL1       -0.2044
     19 C          -9.4282   -5.3073   29.7903 C.ar    1  UNL1        0.0293
     20 C         -10.3812   -6.2708   30.1210 C.ar    1  UNL1        0.0018
     21 C         -10.1151   -7.2330   31.1158 C.ar    1  UNL1        0.0231
     22 C          -8.8724   -7.1903   31.7819 C.ar    1  UNL1        0.1382
     23 F          -8.5833   -8.1061   32.7414 F       1  UNL1       -0.2046
     24 C          -6.5536   -6.2587   32.1001 C.3     1  UNL1        0.1731
     25 C          -5.0885   -7.8408   32.9118 C.3     1  UNL1        0.1746
     26 O          -5.9748   -7.5243   31.8627 O.3     1  UNL1       -0.3462
     27 C         -11.4582  -10.8240   30.6666 C.3     1  UNL1        0.1207
     28 C         -10.9441  -11.5295   31.8928 C.ar    1  UNL1       -0.0021
     29 C          -9.9239  -10.9544   32.6655 C.ar    1  UNL1       -0.0026
     30 C          -9.5351  -11.5465   33.8684 C.ar    1  UNL1       -0.0001
     31 C         -10.1680  -12.7085   34.3169 C.ar    1  UNL1        0.0064
     32 C         -11.1934  -13.2983   33.5567 C.ar    1  UNL1        0.0752
     33 C         -11.5656  -12.7063   32.3374 C.ar    1  UNL1        0.0038
     34 C         -11.8885  -14.5122   34.0387 C.2     1  UNL1        0.3380
     35 O         -12.1730  -15.4452   33.2398 O.2     1  UNL1       -0.2451
     36 O         -12.2297  -14.6385   35.3830 O.3     1  UNL1       -0.4771
     37 H         -12.7021  -15.4670   35.7244 H       1  UNL1        0.2954
@<TRIPOS>BOND
     1    25    26    1
     2    26    24    1
     3    24    16    1
     4    16    17   ar
     5    17    18    1
     6    17    19   ar
     7    19    20   ar
     8    20    21   ar
     9    21    14    1
    10    14    15    1
    11    14     1    1
    12     1    27    1
    13    27    28    1
    14    28    29   ar
    15    29    30   ar
    16    30    31   ar
    17    31    32   ar
    18    32    34    1
    19    34    35    2
    20    34    36    1
    21    32    33   ar
    22     1     2   am
    23     2     3    2
    24     2     4    1
    25     4     5   ar
    26     5     6   ar
    27     6     7   ar
    28     7     8   ar
    29     8     9   ar
    30     9    10   ar
    31    10    11   ar
    32    11    12   ar
    33    12    13   ar
    34    21    22   ar
    35    22    23    1
    36    22    16   ar
    37    33    28   ar
    38    13     4   ar
    39    11     6   ar
    40    36    37    1
@<TRIPOS>MOLECULE
*****
 37 40 0 0 0
SMALL
GASTEIGER

@<TRIPOS>ATOM
      1 N         -10.5923  -10.8125   30.3156 N.am    1  UNL1       -0.2685
      2 C         -10.4858   -9.8163   29.2844 C.2     1  UNL1        0.2672
      3 O         -10.9498  -10.0619   28.1384 O.2     1  UNL1       -0.2682
      4 C          -9.8206   -8.5256   29.5620 C.ar    1  UNL1        0.1347
      5 C          -8.4320   -8.4472   29.7504 C.ar    1  UNL1        0.0238
      6 C          -7.8375   -7.2007   29.9887 C.ar    1  UNL1        0.0031
      7 C          -6.4508   -7.0881   30.1742 C.ar    1  UNL1        0.0001
      8 C          -5.8744   -5.8358   30.4086 C.ar    1  UNL1        0.0000
      9 C          -6.6748   -4.6907   30.4594 C.ar    1  UNL1        0.0000
     10 C          -8.0572   -4.7901   30.2762 C.ar    1  UNL1        0.0015
     11 C          -8.6448   -6.0417   30.0405 C.ar    1  UNL1        0.0192
     12 C         -10.0253   -6.1676   29.8528 C.ar    1  UNL1        0.0989
     13 N         -10.5690   -7.3894   29.6192 N.ar    1  UNL1       -0.2393
     14 C         -11.7503  -10.8271   31.2325 C.3     1  UNL1        0.1007
     15 C         -12.1378   -9.3967   31.6322 C.3     1  UNL1        0.0265
     16 C         -11.9760  -13.8046   33.6436 C.ar    1  UNL1        0.0619
     17 C         -10.8412  -13.5956   34.4457 C.ar    1  UNL1        0.1406
     18 F         -10.4850  -14.4976   35.3954 F       1  UNL1       -0.2044
     19 C         -10.0540  -12.4590   34.2624 C.ar    1  UNL1        0.0293
     20 C         -10.3682  -11.5368   33.2641 C.ar    1  UNL1        0.0018
     21 C         -11.4873  -11.7335   32.4305 C.ar    1  UNL1        0.0231
     22 C         -12.2928  -12.8727   32.6383 C.ar    1  UNL1        0.1382
     23 F         -13.3750  -13.0937   31.8490 F       1  UNL1       -0.2046
     24 C         -12.7904  -15.0632   33.7785 C.3     1  UNL1        0.1731
     25 C         -12.8582  -16.6437   32.1035 C.3     1  UNL1        0.1746
     26 O         -12.0889  -16.1225   33.1631 O.3     1  UNL1       -0.3462
     27 C          -9.5852  -11.8817   30.3538 C.3     1  UNL1        0.1207
     28 C          -8.2289  -11.3017   30.6532 C.ar    1  UNL1       -0.0021
     29 C          -7.8460  -11.0425   31.9779 C.ar    1  UNL1       -0.0026
     30 C          -6.5456  -10.6230   32.2641 C.ar    1  UNL1       -0.0001
     31 C          -5.6135  -10.4709   31.2347 C.ar    1  UNL1        0.0064
     32 C          -5.9785  -10.7273   29.9011 C.ar    1  UNL1        0.0752
     33 C          -7.2952  -11.1308   29.6197 C.ar    1  UNL1        0.0038
     34 C          -4.9894  -10.5967   28.8087 C.2     1  UNL1        0.3380
     35 O          -3.8623  -10.0750   29.0262 O.2     1  UNL1       -0.2451
     36 O          -5.2921  -11.0555   27.5291 O.3     1  UNL1       -0.4771
     37 H          -4.6209  -10.9746   26.7748 H       1  UNL1        0.2954
@<TRIPOS>BOND
     1    25    26    1
     2    26    24    1
     3    24    16    1
     4    16    17   ar
     5    17    18    1
     6    17    19   ar
     7    19    20   ar
     8    20    21   ar
     9    21    14    1
    10    14    15    1
    11    14     1    1
    12     1    27    1
    13    27    28    1
    14    28    29   ar
    15    29    30   ar
    16    30    31   ar
    17    31    32   ar
    18    32    34    1
    19    34    35    2
    20    34    36    1
    21    32    33   ar
    22     1     2   am
    23     2     3    2
    24     2     4    1
    25     4     5   ar
    26     5     6   ar
    27     6     7   ar
    28     7     8   ar
    29     8     9   ar
    30     9    10   ar
    31    10    11   ar
    32    11    12   ar
    33    12    13   ar
    34    21    22   ar
    35    22    23    1
    36    22    16   ar
    37    33    28   ar
    38    13     4   ar
    39    11     6   ar
    40    36    37    1
@<TRIPOS>MOLECULE
*****
 37 40 0 0 0
SMALL
GASTEIGER

@<TRIPOS>ATOM
      1 N         -10.8161   -8.0249   30.6438 N.am    1  UNL1       -0.2685
      2 C         -10.1390   -8.4553   29.4506 C.2     1  UNL1        0.2672
      3 O         -10.6408   -8.1882   28.3256 O.2     1  UNL1       -0.2682
      4 C          -8.8777   -9.2207   29.5454 C.ar    1  UNL1        0.1347
      5 C          -7.6690   -8.6958   29.0625 C.ar    1  UNL1        0.0238
      6 C          -6.4912   -9.4443   29.1924 C.ar    1  UNL1        0.0031
      7 C          -5.2654   -8.9444   28.7259 C.ar    1  UNL1        0.0001
      8 C          -4.0998   -9.7040   28.8660 C.ar    1  UNL1        0.0000
      9 C          -4.1487  -10.9635   29.4708 C.ar    1  UNL1        0.0000
     10 C          -5.3636  -11.4721   29.9394 C.ar    1  UNL1        0.0015
     11 C          -6.5383  -10.7179   29.8034 C.ar    1  UNL1        0.0192
     12 C          -7.7662  -11.2038   30.2651 C.ar    1  UNL1        0.0989
     13 N          -8.8877  -10.4514   30.1280 N.ar    1  UNL1       -0.2393
     14 C         -10.4965   -6.7229   31.2636 C.3     1  UNL1        0.1007
     15 C         -11.3443   -5.6068   30.6378 C.3     1  UNL1        0.0265
     16 C          -6.7115   -7.1218   31.7586 C.ar    1  UNL1        0.0619
     17 C          -6.2144   -6.1503   30.8733 C.ar    1  UNL1        0.1406
     18 F          -4.8798   -6.0168   30.6651 F       1  UNL1       -0.2044
     19 C          -7.0941   -5.3176   30.1820 C.ar    1  UNL1        0.0293
     20 C          -8.4726   -5.4610   30.3400 C.ar    1  UNL1        0.0018
     21 C          -8.9986   -6.4423   31.2040 C.ar    1  UNL1        0.0231
     22 C          -8.1021   -7.2642   31.9185 C.ar    1  UNL1        0.1382
     23 F          -8.5769   -8.2224   32.7548 F       1  UNL1       -0.2046
     24 C          -5.7784   -8.0775   32.4526 C.3     1  UNL1        0.1731
     25 C          -4.0240   -7.1811   33.6470 C.3     1  UNL1        0.1746
     26 O          -5.3929   -7.5139   33.6882 O.3     1  UNL1       -0.3462
     27 C         -11.9137   -8.8564   31.1566 C.3     1  UNL1        0.1207
     28 C         -11.3760  -10.1732   31.6492 C.ar    1  UNL1       -0.0021
     29 C         -11.7584  -11.3716   31.0278 C.ar    1  UNL1       -0.0026
     30 C         -11.1647  -12.5781   31.4031 C.ar    1  UNL1       -0.0001
     31 C         -10.1769  -12.5982   32.3908 C.ar    1  UNL1        0.0064
     32 C          -9.7797  -11.4070   33.0238 C.ar    1  UNL1        0.0752
     33 C         -10.3962  -10.1993   32.6534 C.ar    1  UNL1        0.0038
     34 C          -8.7140  -11.4158   34.0499 C.2     1  UNL1        0.3380
     35 O          -8.8340  -12.1188   35.0897 O.2     1  UNL1       -0.2451
     36 O          -7.5634  -10.6513   33.8735 O.3     1  UNL1       -0.4771
     37 H          -6.8259  -10.6530   34.5678 H       1  UNL1        0.2954
@<TRIPOS>BOND
     1    25    26    1
     2    26    24    1
     3    24    16    1
     4    16    17   ar
     5    17    18    1
     6    17    19   ar
     7    19    20   ar
     8    20    21   ar
     9    21    14    1
    10    14    15    1
    11    14     1    1
    12     1    27    1
    13    27    28    1
    14    28    29   ar
    15    29    30   ar
    16    30    31   ar
    17    31    32   ar
    18    32    34    1
    19    34    35    2
    20    34    36    1
    21    32    33   ar
    22     1     2   am
    23     2     3    2
    24     2     4    1
    25     4     5   ar
    26     5     6   ar
    27     6     7   ar
    28     7     8   ar
    29     8     9   ar
    30     9    10   ar
    31    10    11   ar
    32    11    12   ar
    33    12    13   ar
    34    21    22   ar
    35    22    23    1
    36    22    16   ar
    37    33    28   ar
    38    13     4   ar
    39    11     6   ar
    40    36    37    1
@<TRIPOS>MOLECULE
*****
 37 40 0 0 0
SMALL
GASTEIGER

@<TRIPOS>ATOM
      1 N          -9.4229   -9.6142   31.4181 N.am    1  UNL1       -0.2685
      2 C         -10.7561   -9.9031   31.8724 C.2     1  UNL1        0.2672
      3 O         -11.6711   -9.0580   31.6786 O.2     1  UNL1       -0.2682
      4 C         -11.0442  -11.1703   32.5772 C.ar    1  UNL1        0.1347
      5 C         -12.1491  -11.9627   32.2293 C.ar    1  UNL1        0.0238
      6 C         -12.3738  -13.1686   32.9070 C.ar    1  UNL1        0.0031
      7 C         -13.4659  -13.9867   32.5779 C.ar    1  UNL1        0.0001
      8 C         -13.6733  -15.1879   33.2630 C.ar    1  UNL1        0.0000
      9 C         -12.7955  -15.5802   34.2779 C.ar    1  UNL1        0.0000
     10 C         -11.7042  -14.7739   34.6147 C.ar    1  UNL1        0.0015
     11 C         -11.4876  -13.5672   33.9334 C.ar    1  UNL1        0.0192
     12 C         -10.4026  -12.7433   34.2506 C.ar    1  UNL1        0.0989
     13 N         -10.2107  -11.5836   33.5716 N.ar    1  UNL1       -0.2393
     14 C          -8.9751  -10.0402   30.0765 C.3     1  UNL1        0.1007
     15 C          -9.5757  -11.4065   29.7179 C.3     1  UNL1        0.0265
     16 C          -5.2832  -10.9122   30.6596 C.ar    1  UNL1        0.0619
     17 C          -4.6663  -10.2143   29.6075 C.ar    1  UNL1        0.1406
     18 F          -3.3322  -10.3286   29.3849 F       1  UNL1       -0.2044
     19 C          -5.4263   -9.4035   28.7647 C.ar    1  UNL1        0.0293
     20 C          -6.8064   -9.3016   28.9397 C.ar    1  UNL1        0.0018
     21 C          -7.4539  -10.0086   29.9726 C.ar    1  UNL1        0.0231
     22 C          -6.6752  -10.8071   30.8362 C.ar    1  UNL1        0.1382
     23 F          -7.2692  -11.5047   31.8378 F       1  UNL1       -0.2046
     24 C          -4.4890  -11.8498   31.5289 C.3     1  UNL1        0.1731
     25 C          -2.9109  -11.8914   33.2069 C.3     1  UNL1        0.1746
     26 O          -3.8871  -11.1033   32.5649 O.3     1  UNL1       -0.3462
     27 C          -8.5641   -8.7824   32.2723 C.3     1  UNL1        0.1207
     28 C          -8.4047   -7.4139   31.6661 C.ar    1  UNL1       -0.0021
     29 C          -7.1296   -6.8454   31.5257 C.ar    1  UNL1       -0.0026
     30 C          -6.9713   -5.6333   30.8516 C.ar    1  UNL1       -0.0001
     31 C          -8.0797   -4.9848   30.3014 C.ar    1  UNL1        0.0064
     32 C          -9.3651   -5.5400   30.4308 C.ar    1  UNL1        0.0752
     33 C          -9.5181   -6.7512   31.1277 C.ar    1  UNL1        0.0038
     34 C         -10.5399   -4.8745   29.8260 C.2     1  UNL1        0.3380
     35 O         -10.4369   -3.7169   29.3370 O.2     1  UNL1       -0.2451
     36 O         -11.7710   -5.5242   29.7854 O.3     1  UNL1       -0.4771
     37 H         -12.5808   -5.0794   29.3701 H       1  UNL1        0.2954
@<TRIPOS>BOND
     1    25    26    1
     2    26    24    1
     3    24    16    1
     4    16    17   ar
     5    17    18    1
     6    17    19   ar
     7    19    20   ar
     8    20    21   ar
     9    21    14    1
    10    14    15    1
    11    14     1    1
    12     1    27    1
    13    27    28    1
    14    28    29   ar
    15    29    30   ar
    16    30    31   ar
    17    31    32   ar
    18    32    34    1
    19    34    35    2
    20    34    36    1
    21    32    33   ar
    22     1     2   am
    23     2     3    2
    24     2     4    1
    25     4     5   ar
    26     5     6   ar
    27     6     7   ar
    28     7     8   ar
    29     8     9   ar
    30     9    10   ar
    31    10    11   ar
    32    11    12   ar
    33    12    13   ar
    34    21    22   ar
    35    22    23    1
    36    22    16   ar
    37    33    28   ar
    38    13     4   ar
    39    11     6   ar
    40    36    37    1
