@<TRIPOS>MOLECULE
*****
 50 55 0 0 0
SMALL
GASTEIGER

@<TRIPOS>ATOM
      1 O           9.6835   76.6028   25.5971 O.2     1  UNL1       -0.2701
      2 C           9.0225   77.5263   25.0480 C.2     1  UNL1        0.2483
      3 N           9.3844   78.8987   25.2688 N.am    1  UNL1       -0.2945
      4 H           8.7407   79.6460   24.9229 H       1  UNL1        0.1501
      5 C           7.8356   77.1831   24.2366 C.ar    1  UNL1        0.0808
      6 C           7.8937   77.3075   22.8399 C.ar    1  UNL1        0.0080
      7 C           6.8012   76.9454   22.0489 C.ar    1  UNL1        0.0148
      8 C           5.6206   76.4607   22.6383 C.ar    1  UNL1        0.0502
      9 C           5.5547   76.3623   24.0395 C.ar    1  UNL1        0.0443
     10 C           6.6489   76.7200   24.8333 C.ar    1  UNL1        0.1457
     11 F           6.5288   76.6480   26.1834 F       1  UNL1       -0.2040
     12 N           4.4915   76.0801   21.8204 N.pl3   1  UNL1       -0.3040
     13 C           4.6099   74.9653   20.8697 C.3     1  UNL1        0.1122
     14 C           3.2624   74.2598   20.6880 C.3     1  UNL1        0.1122
     15 N           2.1886   75.2161   20.3757 N.pl3   1  UNL1       -0.3040
     16 C           2.3858   76.6500   20.6330 C.3     1  UNL1        0.1122
     17 C           3.2489   76.8657   21.8800 C.3     1  UNL1        0.1122
     18 C           0.9787   74.7509   19.7364 C.ar    1  UNL1        0.0488
     19 C          -0.0285   75.6599   19.3650 C.ar    1  UNL1        0.0154
     20 C          -1.1988   75.2098   18.7491 C.ar    1  UNL1        0.0135
     21 C          -1.3851   73.8477   18.4959 C.ar    1  UNL1        0.0683
     22 CL         -2.8722   73.3209   17.7188 Cl      1  UNL1       -0.0814
     23 C          -0.3899   72.9286   18.8643 C.ar    1  UNL1        0.0694
     24 CL         -0.5875   71.2059   18.5707 Cl      1  UNL1       -0.0813
     25 C           0.7827   73.3806   19.4809 C.ar    1  UNL1        0.0268
     26 C          10.4622   79.2931   26.1802 C.3     1  UNL1        0.1535
     27 C          11.2620   80.4243   25.5699 C.2     1  UNL1        0.2443
     28 O          10.7753   81.5857   25.5361 O.2     1  UNL1       -0.2730
     29 N          12.5743   80.2091   25.0282 N.am    1  UNL1       -0.2827
     30 H          13.2210   81.0279   24.9817 H       1  UNL1        0.1549
     31 C          13.0183   78.9526   24.4890 C.ar    1  UNL1        0.0517
     32 C          12.1065   78.1087   23.8363 C.ar    1  UNL1        0.0351
     33 C          12.5421   76.8925   23.3122 C.ar    1  UNL1        0.1001
     34 N          13.8457   76.5308   23.4242 N.ar    1  UNL1       -0.2425
     35 C          14.7590   77.3285   24.0374 C.ar    1  UNL1        0.0982
     36 C          14.3735   78.5664   24.5787 C.ar    1  UNL1        0.0396
     37 C          15.3898   79.4253   25.2847 C.3     1  UNL1        0.1664
     38 O          16.0722   78.6566   26.2358 O.3     1  UNL1       -0.3771
     39 H          16.6951   79.2769   26.6963 H       1  UNL1        0.2109
     40 C           9.9107   79.6450   27.5818 C.3     1  UNL1        0.0569
     41 C           9.3532   78.4647   28.3339 C.ar    1  UNL1       -0.0017
     42 C          10.0703   77.3797   28.8309 C.ar    1  UNL1        0.0681
     43 N           9.2530   76.5417   29.5082 N.ar    1  UNL1       -0.3523
     44 C           8.0251   77.0841   29.4405 C.ar    1  UNL1        0.0563
     45 C           6.8498   76.5861   30.0019 C.ar    1  UNL1        0.0170
     46 C           5.6660   77.3221   29.8108 C.ar    1  UNL1        0.0015
     47 C           5.6814   78.5201   29.0631 C.ar    1  UNL1        0.0001
     48 C           6.8809   78.9943   28.5031 C.ar    1  UNL1        0.0012
     49 C           8.0431   78.2538   28.7248 C.ar    1  UNL1        0.0131
     50 H           9.5260   75.6562   29.9898 H       1  UNL1        0.1660
@<TRIPOS>BOND
     1     1     2    2
     2     2     3   am
     3     3    26    1
     4    26    40    1
     5    40    41    1
     6    41    42   ar
     7    42    43   ar
     8    43    44   ar
     9    44    45   ar
    10    45    46   ar
    11    46    47   ar
    12    47    48   ar
    13    48    49   ar
    14    26    27    1
    15    27    28    2
    16    27    29   am
    17    29    31    1
    18    31    32   ar
    19    32    33   ar
    20    33    34   ar
    21    34    35   ar
    22    35    36   ar
    23    36    37    1
    24    37    38    1
    25     2     5    1
    26     5     6   ar
    27     6     7   ar
    28     7     8   ar
    29     8    12    1
    30    12    13    1
    31    13    14    1
    32    14    15    1
    33    15    18    1
    34    18    19   ar
    35    19    20   ar
    36    20    21   ar
    37    21    22    1
    38    21    23   ar
    39    23    24    1
    40    23    25   ar
    41    15    16    1
    42    16    17    1
    43     8     9   ar
    44     9    10   ar
    45    10    11    1
    46    49    41   ar
    47    36    31   ar
    48    10     5   ar
    49    49    44   ar
    50    17    12    1
    51    25    18   ar
    52     3     4    1
    53    43    50    1
    54    29    30    1
    55    38    39    1
@<TRIPOS>MOLECULE
*****
 50 55 0 0 0
SMALL
GASTEIGER

@<TRIPOS>ATOM
      1 O          10.3226   74.8359   26.2399 O.2     1  UNL1       -0.2701
      2 C           9.9199   75.7832   25.5108 C.2     1  UNL1        0.2483
      3 N          10.5919   77.0523   25.5446 N.am    1  UNL1       -0.2945
      4 H          10.1572   77.8602   25.0438 H       1  UNL1        0.1501
      5 C           8.7128   75.5937   24.6790 C.ar    1  UNL1        0.0808
      6 C           7.6101   76.4433   24.8574 C.ar    1  UNL1        0.0080
      7 C           6.4764   76.3137   24.0521 C.ar    1  UNL1        0.0148
      8 C           6.4156   75.3230   23.0566 C.ar    1  UNL1        0.0502
      9 C           7.5106   74.4552   22.8976 C.ar    1  UNL1        0.0443
     10 C           8.6485   74.5860   23.6996 C.ar    1  UNL1        0.1457
     11 F           9.6661   73.7021   23.5401 F       1  UNL1       -0.2040
     12 N           5.2453   75.1916   22.2189 N.pl3   1  UNL1       -0.3040
     13 C           5.3061   74.3968   20.9837 C.3     1  UNL1        0.1122
     14 C           3.9431   73.7712   20.6718 C.3     1  UNL1        0.1122
     15 N           2.8678   74.7752   20.6987 N.pl3   1  UNL1       -0.3040
     16 C           3.0942   76.0752   21.3468 C.3     1  UNL1        0.1122
     17 C           4.0165   75.9250   22.5606 C.3     1  UNL1        0.1122
     18 C           1.6240   74.5113   20.0112 C.ar    1  UNL1        0.0488
     19 C           0.8572   75.5689   19.4898 C.ar    1  UNL1        0.0154
     20 C          -0.3461   75.3138   18.8274 C.ar    1  UNL1        0.0135
     21 C          -0.8051   74.0021   18.6763 C.ar    1  UNL1        0.0683
     22 CL         -2.3246   73.7224   17.8363 Cl      1  UNL1       -0.0814
     23 C          -0.0519   72.9368   19.1948 C.ar    1  UNL1        0.0694
     24 CL         -0.5969   71.2725   19.0331 Cl      1  UNL1       -0.0813
     25 C           1.1539   73.1934   19.8579 C.ar    1  UNL1        0.0268
     26 C          11.7022   77.3324   26.4592 C.3     1  UNL1        0.1535
     27 C          12.8569   77.9416   25.6930 C.2     1  UNL1        0.2443
     28 O          14.0149   77.9213   26.1884 O.2     1  UNL1       -0.2730
     29 N          12.6679   78.5429   24.4027 N.am    1  UNL1       -0.2827
     30 H          13.4928   78.5919   23.7640 H       1  UNL1        0.1549
     31 C          11.4311   79.1367   23.9731 C.ar    1  UNL1        0.0517
     32 C          10.5313   78.3945   23.1926 C.ar    1  UNL1        0.0351
     33 C           9.3318   78.9733   22.7808 C.ar    1  UNL1        0.1001
     34 N           9.0310   80.2468   23.1421 N.ar    1  UNL1       -0.2425
     35 C           9.8718   80.9903   23.9082 C.ar    1  UNL1        0.0982
     36 C          11.0913   80.4533   24.3536 C.ar    1  UNL1        0.0396
     37 C          12.0283   81.3001   25.1745 C.3     1  UNL1        0.1664
     38 O          13.3095   81.2617   24.6103 O.3     1  UNL1       -0.3771
     39 H          13.8909   81.7980   25.2095 H       1  UNL1        0.2109
     40 C          11.2439   78.2158   27.6433 C.3     1  UNL1        0.0569
     41 C           9.7498   78.3830   27.7396 C.ar    1  UNL1       -0.0017
     42 C           8.9864   79.3955   27.1647 C.ar    1  UNL1        0.0681
     43 N           7.6712   79.1920   27.4052 N.ar    1  UNL1       -0.3523
     44 C           7.5959   78.0628   28.1304 C.ar    1  UNL1        0.0563
     45 C           6.4428   77.4420   28.6093 C.ar    1  UNL1        0.0170
     46 C           6.5936   76.2552   29.3498 C.ar    1  UNL1        0.0015
     47 C           7.8791   75.7270   29.6005 C.ar    1  UNL1        0.0001
     48 C           9.0245   76.3788   29.1102 C.ar    1  UNL1        0.0012
     49 C           8.8438   77.5437   28.3629 C.ar    1  UNL1        0.0131
     50 H           6.8775   79.7905   27.0852 H       1  UNL1        0.1660
@<TRIPOS>BOND
     1     1     2    2
     2     2     3   am
     3     3    26    1
     4    26    40    1
     5    40    41    1
     6    41    42   ar
     7    42    43   ar
     8    43    44   ar
     9    44    45   ar
    10    45    46   ar
    11    46    47   ar
    12    47    48   ar
    13    48    49   ar
    14    26    27    1
    15    27    28    2
    16    27    29   am
    17    29    31    1
    18    31    32   ar
    19    32    33   ar
    20    33    34   ar
    21    34    35   ar
    22    35    36   ar
    23    36    37    1
    24    37    38    1
    25     2     5    1
    26     5     6   ar
    27     6     7   ar
    28     7     8   ar
    29     8    12    1
    30    12    13    1
    31    13    14    1
    32    14    15    1
    33    15    18    1
    34    18    19   ar
    35    19    20   ar
    36    20    21   ar
    37    21    22    1
    38    21    23   ar
    39    23    24    1
    40    23    25   ar
    41    15    16    1
    42    16    17    1
    43     8     9   ar
    44     9    10   ar
    45    10    11    1
    46    49    41   ar
    47    36    31   ar
    48    10     5   ar
    49    49    44   ar
    50    17    12    1
    51    25    18   ar
    52     3     4    1
    53    43    50    1
    54    29    30    1
    55    38    39    1
@<TRIPOS>MOLECULE
*****
 50 55 0 0 0
SMALL
GASTEIGER

@<TRIPOS>ATOM
      1 O           9.9050   76.6377   25.3083 O.2     1  UNL1       -0.2701
      2 C           9.1486   77.5563   24.8898 C.2     1  UNL1        0.2483
      3 N           9.4166   78.9235   25.2394 N.am    1  UNL1       -0.2945
      4 H           8.7012   79.6480   25.0033 H       1  UNL1        0.1501
      5 C           7.9509   77.2036   24.0987 C.ar    1  UNL1        0.0808
      6 C           7.9644   77.3828   22.7068 C.ar    1  UNL1        0.0080
      7 C           6.8621   77.0136   21.9328 C.ar    1  UNL1        0.0148
      8 C           5.7158   76.4668   22.5353 C.ar    1  UNL1        0.0502
      9 C           5.6937   76.3133   23.9329 C.ar    1  UNL1        0.0443
     10 C           6.7979   76.6779   24.7095 C.ar    1  UNL1        0.1457
     11 F           6.7192   76.5509   26.0586 F       1  UNL1       -0.2040
     12 N           4.5767   76.0791   21.7348 N.pl3   1  UNL1       -0.3040
     13 C           4.6423   74.8789   20.8885 C.3     1  UNL1        0.1122
     14 C           3.2586   74.2372   20.7465 C.3     1  UNL1        0.1122
     15 N           2.2458   75.2208   20.3323 N.pl3   1  UNL1       -0.3040
     16 C           2.5222   76.6586   20.4652 C.3     1  UNL1        0.1122
     17 C           3.3809   76.9357   21.7031 C.3     1  UNL1        0.1122
     18 C           1.0189   74.7694   19.7156 C.ar    1  UNL1        0.0488
     19 C           0.0084   75.6879   19.3784 C.ar    1  UNL1        0.0154
     20 C          -1.1783   75.2511   18.7844 C.ar    1  UNL1        0.0135
     21 C          -1.3776   73.8931   18.5195 C.ar    1  UNL1        0.0683
     22 CL         -2.8850   73.3831   17.7709 Cl      1  UNL1       -0.0814
     23 C          -0.3791   72.9646   18.8540 C.ar    1  UNL1        0.0694
     24 CL         -0.5926   71.2465   18.5447 Cl      1  UNL1       -0.0813
     25 C           0.8098   73.4033   19.4487 C.ar    1  UNL1        0.0268
     26 C          10.5071   79.3078   26.1400 C.3     1  UNL1        0.1535
     27 C          11.3225   80.4188   25.5134 C.2     1  UNL1        0.2443
     28 O          10.8521   81.5862   25.4625 O.2     1  UNL1       -0.2730
     29 N          12.6317   80.1774   24.9750 N.am    1  UNL1       -0.2827
     30 H          13.2898   80.9863   24.9167 H       1  UNL1        0.1549
     31 C          13.0580   78.9071   24.4542 C.ar    1  UNL1        0.0517
     32 C          12.1332   78.0640   23.8189 C.ar    1  UNL1        0.0351
     33 C          12.5517   76.8344   23.3127 C.ar    1  UNL1        0.1001
     34 N          13.8514   76.4586   23.4251 N.ar    1  UNL1       -0.2425
     35 C          14.7769   77.2549   24.0216 C.ar    1  UNL1        0.0982
     36 C          14.4088   78.5058   24.5445 C.ar    1  UNL1        0.0396
     37 C          15.4385   79.3635   25.2324 C.3     1  UNL1        0.1664
     38 O          15.8961   78.7118   26.3844 O.3     1  UNL1       -0.3771
     39 H          16.5363   79.3343   26.8175 H       1  UNL1        0.2109
     40 C           9.9710   79.6831   27.5415 C.3     1  UNL1        0.0569
     41 C           9.0204   78.6702   28.1243 C.ar    1  UNL1       -0.0017
     42 C           7.6679   78.8575   28.3965 C.ar    1  UNL1        0.0681
     43 N           7.1135   77.7120   28.8543 N.ar    1  UNL1       -0.3523
     44 C           8.1036   76.8033   28.8785 C.ar    1  UNL1        0.0563
     45 C           8.0144   75.4674   29.2683 C.ar    1  UNL1        0.0170
     46 C           9.1831   74.6860   29.2117 C.ar    1  UNL1        0.0015
     47 C          10.4026   75.2534   28.7814 C.ar    1  UNL1        0.0001
     48 C          10.4635   76.6056   28.4007 C.ar    1  UNL1        0.0012
     49 C           9.2849   77.3516   28.4487 C.ar    1  UNL1        0.0131
     50 H           6.1162   77.5659   29.1271 H       1  UNL1        0.1660
@<TRIPOS>BOND
     1     1     2    2
     2     2     3   am
     3     3    26    1
     4    26    40    1
     5    40    41    1
     6    41    42   ar
     7    42    43   ar
     8    43    44   ar
     9    44    45   ar
    10    45    46   ar
    11    46    47   ar
    12    47    48   ar
    13    48    49   ar
    14    26    27    1
    15    27    28    2
    16    27    29   am
    17    29    31    1
    18    31    32   ar
    19    32    33   ar
    20    33    34   ar
    21    34    35   ar
    22    35    36   ar
    23    36    37    1
    24    37    38    1
    25     2     5    1
    26     5     6   ar
    27     6     7   ar
    28     7     8   ar
    29     8    12    1
    30    12    13    1
    31    13    14    1
    32    14    15    1
    33    15    18    1
    34    18    19   ar
    35    19    20   ar
    36    20    21   ar
    37    21    22    1
    38    21    23   ar
    39    23    24    1
    40    23    25   ar
    41    15    16    1
    42    16    17    1
    43     8     9   ar
    44     9    10   ar
    45    10    11    1
    46    49    41   ar
    47    36    31   ar
    48    10     5   ar
    49    49    44   ar
    50    17    12    1
    51    25    18   ar
    52     3     4    1
    53    43    50    1
    54    29    30    1
    55    38    39    1
@<TRIPOS>MOLECULE
*****
 50 55 0 0 0
SMALL
GASTEIGER

@<TRIPOS>ATOM
      1 O          10.4461   79.1675   22.4270 O.2     1  UNL1       -0.2701
      2 C           9.4618   78.8263   23.1383 C.2     1  UNL1        0.2483
      3 N           9.5165   78.9846   24.5649 N.am    1  UNL1       -0.2945
      4 H           8.7530   78.5655   25.1428 H       1  UNL1        0.1501
      5 C           8.2868   78.2005   22.4960 C.ar    1  UNL1        0.0808
      6 C           7.5519   77.2303   23.1947 C.ar    1  UNL1        0.0080
      7 C           6.4111   76.6586   22.6271 C.ar    1  UNL1        0.0148
      8 C           5.9856   77.0365   21.3417 C.ar    1  UNL1        0.0502
      9 C           6.7386   77.9889   20.6322 C.ar    1  UNL1        0.0443
     10 C           7.8785   78.5660   21.2003 C.ar    1  UNL1        0.1457
     11 F           8.5990   79.4509   20.4654 F       1  UNL1       -0.2040
     12 N           4.8020   76.4499   20.7556 N.pl3   1  UNL1       -0.3040
     13 C           4.5846   74.9977   20.8257 C.3     1  UNL1        0.1122
     14 C           3.0881   74.6730   20.8653 C.3     1  UNL1        0.1122
     15 N           2.3592   75.3470   19.7793 N.pl3   1  UNL1       -0.3040
     16 C           2.9808   76.4728   19.0669 C.3     1  UNL1        0.1122
     17 C           3.8568   77.2990   20.0138 C.3     1  UNL1        0.1122
     18 C           1.0711   74.8425   19.3602 C.ar    1  UNL1        0.0488
     19 C           0.0032   75.7245   19.1151 C.ar    1  UNL1        0.0154
     20 C          -1.2422   75.2365   18.7123 C.ar    1  UNL1        0.0135
     21 C          -1.4439   73.8629   18.5496 C.ar    1  UNL1        0.0683
     22 CL         -3.0263   73.2881   18.0412 Cl      1  UNL1       -0.0814
     23 C          -0.3881   72.9704   18.7941 C.ar    1  UNL1        0.0694
     24 CL         -0.6014   71.2346   18.6087 Cl      1  UNL1       -0.0813
     25 C           0.8597   73.4604   19.1972 C.ar    1  UNL1        0.0268
     26 C          10.7143   79.4648   25.2596 C.3     1  UNL1        0.1535
     27 C          10.3237   80.4754   26.3168 C.2     1  UNL1        0.2443
     28 O          10.9754   81.5478   26.4264 O.2     1  UNL1       -0.2730
     29 N           9.2175   80.2454   27.2031 N.am    1  UNL1       -0.2827
     30 H           8.7525   81.0795   27.6262 H       1  UNL1        0.1549
     31 C           8.7629   78.9372   27.5884 C.ar    1  UNL1        0.0517
     32 C           7.9716   78.1828   26.7084 C.ar    1  UNL1        0.0351
     33 C           7.5356   76.9134   27.0850 C.ar    1  UNL1        0.1001
     34 N           7.8838   76.4050   28.2947 N.ar    1  UNL1       -0.2425
     35 C           8.6596   77.1012   29.1664 C.ar    1  UNL1        0.0982
     36 C           9.1294   78.3830   28.8343 C.ar    1  UNL1        0.0396
     37 C           9.9610   79.1564   29.8238 C.3     1  UNL1        0.1664
     38 O           9.5145   80.4828   29.8745 O.3     1  UNL1       -0.3771
     39 H          10.1189   80.9534   30.5054 H       1  UNL1        0.2109
     40 C          11.5365   78.2890   25.8375 C.3     1  UNL1        0.0569
     41 C          12.5762   77.7464   24.8919 C.ar    1  UNL1       -0.0017
     42 C          12.4566   76.6231   24.0781 C.ar    1  UNL1        0.0681
     43 N          13.5619   76.4718   23.3136 N.ar    1  UNL1       -0.3523
     44 C          14.3813   77.4862   23.6395 C.ar    1  UNL1        0.0563
     45 C          15.6403   77.7595   23.1060 C.ar    1  UNL1        0.0170
     46 C          16.3308   78.8849   23.5921 C.ar    1  UNL1        0.0015
     47 C          15.7583   79.6967   24.5960 C.ar    1  UNL1        0.0001
     48 C          14.4894   79.3923   25.1199 C.ar    1  UNL1        0.0012
     49 C          13.8195   78.2812   24.6055 C.ar    1  UNL1        0.0131
     50 H          13.7368   75.7206   22.6096 H       1  UNL1        0.1660
@<TRIPOS>BOND
     1     1     2    2
     2     2     3   am
     3     3    26    1
     4    26    40    1
     5    40    41    1
     6    41    42   ar
     7    42    43   ar
     8    43    44   ar
     9    44    45   ar
    10    45    46   ar
    11    46    47   ar
    12    47    48   ar
    13    48    49   ar
    14    26    27    1
    15    27    28    2
    16    27    29   am
    17    29    31    1
    18    31    32   ar
    19    32    33   ar
    20    33    34   ar
    21    34    35   ar
    22    35    36   ar
    23    36    37    1
    24    37    38    1
    25     2     5    1
    26     5     6   ar
    27     6     7   ar
    28     7     8   ar
    29     8    12    1
    30    12    13    1
    31    13    14    1
    32    14    15    1
    33    15    18    1
    34    18    19   ar
    35    19    20   ar
    36    20    21   ar
    37    21    22    1
    38    21    23   ar
    39    23    24    1
    40    23    25   ar
    41    15    16    1
    42    16    17    1
    43     8     9   ar
    44     9    10   ar
    45    10    11    1
    46    49    41   ar
    47    36    31   ar
    48    10     5   ar
    49    49    44   ar
    50    17    12    1
    51    25    18   ar
    52     3     4    1
    53    43    50    1
    54    29    30    1
    55    38    39    1
@<TRIPOS>MOLECULE
*****
 50 55 0 0 0
SMALL
GASTEIGER

@<TRIPOS>ATOM
      1 O           9.5626   76.0522   26.5148 O.2     1  UNL1       -0.2701
      2 C           8.5998   76.8636   26.4384 C.2     1  UNL1        0.2483
      3 N           8.5157   77.9677   27.3534 N.am    1  UNL1       -0.2945
      4 H           7.6413   78.5402   27.3650 H       1  UNL1        0.1501
      5 C           7.5292   76.6253   25.4475 C.ar    1  UNL1        0.0808
      6 C           7.8642   76.1626   24.1657 C.ar    1  UNL1        0.0080
      7 C           6.8671   75.8860   23.2277 C.ar    1  UNL1        0.0148
      8 C           5.5116   76.0769   23.5473 C.ar    1  UNL1        0.0502
      9 C           5.1794   76.5663   24.8230 C.ar    1  UNL1        0.0443
     10 C           6.1757   76.8396   25.7653 C.ar    1  UNL1        0.1457
     11 F           5.8141   77.3489   26.9704 F       1  UNL1       -0.2040
     12 N           4.4786   75.7855   22.5795 N.pl3   1  UNL1       -0.3040
     13 C           4.7488   74.8671   21.4639 C.3     1  UNL1        0.1122
     14 C           3.4729   74.1305   21.0444 C.3     1  UNL1        0.1122
     15 N           2.3609   75.0649   20.8094 N.pl3   1  UNL1       -0.3040
     16 C           2.4351   76.4386   21.3279 C.3     1  UNL1        0.1122
     17 C           3.1823   76.4762   22.6646 C.3     1  UNL1        0.1122
     18 C           1.2399   74.6539   19.9948 C.ar    1  UNL1        0.0488
     19 C           0.4285   75.6115   19.3599 C.ar    1  UNL1        0.0154
     20 C          -0.6563   75.2141   18.5745 C.ar    1  UNL1        0.0135
     21 C          -0.9511   73.8574   18.4114 C.ar    1  UNL1        0.0683
     22 CL         -2.3253   73.3977   17.4149 Cl      1  UNL1       -0.0814
     23 C          -0.1520   72.8906   19.0421 C.ar    1  UNL1        0.0694
     24 CL         -0.4925   71.1739   18.8691 Cl      1  UNL1       -0.0813
     25 C           0.9351   73.2898   19.8285 C.ar    1  UNL1        0.0268
     26 C           9.4745   78.1622   28.4446 C.3     1  UNL1        0.1535
     27 C          10.0418   79.5645   28.3852 C.2     1  UNL1        0.2443
     28 O           9.8610   80.3526   29.3511 O.2     1  UNL1       -0.2730
     29 N          10.7917   80.0236   27.2499 N.am    1  UNL1       -0.2827
     30 H          11.4673   80.8062   27.3982 H       1  UNL1        0.1549
     31 C          10.6146   79.5131   25.9177 C.ar    1  UNL1        0.0517
     32 C           9.5759   80.0037   25.1115 C.ar    1  UNL1        0.0351
     33 C           9.4098   79.5080   23.8192 C.ar    1  UNL1        0.1001
     34 N          10.2561   78.5612   23.3392 N.ar    1  UNL1       -0.2425
     35 C          11.2807   78.0730   24.0864 C.ar    1  UNL1        0.0982
     36 C          11.4952   78.5419   25.3933 C.ar    1  UNL1        0.0396
     37 C          12.6147   77.9678   26.2216 C.3     1  UNL1        0.1664
     38 O          12.0798   77.1917   27.2574 O.3     1  UNL1       -0.3771
     39 H          12.8533   76.8747   27.7922 H       1  UNL1        0.2109
     40 C           8.8368   77.8376   29.8159 C.3     1  UNL1        0.0569
     41 C           7.8010   76.7448   29.7656 C.ar    1  UNL1       -0.0017
     42 C           8.0322   75.3870   29.5624 C.ar    1  UNL1        0.0681
     43 N           6.8750   74.6919   29.6437 N.ar    1  UNL1       -0.3523
     44 C           5.9135   75.5977   29.8920 C.ar    1  UNL1        0.0563
     45 C           4.5516   75.3566   30.0694 C.ar    1  UNL1        0.0170
     46 C           3.7161   76.4592   30.3257 C.ar    1  UNL1        0.0015
     47 C           4.2527   77.7640   30.3881 C.ar    1  UNL1        0.0001
     48 C           5.6296   77.9773   30.1985 C.ar    1  UNL1        0.0012
     49 C           6.4372   76.8631   29.9648 C.ar    1  UNL1        0.0131
     50 H           6.7576   73.6595   29.5398 H       1  UNL1        0.1660
@<TRIPOS>BOND
     1     1     2    2
     2     2     3   am
     3     3    26    1
     4    26    40    1
     5    40    41    1
     6    41    42   ar
     7    42    43   ar
     8    43    44   ar
     9    44    45   ar
    10    45    46   ar
    11    46    47   ar
    12    47    48   ar
    13    48    49   ar
    14    26    27    1
    15    27    28    2
    16    27    29   am
    17    29    31    1
    18    31    32   ar
    19    32    33   ar
    20    33    34   ar
    21    34    35   ar
    22    35    36   ar
    23    36    37    1
    24    37    38    1
    25     2     5    1
    26     5     6   ar
    27     6     7   ar
    28     7     8   ar
    29     8    12    1
    30    12    13    1
    31    13    14    1
    32    14    15    1
    33    15    18    1
    34    18    19   ar
    35    19    20   ar
    36    20    21   ar
    37    21    22    1
    38    21    23   ar
    39    23    24    1
    40    23    25   ar
    41    15    16    1
    42    16    17    1
    43     8     9   ar
    44     9    10   ar
    45    10    11    1
    46    49    41   ar
    47    36    31   ar
    48    10     5   ar
    49    49    44   ar
    50    17    12    1
    51    25    18   ar
    52     3     4    1
    53    43    50    1
    54    29    30    1
    55    38    39    1
@<TRIPOS>MOLECULE
*****
 50 55 0 0 0
SMALL
GASTEIGER

@<TRIPOS>ATOM
      1 O          11.6430   74.7576   24.2488 O.2     1  UNL1       -0.2701
      2 C          10.9474   75.7948   24.0717 C.2     1  UNL1        0.2483
      3 N          11.3866   77.0547   24.6039 N.am    1  UNL1       -0.2945
      4 H          10.7295   77.8668   24.5697 H       1  UNL1        0.1501
      5 C           9.6484   75.6850   23.3749 C.ar    1  UNL1        0.0808
      6 C           9.5496   74.8988   22.2167 C.ar    1  UNL1        0.0080
      7 C           8.3230   74.7424   21.5673 C.ar    1  UNL1        0.0148
      8 C           7.1687   75.3786   22.0560 C.ar    1  UNL1        0.0502
      9 C           7.2752   76.1878   23.2010 C.ar    1  UNL1        0.0443
     10 C           8.5012   76.3423   23.8555 C.ar    1  UNL1        0.1457
     11 F           8.5682   77.1645   24.9333 F       1  UNL1       -0.2040
     12 N           5.8978   75.2129   21.3882 N.pl3   1  UNL1       -0.3040
     13 C           5.6475   74.0244   20.5600 C.3     1  UNL1        0.1122
     14 C           4.1616   73.6524   20.5773 C.3     1  UNL1        0.1122
     15 N           3.3103   74.8091   20.2572 N.pl3   1  UNL1       -0.3040
     16 C           3.8617   76.1697   20.3358 C.3     1  UNL1        0.1122
     17 C           4.8856   76.2775   21.4701 C.3     1  UNL1        0.1122
     18 C           1.9617   74.5965   19.7827 C.ar    1  UNL1        0.0488
     19 C           1.1906   75.6753   19.3136 C.ar    1  UNL1        0.0154
     20 C          -0.1137   75.4699   18.8571 C.ar    1  UNL1        0.0135
     21 C          -0.6707   74.1878   18.8631 C.ar    1  UNL1        0.0683
     22 CL         -2.3156   73.9705   18.2804 Cl      1  UNL1       -0.0814
     23 C           0.0861   73.1021   19.3319 C.ar    1  UNL1        0.0694
     24 CL         -0.5791   71.4744   19.3634 Cl      1  UNL1       -0.0813
     25 C           1.3931   73.3088   19.7885 C.ar    1  UNL1        0.0268
     26 C          12.5933   77.1860   25.4252 C.3     1  UNL1        0.1535
     27 C          13.5934   78.0834   24.7279 C.2     1  UNL1        0.2443
     28 O          14.8255   77.8417   24.8285 O.2     1  UNL1       -0.2730
     29 N          13.1720   79.2100   23.9434 N.am    1  UNL1       -0.2827
     30 H          13.8174   79.5501   23.1960 H       1  UNL1        0.1549
     31 C          11.9496   79.9303   24.1746 C.ar    1  UNL1        0.0517
     32 C          10.7467   79.4654   23.6210 C.ar    1  UNL1        0.0351
     33 C           9.5632   80.1654   23.8504 C.ar    1  UNL1        0.1001
     34 N           9.5729   81.2871   24.6149 N.ar    1  UNL1       -0.2425
     35 C          10.7161   81.7588   25.1780 C.ar    1  UNL1        0.0982
     36 C          11.9353   81.0886   24.9821 C.ar    1  UNL1        0.0396
     37 C          13.2002   81.6412   25.5850 C.3     1  UNL1        0.1664
     38 O          14.2300   81.5935   24.6372 O.3     1  UNL1       -0.3771
     39 H          15.0435   81.9279   25.0968 H       1  UNL1        0.2109
     40 C          12.2501   77.6757   26.8517 C.3     1  UNL1        0.0569
     41 C          10.9805   77.0886   27.4112 C.ar    1  UNL1       -0.0017
     42 C          10.7892   75.7800   27.8463 C.ar    1  UNL1        0.0681
     43 N           9.5424   75.6244   28.3466 N.ar    1  UNL1       -0.3523
     44 C           8.9419   76.8210   28.2277 C.ar    1  UNL1        0.0563
     45 C           7.6466   77.1584   28.6187 C.ar    1  UNL1        0.0170
     46 C           7.2178   78.4811   28.4038 C.ar    1  UNL1        0.0015
     47 C           8.0798   79.4233   27.8007 C.ar    1  UNL1        0.0001
     48 C           9.3788   79.0522   27.4107 C.ar    1  UNL1        0.0012
     49 C           9.7837   77.7388   27.6534 C.ar    1  UNL1        0.0131
     50 H           9.1347   74.7509   28.7482 H       1  UNL1        0.1660
@<TRIPOS>BOND
     1     1     2    2
     2     2     3   am
     3     3    26    1
     4    26    40    1
     5    40    41    1
     6    41    42   ar
     7    42    43   ar
     8    43    44   ar
     9    44    45   ar
    10    45    46   ar
    11    46    47   ar
    12    47    48   ar
    13    48    49   ar
    14    26    27    1
    15    27    28    2
    16    27    29   am
    17    29    31    1
    18    31    32   ar
    19    32    33   ar
    20    33    34   ar
    21    34    35   ar
    22    35    36   ar
    23    36    37    1
    24    37    38    1
    25     2     5    1
    26     5     6   ar
    27     6     7   ar
    28     7     8   ar
    29     8    12    1
    30    12    13    1
    31    13    14    1
    32    14    15    1
    33    15    18    1
    34    18    19   ar
    35    19    20   ar
    36    20    21   ar
    37    21    22    1
    38    21    23   ar
    39    23    24    1
    40    23    25   ar
    41    15    16    1
    42    16    17    1
    43     8     9   ar
    44     9    10   ar
    45    10    11    1
    46    49    41   ar
    47    36    31   ar
    48    10     5   ar
    49    49    44   ar
    50    17    12    1
    51    25    18   ar
    52     3     4    1
    53    43    50    1
    54    29    30    1
    55    38    39    1
@<TRIPOS>MOLECULE
*****
 50 55 0 0 0
SMALL
GASTEIGER

@<TRIPOS>ATOM
      1 O           9.5607   75.8917   26.9214 O.2     1  UNL1       -0.2701
      2 C           8.6686   76.7454   26.6636 C.2     1  UNL1        0.2483
      3 N           8.6283   77.9846   27.3888 N.am    1  UNL1       -0.2945
      4 H           7.8016   78.6111   27.2601 H       1  UNL1        0.1501
      5 C           7.6300   76.4269   25.6613 C.ar    1  UNL1        0.0808
      6 C           6.2923   76.7618   25.9216 C.ar    1  UNL1        0.0080
      7 C           5.3002   76.5132   24.9707 C.ar    1  UNL1        0.0148
      8 C           5.6222   75.9129   23.7410 C.ar    1  UNL1        0.0502
      9 C           6.9588   75.5533   23.4930 C.ar    1  UNL1        0.0443
     10 C           7.9547   75.8055   24.4417 C.ar    1  UNL1        0.1457
     11 F           9.2248   75.4057   24.1787 F       1  UNL1       -0.2040
     12 N           4.5974   75.6604   22.7539 N.pl3   1  UNL1       -0.3040
     13 C           4.8933   74.8309   21.5769 C.3     1  UNL1        0.1122
     14 C           3.6390   74.0887   21.1052 C.3     1  UNL1        0.1122
     15 N           2.5001   75.0047   20.9350 N.pl3   1  UNL1       -0.3040
     16 C           2.5347   76.3401   21.5488 C.3     1  UNL1        0.1122
     17 C           3.2816   76.3055   22.8857 C.3     1  UNL1        0.1122
     18 C           1.3908   74.6195   20.0922 C.ar    1  UNL1        0.0488
     19 C           0.6497   75.5922   19.3971 C.ar    1  UNL1        0.0154
     20 C          -0.4238   75.2199   18.5844 C.ar    1  UNL1        0.0135
     21 C          -0.7772   73.8738   18.4533 C.ar    1  UNL1        0.0683
     22 CL         -2.1349   73.4457   17.4208 Cl      1  UNL1       -0.0814
     23 C          -0.0487   72.8923   19.1440 C.ar    1  UNL1        0.0694
     24 CL         -0.4645   71.1885   19.0127 Cl      1  UNL1       -0.0813
     25 C           1.0273   73.2663   19.9577 C.ar    1  UNL1        0.0268
     26 C           9.5475   78.2838   28.4904 C.3     1  UNL1        0.1535
     27 C          10.1171   79.6760   28.3196 C.2     1  UNL1        0.2443
     28 O           9.9650   80.5292   29.2336 O.2     1  UNL1       -0.2730
     29 N          10.8371   80.0526   27.1356 N.am    1  UNL1       -0.2827
     30 H          11.5188   80.8403   27.2115 H       1  UNL1        0.1549
     31 C          10.6222   79.4529   25.8469 C.ar    1  UNL1        0.0517
     32 C           9.5509   79.8777   25.0460 C.ar    1  UNL1        0.0351
     33 C           9.3481   79.2954   23.7957 C.ar    1  UNL1        0.1001
     34 N          10.1901   78.3280   23.3506 N.ar    1  UNL1       -0.2425
     35 C          11.2454   77.9015   24.0929 C.ar    1  UNL1        0.0982
     36 C          11.4973   78.4584   25.3579 C.ar    1  UNL1        0.0396
     37 C          12.6512   77.9527   26.1836 C.3     1  UNL1        0.1664
     38 O          12.1638   77.1794   27.2446 O.3     1  UNL1       -0.3771
     39 H          12.9572   76.9086   27.7757 H       1  UNL1        0.2109
     40 C           8.8610   78.0877   29.8625 C.3     1  UNL1        0.0569
     41 C           7.3667   77.9155   29.7800 C.ar    1  UNL1       -0.0017
     42 C           6.4303   78.9007   29.4781 C.ar    1  UNL1        0.0681
     43 N           5.1861   78.3728   29.4292 N.ar    1  UNL1       -0.3523
     44 C           5.3263   77.0641   29.7017 C.ar    1  UNL1        0.0563
     45 C           4.3200   76.1002   29.7553 C.ar    1  UNL1        0.0170
     46 C           4.6916   74.7771   30.0567 C.ar    1  UNL1        0.0015
     47 C           6.0435   74.4527   30.3047 C.ar    1  UNL1        0.0001
     48 C           7.0358   75.4475   30.2500 C.ar    1  UNL1        0.0012
     49 C           6.6409   76.7474   29.9302 C.ar    1  UNL1        0.0131
     50 H           4.2993   78.8817   29.2167 H       1  UNL1        0.1660
@<TRIPOS>BOND
     1     1     2    2
     2     2     3   am
     3     3    26    1
     4    26    40    1
     5    40    41    1
     6    41    42   ar
     7    42    43   ar
     8    43    44   ar
     9    44    45   ar
    10    45    46   ar
    11    46    47   ar
    12    47    48   ar
    13    48    49   ar
    14    26    27    1
    15    27    28    2
    16    27    29   am
    17    29    31    1
    18    31    32   ar
    19    32    33   ar
    20    33    34   ar
    21    34    35   ar
    22    35    36   ar
    23    36    37    1
    24    37    38    1
    25     2     5    1
    26     5     6   ar
    27     6     7   ar
    28     7     8   ar
    29     8    12    1
    30    12    13    1
    31    13    14    1
    32    14    15    1
    33    15    18    1
    34    18    19   ar
    35    19    20   ar
    36    20    21   ar
    37    21    22    1
    38    21    23   ar
    39    23    24    1
    40    23    25   ar
    41    15    16    1
    42    16    17    1
    43     8     9   ar
    44     9    10   ar
    45    10    11    1
    46    49    41   ar
    47    36    31   ar
    48    10     5   ar
    49    49    44   ar
    50    17    12    1
    51    25    18   ar
    52     3     4    1
    53    43    50    1
    54    29    30    1
    55    38    39    1
@<TRIPOS>MOLECULE
*****
 50 55 0 0 0
SMALL
GASTEIGER

@<TRIPOS>ATOM
      1 O          10.3321   79.7762   22.3040 O.2     1  UNL1       -0.2701
      2 C           9.5536   79.1276   23.0553 C.2     1  UNL1        0.2483
      3 N           9.8440   79.0039   24.4566 N.am    1  UNL1       -0.2945
      4 H           9.2671   78.3469   25.0294 H       1  UNL1        0.1501
      5 C           8.3840   78.4418   22.4667 C.ar    1  UNL1        0.0808
      6 C           7.9738   77.2047   22.9871 C.ar    1  UNL1        0.0080
      7 C           6.8442   76.5599   22.4785 C.ar    1  UNL1        0.0148
      8 C           6.1052   77.1330   21.4290 C.ar    1  UNL1        0.0502
      9 C           6.5335   78.3595   20.8907 C.ar    1  UNL1        0.0443
     10 C           7.6614   79.0092   21.4014 C.ar    1  UNL1        0.1457
     11 F           8.0636   80.1708   20.8259 F       1  UNL1       -0.2040
     12 N           4.9328   76.4695   20.9057 N.pl3   1  UNL1       -0.3040
     13 C           4.3074   75.3719   21.6574 C.3     1  UNL1        0.1122
     14 C           2.7991   75.3226   21.3945 C.3     1  UNL1        0.1122
     15 N           2.5006   75.3227   19.9537 N.pl3   1  UNL1       -0.3040
     16 C           3.5329   75.7332   18.9908 C.3     1  UNL1        0.1122
     17 C           4.4167   76.8380   19.5781 C.3     1  UNL1        0.1122
     18 C           1.2223   74.8356   19.4869 C.ar    1  UNL1        0.0488
     19 C           0.1966   75.7350   19.1439 C.ar    1  UNL1        0.0154
     20 C          -1.0396   75.2639   18.6950 C.ar    1  UNL1        0.0135
     21 C          -1.2740   73.8904   18.5830 C.ar    1  UNL1        0.0683
     22 CL         -2.8434   73.3373   18.0141 Cl      1  UNL1       -0.0814
     23 C          -0.2606   72.9810   18.9253 C.ar    1  UNL1        0.0694
     24 CL         -0.5165   71.2451   18.8061 Cl      1  UNL1       -0.0813
     25 C           0.9779   73.4540   19.3745 C.ar    1  UNL1        0.0268
     26 C          11.0664   79.5431   25.0591 C.3     1  UNL1        0.1535
     27 C          10.7140   80.6423   26.0384 C.2     1  UNL1        0.2443
     28 O          11.4579   81.6542   26.1354 O.2     1  UNL1       -0.2730
     29 N           9.5415   80.5651   26.8638 N.am    1  UNL1       -0.2827
     30 H           9.1348   81.4607   27.2151 H       1  UNL1        0.1549
     31 C           8.9421   79.3279   27.2841 C.ar    1  UNL1        0.0517
     32 C           8.0989   78.6250   26.4097 C.ar    1  UNL1        0.0351
     33 C           7.5223   77.4240   26.8205 C.ar    1  UNL1        0.1001
     34 N           7.7838   76.9315   28.0582 N.ar    1  UNL1       -0.2425
     35 C           8.6058   77.5779   28.9260 C.ar    1  UNL1        0.0982
     36 C           9.2161   78.7894   28.5603 C.ar    1  UNL1        0.0396
     37 C          10.0986   79.5115   29.5445 C.3     1  UNL1        0.1664
     38 O           9.7876   80.8770   29.5375 O.3     1  UNL1       -0.3771
     39 H          10.4218   81.3075   30.1678 H       1  UNL1        0.2109
     40 C          11.9146   78.4224   25.7049 C.3     1  UNL1        0.0569
     41 C          11.3799   77.0346   25.4645 C.ar    1  UNL1       -0.0017
     42 C          10.7624   76.2068   26.3983 C.ar    1  UNL1        0.0681
     43 N          10.3517   75.0579   25.8147 N.ar    1  UNL1       -0.3523
     44 C          10.7077   75.1495   24.5219 C.ar    1  UNL1        0.0563
     45 C          10.4861   74.2091   23.5163 C.ar    1  UNL1        0.0170
     46 C          10.9418   74.5119   22.2202 C.ar    1  UNL1        0.0015
     47 C          11.6099   75.7293   21.9631 C.ar    1  UNL1        0.0001
     48 C          11.8250   76.6557   22.9989 C.ar    1  UNL1        0.0012
     49 C          11.3454   76.3372   24.2703 C.ar    1  UNL1        0.0131
     50 H           9.8540   74.2651   26.2776 H       1  UNL1        0.1660
@<TRIPOS>BOND
     1     1     2    2
     2     2     3   am
     3     3    26    1
     4    26    40    1
     5    40    41    1
     6    41    42   ar
     7    42    43   ar
     8    43    44   ar
     9    44    45   ar
    10    45    46   ar
    11    46    47   ar
    12    47    48   ar
    13    48    49   ar
    14    26    27    1
    15    27    28    2
    16    27    29   am
    17    29    31    1
    18    31    32   ar
    19    32    33   ar
    20    33    34   ar
    21    34    35   ar
    22    35    36   ar
    23    36    37    1
    24    37    38    1
    25     2     5    1
    26     5     6   ar
    27     6     7   ar
    28     7     8   ar
    29     8    12    1
    30    12    13    1
    31    13    14    1
    32    14    15    1
    33    15    18    1
    34    18    19   ar
    35    19    20   ar
    36    20    21   ar
    37    21    22    1
    38    21    23   ar
    39    23    24    1
    40    23    25   ar
    41    15    16    1
    42    16    17    1
    43     8     9   ar
    44     9    10   ar
    45    10    11    1
    46    49    41   ar
    47    36    31   ar
    48    10     5   ar
    49    49    44   ar
    50    17    12    1
    51    25    18   ar
    52     3     4    1
    53    43    50    1
    54    29    30    1
    55    38    39    1
@<TRIPOS>MOLECULE
*****
 50 55 0 0 0
SMALL
GASTEIGER

@<TRIPOS>ATOM
      1 O           8.0816   78.3496   27.2396 O.2     1  UNL1       -0.2701
      2 C           8.0766   77.2279   26.6626 C.2     1  UNL1        0.2483
      3 N           9.0962   76.2611   26.9613 N.am    1  UNL1       -0.2945
      4 H           9.1558   75.4006   26.3710 H       1  UNL1        0.1501
      5 C           7.0560   76.9493   25.6304 C.ar    1  UNL1        0.0808
      6 C           7.4597   76.5148   24.3585 C.ar    1  UNL1        0.0080
      7 C           6.5123   76.2009   23.3816 C.ar    1  UNL1        0.0148
      8 C           5.1383   76.3254   23.6515 C.ar    1  UNL1        0.0502
      9 C           4.7364   76.7869   24.9175 C.ar    1  UNL1        0.0443
     10 C           5.6830   77.0974   25.8987 C.ar    1  UNL1        0.1457
     11 F           5.2533   77.5779   27.0932 F       1  UNL1       -0.2040
     12 N           4.1569   75.9954   22.6433 N.pl3   1  UNL1       -0.3040
     13 C           4.4905   75.0494   21.5687 C.3     1  UNL1        0.1122
     14 C           3.2440   74.2868   21.1089 C.3     1  UNL1        0.1122
     15 N           2.1355   75.2016   20.7937 N.pl3   1  UNL1       -0.3040
     16 C           2.1705   76.5899   21.2760 C.3     1  UNL1        0.1122
     17 C           2.8511   76.6734   22.6457 C.3     1  UNL1        0.1122
     18 C           1.0598   74.7552   19.9377 C.ar    1  UNL1        0.0488
     19 C           0.2224   75.6865   19.2975 C.ar    1  UNL1        0.0154
     20 C          -0.8187   75.2549   18.4719 C.ar    1  UNL1        0.0135
     21 C          -1.0432   73.8895   18.2733 C.ar    1  UNL1        0.0683
     22 CL         -2.3639   73.3864   17.2269 Cl      1  UNL1       -0.0814
     23 C          -0.2175   72.9485   18.9088 C.ar    1  UNL1        0.0694
     24 CL         -0.4701   71.2216   18.6919 Cl      1  UNL1       -0.0813
     25 C           0.8258   73.3820   19.7354 C.ar    1  UNL1        0.0268
     26 C          10.2111   76.5459   27.8689 C.3     1  UNL1        0.1535
     27 C          10.4629   75.3507   28.7631 C.2     1  UNL1        0.2443
     28 O          11.5929   74.7939   28.7577 O.2     1  UNL1       -0.2730
     29 N           9.4414   74.8324   29.6291 N.am    1  UNL1       -0.2827
     30 H           9.7454   74.2956   30.4719 H       1  UNL1        0.1549
     31 C           8.0338   74.9544   29.3641 C.ar    1  UNL1        0.0517
     32 C           7.3766   73.9755   28.6028 C.ar    1  UNL1        0.0351
     33 C           6.0108   74.0963   28.3509 C.ar    1  UNL1        0.1001
     34 N           5.3174   75.1519   28.8487 N.ar    1  UNL1       -0.2425
     35 C           5.9178   76.1111   29.6009 C.ar    1  UNL1        0.0982
     36 C           7.2909   76.0348   29.8882 C.ar    1  UNL1        0.0396
     37 C           7.9497   77.1225   30.6955 C.3     1  UNL1        0.1664
     38 O           7.9886   78.3041   29.9447 O.3     1  UNL1       -0.3771
     39 H           8.4662   78.9705   30.5038 H       1  UNL1        0.2109
     40 C          11.4738   76.9788   27.0873 C.3     1  UNL1        0.0569
     41 C          11.1965   77.4234   25.6748 C.ar    1  UNL1       -0.0017
     42 C          11.1867   76.6220   24.5363 C.ar    1  UNL1        0.0681
     43 N          10.8350   77.3465   23.4499 N.ar    1  UNL1       -0.3523
     44 C          10.6268   78.5994   23.8897 C.ar    1  UNL1        0.0563
     45 C          10.2343   79.7049   23.1357 C.ar    1  UNL1        0.0170
     46 C          10.0691   80.9320   23.8038 C.ar    1  UNL1        0.0015
     47 C          10.3068   81.0279   25.1926 C.ar    1  UNL1        0.0001
     48 C          10.7083   79.8972   25.9259 C.ar    1  UNL1        0.0012
     49 C          10.8457   78.6891   25.2406 C.ar    1  UNL1        0.0131
     50 H          10.7401   76.9978   22.4701 H       1  UNL1        0.1660
@<TRIPOS>BOND
     1     1     2    2
     2     2     3   am
     3     3    26    1
     4    26    40    1
     5    40    41    1
     6    41    42   ar
     7    42    43   ar
     8    43    44   ar
     9    44    45   ar
    10    45    46   ar
    11    46    47   ar
    12    47    48   ar
    13    48    49   ar
    14    26    27    1
    15    27    28    2
    16    27    29   am
    17    29    31    1
    18    31    32   ar
    19    32    33   ar
    20    33    34   ar
    21    34    35   ar
    22    35    36   ar
    23    36    37    1
    24    37    38    1
    25     2     5    1
    26     5     6   ar
    27     6     7   ar
    28     7     8   ar
    29     8    12    1
    30    12    13    1
    31    13    14    1
    32    14    15    1
    33    15    18    1
    34    18    19   ar
    35    19    20   ar
    36    20    21   ar
    37    21    22    1
    38    21    23   ar
    39    23    24    1
    40    23    25   ar
    41    15    16    1
    42    16    17    1
    43     8     9   ar
    44     9    10   ar
    45    10    11    1
    46    49    41   ar
    47    36    31   ar
    48    10     5   ar
    49    49    44   ar
    50    17    12    1
    51    25    18   ar
    52     3     4    1
    53    43    50    1
    54    29    30    1
    55    38    39    1
