@<TRIPOS>MOLECULE
*****
 51 56 0 0 0
SMALL
GASTEIGER

@<TRIPOS>ATOM
      1 O         -62.0183  -45.6168  -28.0155 O.2     1  UNL1       -0.2701
      2 C         -62.6789  -44.5559  -27.8423 C.2     1  UNL1        0.2483
      3 N         -63.4408  -44.0105  -28.9318 N.am    1  UNL1       -0.2945
      4 H         -64.1769  -43.3049  -28.7088 H       1  UNL1        0.1501
      5 C         -62.6711  -43.9088  -26.5057 C.ar    1  UNL1        0.0808
      6 C         -63.1477  -42.5921  -26.3773 C.ar    1  UNL1        0.0080
      7 C         -63.1684  -41.9590  -25.1326 C.ar    1  UNL1        0.0148
      8 C         -62.7243  -42.6319  -23.9855 C.ar    1  UNL1        0.0502
      9 C         -62.2541  -43.9475  -24.1049 C.ar    1  UNL1        0.0443
     10 C         -62.2295  -44.5862  -25.3488 C.ar    1  UNL1        0.1457
     11 F         -61.8198  -45.8782  -25.3977 F       1  UNL1       -0.2040
     12 N         -62.7391  -41.9757  -22.7040 N.pl3   1  UNL1       -0.3040
     13 C         -63.8623  -42.1654  -21.7803 C.3     1  UNL1        0.1123
     14 C         -64.3981  -40.8006  -21.3449 C.3     1  UNL1        0.1136
     15 N         -63.3125  -39.9079  -20.8981 N.pl3   1  UNL1       -0.2897
     16 C         -61.9119  -40.3525  -21.0064 C.3     1  UNL1        0.1136
     17 C         -61.6583  -41.0427  -22.3544 C.3     1  UNL1        0.1123
     18 C         -63.6220  -38.6860  -20.1879 C.ar    1  UNL1        0.1318
     19 C         -64.6706  -38.6258  -19.2526 C.ar    1  UNL1        0.0343
     20 C         -64.9359  -37.4281  -18.5866 C.ar    1  UNL1        0.0083
     21 C         -64.1757  -36.2823  -18.8613 C.ar    1  UNL1        0.0906
     22 C         -63.1234  -36.3870  -19.7826 C.ar    1  UNL1        0.1041
     23 N         -62.8821  -37.5644  -20.4170 N.ar    1  UNL1       -0.2292
     24 C         -64.4202  -34.9970  -18.1123 C.3     1  UNL1        0.4200
     25 F         -63.2380  -34.2853  -18.0318 F       1  UNL1       -0.1658
     26 F         -65.3680  -34.2257  -18.7624 F       1  UNL1       -0.1658
     27 F         -64.8779  -35.2578  -16.8322 F       1  UNL1       -0.1658
     28 C         -63.3293  -44.5313  -30.3031 C.3     1  UNL1        0.1535
     29 C         -64.5241  -45.3796  -30.6718 C.2     1  UNL1        0.2443
     30 O         -65.6911  -44.9178  -30.5405 O.2     1  UNL1       -0.2730
     31 N         -64.3192  -46.6660  -31.2779 N.am    1  UNL1       -0.2825
     32 H         -63.3583  -46.8950  -31.6197 H       1  UNL1        0.1549
     33 C         -65.3799  -47.5851  -31.5874 C.ar    1  UNL1        0.0535
     34 C         -65.9969  -47.5274  -32.8444 C.ar    1  UNL1        0.0353
     35 C         -67.0167  -48.4297  -33.1560 C.ar    1  UNL1        0.1002
     36 N         -67.3965  -49.3690  -32.2498 N.ar    1  UNL1       -0.2422
     37 C         -66.8038  -49.4620  -31.0302 C.ar    1  UNL1        0.1002
     38 C         -65.7808  -48.5781  -30.6778 C.ar    1  UNL1        0.0353
     39 C         -63.1141  -43.3951  -31.3282 C.3     1  UNL1        0.0573
     40 C         -61.9001  -43.5960  -32.1991 C.ar    1  UNL1        0.0026
     41 C         -61.8086  -43.4338  -33.5827 C.ar    1  UNL1        0.0753
     42 S         -63.1624  -43.0444  -34.6897 S.3     1  UNL1       -0.1250
     43 N         -60.5500  -43.6695  -34.0152 N.ar    1  UNL1       -0.3489
     44 C         -59.8415  -43.9934  -32.9204 C.ar    1  UNL1        0.0567
     45 C         -58.4925  -44.3414  -32.8635 C.ar    1  UNL1        0.0170
     46 C         -57.9519  -44.6793  -31.6099 C.ar    1  UNL1        0.0015
     47 C         -58.7657  -44.6764  -30.4563 C.ar    1  UNL1        0.0001
     48 C         -60.1253  -44.3281  -30.5443 C.ar    1  UNL1        0.0012
     49 C         -60.6300  -43.9715  -31.7964 C.ar    1  UNL1        0.0136
     50 H         -63.4834  -44.4040  -34.8574 H       1  UNL1        0.1085
     51 H         -60.2064  -43.6309  -35.0007 H       1  UNL1        0.1664
@<TRIPOS>BOND
     1     1     2    2
     2     2     3   am
     3     3    28    1
     4    28    39    1
     5    39    40    1
     6    40    41   ar
     7    41    42    1
     8    41    43   ar
     9    43    44   ar
    10    44    45   ar
    11    45    46   ar
    12    46    47   ar
    13    47    48   ar
    14    48    49   ar
    15    28    29    1
    16    29    30    2
    17    29    31   am
    18    31    33    1
    19    33    34   ar
    20    34    35   ar
    21    35    36   ar
    22    36    37   ar
    23    37    38   ar
    24     2     5    1
    25     5     6   ar
    26     6     7   ar
    27     7     8   ar
    28     8    12    1
    29    12    13    1
    30    13    14    1
    31    14    15    1
    32    15    18    1
    33    18    19   ar
    34    19    20   ar
    35    20    21   ar
    36    21    24    1
    37    24    25    1
    38    24    26    1
    39    24    27    1
    40    21    22   ar
    41    22    23   ar
    42    15    16    1
    43    16    17    1
    44     8     9   ar
    45     9    10   ar
    46    10    11    1
    47    49    40   ar
    48    38    33   ar
    49    10     5   ar
    50    49    44   ar
    51    17    12    1
    52    23    18   ar
    53     3     4    1
    54    42    50    1
    55    43    51    1
    56    31    32    1
@<TRIPOS>MOLECULE
*****
 51 56 0 0 0
SMALL
GASTEIGER

@<TRIPOS>ATOM
      1 O         -60.0252  -50.5336  -24.0060 O.2     1  UNL1       -0.2701
      2 C         -61.1954  -50.1601  -23.7178 C.2     1  UNL1        0.2483
      3 N         -61.4767  -48.7580  -23.5777 N.am    1  UNL1       -0.2945
      4 H         -62.4749  -48.4542  -23.6057 H       1  UNL1        0.1501
      5 C         -62.2610  -51.1813  -23.5536 C.ar    1  UNL1        0.0808
      6 C         -63.4652  -51.0380  -24.2654 C.ar    1  UNL1        0.0080
      7 C         -64.4821  -51.9878  -24.1458 C.ar    1  UNL1        0.0148
      8 C         -64.3140  -53.1091  -23.3209 C.ar    1  UNL1        0.0502
      9 C         -63.1130  -53.2621  -22.6135 C.ar    1  UNL1        0.0443
     10 C         -62.0917  -52.3136  -22.7280 C.ar    1  UNL1        0.1457
     11 F         -60.9292  -52.5409  -22.0674 F       1  UNL1       -0.2040
     12 N         -65.3658  -54.0837  -23.1925 N.pl3   1  UNL1       -0.3040
     13 C         -66.3628  -54.2516  -24.2548 C.3     1  UNL1        0.1123
     14 C         -67.7663  -54.1572  -23.6542 C.3     1  UNL1        0.1136
     15 N         -67.9080  -55.0196  -22.4661 N.pl3   1  UNL1       -0.2897
     16 C         -66.7372  -55.7527  -21.9535 C.3     1  UNL1        0.1136
     17 C         -65.4889  -54.8584  -21.9492 C.3     1  UNL1        0.1123
     18 C         -69.2191  -55.2936  -21.9191 C.ar    1  UNL1        0.1318
     19 C         -69.8860  -54.3586  -21.1074 C.ar    1  UNL1        0.0343
     20 C         -71.1512  -54.6602  -20.6007 C.ar    1  UNL1        0.0083
     21 C         -71.7492  -55.8973  -20.8806 C.ar    1  UNL1        0.0906
     22 C         -71.0639  -56.7944  -21.7130 C.ar    1  UNL1        0.1041
     23 N         -69.8340  -56.4779  -22.1968 N.ar    1  UNL1       -0.2292
     24 C         -73.1357  -56.2141  -20.3808 C.3     1  UNL1        0.4200
     25 F         -73.8897  -56.7224  -21.4219 F       1  UNL1       -0.1658
     26 F         -73.0854  -57.1493  -19.3615 F       1  UNL1       -0.1658
     27 F         -73.7507  -55.0742  -19.8927 F       1  UNL1       -0.1658
     28 C         -60.4115  -47.7433  -23.5648 C.3     1  UNL1        0.1535
     29 C         -60.6946  -46.6313  -24.5478 C.2     1  UNL1        0.2443
     30 O         -59.7918  -46.2434  -25.3397 O.2     1  UNL1       -0.2730
     31 N         -62.0254  -46.1002  -24.6523 N.am    1  UNL1       -0.2825
     32 H         -62.7973  -46.6269  -24.1838 H       1  UNL1        0.1549
     33 C         -62.3820  -44.9881  -25.4901 C.ar    1  UNL1        0.0535
     34 C         -62.1778  -43.6819  -25.0253 C.ar    1  UNL1        0.0353
     35 C         -62.5070  -42.5979  -25.8427 C.ar    1  UNL1        0.1002
     36 N         -63.0074  -42.8106  -27.0885 N.ar    1  UNL1       -0.2422
     37 C         -63.1985  -44.0657  -27.5741 C.ar    1  UNL1        0.1002
     38 C         -62.8837  -45.1775  -26.7888 C.ar    1  UNL1        0.0353
     39 C         -60.1742  -47.1845  -22.1437 C.3     1  UNL1        0.0573
     40 C         -59.8799  -45.7062  -22.1227 C.ar    1  UNL1        0.0026
     41 C         -58.6597  -45.0773  -22.3770 C.ar    1  UNL1        0.0753
     42 S         -57.0975  -45.8963  -22.6906 S.3     1  UNL1       -0.1250
     43 N         -58.7827  -43.7336  -22.2995 N.ar    1  UNL1       -0.3489
     44 C         -60.0681  -43.5012  -21.9849 C.ar    1  UNL1        0.0567
     45 C         -60.6726  -42.2624  -21.7756 C.ar    1  UNL1        0.0170
     46 C         -62.0333  -42.2452  -21.4202 C.ar    1  UNL1        0.0015
     47 C         -62.7478  -43.4533  -21.2688 C.ar    1  UNL1        0.0001
     48 C         -62.1106  -44.6892  -21.4793 C.ar    1  UNL1        0.0012
     49 C         -60.7664  -44.6767  -21.8569 C.ar    1  UNL1        0.0136
     50 H         -56.7951  -45.9561  -21.3178 H       1  UNL1        0.1085
     51 H         -58.0275  -43.0246  -22.4331 H       1  UNL1        0.1664
@<TRIPOS>BOND
     1     1     2    2
     2     2     3   am
     3     3    28    1
     4    28    39    1
     5    39    40    1
     6    40    41   ar
     7    41    42    1
     8    41    43   ar
     9    43    44   ar
    10    44    45   ar
    11    45    46   ar
    12    46    47   ar
    13    47    48   ar
    14    48    49   ar
    15    28    29    1
    16    29    30    2
    17    29    31   am
    18    31    33    1
    19    33    34   ar
    20    34    35   ar
    21    35    36   ar
    22    36    37   ar
    23    37    38   ar
    24     2     5    1
    25     5     6   ar
    26     6     7   ar
    27     7     8   ar
    28     8    12    1
    29    12    13    1
    30    13    14    1
    31    14    15    1
    32    15    18    1
    33    18    19   ar
    34    19    20   ar
    35    20    21   ar
    36    21    24    1
    37    24    25    1
    38    24    26    1
    39    24    27    1
    40    21    22   ar
    41    22    23   ar
    42    15    16    1
    43    16    17    1
    44     8     9   ar
    45     9    10   ar
    46    10    11    1
    47    49    40   ar
    48    38    33   ar
    49    10     5   ar
    50    49    44   ar
    51    17    12    1
    52    23    18   ar
    53     3     4    1
    54    42    50    1
    55    43    51    1
    56    31    32    1
@<TRIPOS>MOLECULE
*****
 51 56 0 0 0
SMALL
GASTEIGER

@<TRIPOS>ATOM
      1 O         -61.3278  -43.3470  -19.8835 O.2     1  UNL1       -0.2701
      2 C         -61.9866  -42.7961  -20.8078 C.2     1  UNL1        0.2483
      3 N         -62.7616  -41.6205  -20.5211 N.am    1  UNL1       -0.2945
      4 H         -63.0760  -41.0339  -21.3253 H       1  UNL1        0.1501
      5 C         -61.9253  -43.3650  -22.1782 C.ar    1  UNL1        0.0808
      6 C         -61.4991  -42.5498  -23.2418 C.ar    1  UNL1        0.0080
      7 C         -61.4153  -43.0570  -24.5403 C.ar    1  UNL1        0.0148
      8 C         -61.7444  -44.3944  -24.8036 C.ar    1  UNL1        0.0502
      9 C         -62.1635  -45.2150  -23.7466 C.ar    1  UNL1        0.0443
     10 C         -62.2508  -44.7123  -22.4445 C.ar    1  UNL1        0.1457
     11 F         -62.6056  -45.5648  -21.4511 F       1  UNL1       -0.2040
     12 N         -61.6649  -44.9143  -26.1439 N.pl3   1  UNL1       -0.3040
     13 C         -60.4695  -45.6329  -26.5969 C.3     1  UNL1        0.1123
     14 C         -59.9648  -45.0095  -27.8992 C.3     1  UNL1        0.1136
     15 N         -61.0537  -44.8441  -28.8802 N.pl3   1  UNL1       -0.2897
     16 C         -62.4371  -45.1761  -28.4968 C.3     1  UNL1        0.1136
     17 C         -62.7579  -44.6494  -27.0905 C.3     1  UNL1        0.1123
     18 C         -60.7479  -44.5391  -30.2610 C.ar    1  UNL1        0.1318
     19 C         -59.5155  -44.8970  -30.8365 C.ar    1  UNL1        0.0343
     20 C         -59.2599  -44.5865  -32.1731 C.ar    1  UNL1        0.0083
     21 C         -60.2171  -43.9027  -32.9364 C.ar    1  UNL1        0.0906
     22 C         -61.4433  -43.5834  -32.3349 C.ar    1  UNL1        0.1041
     23 N         -61.6707  -43.8980  -31.0326 N.ar    1  UNL1       -0.2292
     24 C         -59.9726  -43.6064  -34.3941 C.3     1  UNL1        0.4200
     25 F         -61.1808  -43.3526  -35.0158 F       1  UNL1       -0.1658
     26 F         -59.1508  -42.5018  -34.5368 F       1  UNL1       -0.1658
     27 F         -59.3630  -44.6829  -35.0152 F       1  UNL1       -0.1658
     28 C         -62.9764  -41.1402  -19.1473 C.3     1  UNL1        0.1535
     29 C         -62.9227  -39.6320  -19.0735 C.2     1  UNL1        0.2443
     30 O         -62.9071  -39.0548  -17.9515 O.2     1  UNL1       -0.2730
     31 N         -62.7744  -38.8687  -20.2817 N.am    1  UNL1       -0.2825
     32 H         -62.5168  -39.3841  -21.1539 H       1  UNL1        0.1549
     33 C         -62.7986  -37.4325  -20.3314 C.ar    1  UNL1        0.0535
     34 C         -63.7608  -36.7334  -19.5903 C.ar    1  UNL1        0.0353
     35 C         -63.7775  -35.3370  -19.6221 C.ar    1  UNL1        0.1002
     36 N         -62.8543  -34.6606  -20.3554 N.ar    1  UNL1       -0.2422
     37 C         -61.8971  -35.3103  -21.0689 C.ar    1  UNL1        0.1002
     38 C         -61.8457  -36.7065  -21.0657 C.ar    1  UNL1        0.0353
     39 C         -64.2972  -41.6810  -18.5548 C.3     1  UNL1        0.0573
     40 C         -65.2896  -42.1170  -19.6025 C.ar    1  UNL1        0.0026
     41 C         -65.7297  -43.4145  -19.8707 C.ar    1  UNL1        0.0753
     42 S         -65.1306  -44.9124  -19.0916 S.3     1  UNL1       -0.1250
     43 N         -66.6496  -43.4183  -20.8608 N.ar    1  UNL1       -0.3489
     44 C         -66.7899  -42.1355  -21.2350 C.ar    1  UNL1        0.0567
     45 C         -67.6163  -41.6380  -22.2417 C.ar    1  UNL1        0.0170
     46 C         -67.5868  -40.2548  -22.4946 C.ar    1  UNL1        0.0015
     47 C         -66.7306  -39.4110  -21.7543 C.ar    1  UNL1        0.0001
     48 C         -65.9022  -39.9413  -20.7492 C.ar    1  UNL1        0.0012
     49 C         -65.9705  -41.3136  -20.5010 C.ar    1  UNL1        0.0136
     50 H         -64.0991  -45.0529  -20.0381 H       1  UNL1        0.1085
     51 H         -67.1329  -44.2505  -21.2666 H       1  UNL1        0.1664
@<TRIPOS>BOND
     1     1     2    2
     2     2     3   am
     3     3    28    1
     4    28    39    1
     5    39    40    1
     6    40    41   ar
     7    41    42    1
     8    41    43   ar
     9    43    44   ar
    10    44    45   ar
    11    45    46   ar
    12    46    47   ar
    13    47    48   ar
    14    48    49   ar
    15    28    29    1
    16    29    30    2
    17    29    31   am
    18    31    33    1
    19    33    34   ar
    20    34    35   ar
    21    35    36   ar
    22    36    37   ar
    23    37    38   ar
    24     2     5    1
    25     5     6   ar
    26     6     7   ar
    27     7     8   ar
    28     8    12    1
    29    12    13    1
    30    13    14    1
    31    14    15    1
    32    15    18    1
    33    18    19   ar
    34    19    20   ar
    35    20    21   ar
    36    21    24    1
    37    24    25    1
    38    24    26    1
    39    24    27    1
    40    21    22   ar
    41    22    23   ar
    42    15    16    1
    43    16    17    1
    44     8     9   ar
    45     9    10   ar
    46    10    11    1
    47    49    40   ar
    48    38    33   ar
    49    10     5   ar
    50    49    44   ar
    51    17    12    1
    52    23    18   ar
    53     3     4    1
    54    42    50    1
    55    43    51    1
    56    31    32    1
@<TRIPOS>MOLECULE
*****
 51 56 0 0 0
SMALL
GASTEIGER

@<TRIPOS>ATOM
      1 O         -60.6983  -46.5956  -26.4471 O.2     1  UNL1       -0.2701
      2 C         -61.6864  -45.8139  -26.3810 C.2     1  UNL1        0.2483
      3 N         -62.5991  -45.7314  -27.4878 N.am    1  UNL1       -0.2945
      4 H         -63.5336  -45.2977  -27.3198 H       1  UNL1        0.1501
      5 C         -61.8948  -45.0139  -25.1474 C.ar    1  UNL1        0.0808
      6 C         -62.0812  -43.6241  -25.2533 C.ar    1  UNL1        0.0080
      7 C         -62.2948  -42.8440  -24.1148 C.ar    1  UNL1        0.0148
      8 C         -62.3387  -43.4368  -22.8449 C.ar    1  UNL1        0.0502
      9 C         -62.1605  -44.8232  -22.7323 C.ar    1  UNL1        0.0443
     10 C         -61.9448  -45.6093  -23.8686 C.ar    1  UNL1        0.1457
     11 F         -61.8369  -46.9518  -23.7079 F       1  UNL1       -0.2040
     12 N         -62.5514  -42.6307  -21.6711 N.pl3   1  UNL1       -0.3040
     13 C         -63.8427  -42.6487  -20.9762 C.3     1  UNL1        0.1123
     14 C         -64.3489  -41.2153  -20.8073 C.3     1  UNL1        0.1136
     15 N         -63.3062  -40.3327  -20.2514 N.pl3   1  UNL1       -0.2897
     16 C         -61.9483  -40.8594  -20.0281 C.3     1  UNL1        0.1136
     17 C         -61.4916  -41.7197  -21.2152 C.3     1  UNL1        0.1123
     18 C         -63.6547  -39.0195  -19.7542 C.ar    1  UNL1        0.1318
     19 C         -64.6247  -38.8481  -18.7503 C.ar    1  UNL1        0.0343
     20 C         -64.9309  -37.5642  -18.2961 C.ar    1  UNL1        0.0083
     21 C         -64.2911  -36.4462  -18.8502 C.ar    1  UNL1        0.0906
     22 C         -63.3126  -36.6584  -19.8324 C.ar    1  UNL1        0.1041
     23 N         -63.0294  -37.9178  -20.2572 N.ar    1  UNL1       -0.2292
     24 C         -64.5769  -35.0593  -18.3330 C.3     1  UNL1        0.4200
     25 F         -63.3876  -34.3659  -18.2087 F       1  UNL1       -0.1658
     26 F         -65.4091  -34.3758  -19.2026 F       1  UNL1       -0.1658
     27 F         -65.1965  -35.1177  -17.0966 F       1  UNL1       -0.1658
     28 C         -62.3232  -46.3784  -28.7798 C.3     1  UNL1        0.1535
     29 C         -63.5070  -47.1865  -29.2581 C.2     1  UNL1        0.2443
     30 O         -64.0173  -48.0637  -28.5082 O.2     1  UNL1       -0.2730
     31 N         -64.1158  -46.8714  -30.5208 N.am    1  UNL1       -0.2825
     32 H         -63.8435  -45.9733  -30.9812 H       1  UNL1        0.1549
     33 C         -65.1876  -47.6293  -31.1061 C.ar    1  UNL1        0.0535
     34 C         -65.6652  -47.2797  -32.3763 C.ar    1  UNL1        0.0353
     35 C         -66.6952  -48.0239  -32.9565 C.ar    1  UNL1        0.1002
     36 N         -67.2194  -49.0915  -32.2983 N.ar    1  UNL1       -0.2422
     37 C         -66.7638  -49.4664  -31.0738 C.ar    1  UNL1        0.1002
     38 C         -65.7360  -48.7485  -30.4573 C.ar    1  UNL1        0.0353
     39 C         -61.8801  -45.3527  -29.8474 C.3     1  UNL1        0.0573
     40 C         -62.3365  -43.9464  -29.5529 C.ar    1  UNL1        0.0026
     41 C         -61.6131  -42.9304  -28.9256 C.ar    1  UNL1        0.0753
     42 S         -59.9776  -43.0879  -28.2116 S.3     1  UNL1       -0.1250
     43 N         -62.3354  -41.7897  -28.8639 N.ar    1  UNL1       -0.3489
     44 C         -63.5180  -42.0739  -29.4348 C.ar    1  UNL1        0.0567
     45 C         -64.6064  -41.2160  -29.5880 C.ar    1  UNL1        0.0170
     46 C         -65.7698  -41.7291  -30.1891 C.ar    1  UNL1        0.0015
     47 C         -65.8244  -43.0769  -30.6054 C.ar    1  UNL1        0.0001
     48 C         -64.7137  -43.9218  -30.4320 C.ar    1  UNL1        0.0012
     49 C         -63.5626  -43.3799  -29.8567 C.ar    1  UNL1        0.0136
     50 H         -60.5025  -43.4970  -26.9720 H       1  UNL1        0.1085
     51 H         -62.0420  -40.8822  -28.4381 H       1  UNL1        0.1664
@<TRIPOS>BOND
     1     1     2    2
     2     2     3   am
     3     3    28    1
     4    28    39    1
     5    39    40    1
     6    40    41   ar
     7    41    42    1
     8    41    43   ar
     9    43    44   ar
    10    44    45   ar
    11    45    46   ar
    12    46    47   ar
    13    47    48   ar
    14    48    49   ar
    15    28    29    1
    16    29    30    2
    17    29    31   am
    18    31    33    1
    19    33    34   ar
    20    34    35   ar
    21    35    36   ar
    22    36    37   ar
    23    37    38   ar
    24     2     5    1
    25     5     6   ar
    26     6     7   ar
    27     7     8   ar
    28     8    12    1
    29    12    13    1
    30    13    14    1
    31    14    15    1
    32    15    18    1
    33    18    19   ar
    34    19    20   ar
    35    20    21   ar
    36    21    24    1
    37    24    25    1
    38    24    26    1
    39    24    27    1
    40    21    22   ar
    41    22    23   ar
    42    15    16    1
    43    16    17    1
    44     8     9   ar
    45     9    10   ar
    46    10    11    1
    47    49    40   ar
    48    38    33   ar
    49    10     5   ar
    50    49    44   ar
    51    17    12    1
    52    23    18   ar
    53     3     4    1
    54    42    50    1
    55    43    51    1
    56    31    32    1
@<TRIPOS>MOLECULE
*****
 51 56 0 0 0
SMALL
GASTEIGER

@<TRIPOS>ATOM
      1 O         -60.5530  -42.0363  -21.5171 O.2     1  UNL1       -0.2701
      2 C         -61.5141  -41.6594  -22.2425 C.2     1  UNL1        0.2483
      3 N         -62.4347  -40.6756  -21.7430 N.am    1  UNL1       -0.2945
      4 H         -63.0487  -40.1865  -22.4309 H       1  UNL1        0.1501
      5 C         -61.6561  -42.2266  -23.6075 C.ar    1  UNL1        0.0808
      6 C         -62.8920  -42.1211  -24.2700 C.ar    1  UNL1        0.0080
      7 C         -63.0558  -42.6303  -25.5601 C.ar    1  UNL1        0.0148
      8 C         -61.9844  -43.2461  -26.2225 C.ar    1  UNL1        0.0502
      9 C         -60.7471  -43.3486  -25.5707 C.ar    1  UNL1        0.0443
     10 C         -60.5774  -42.8421  -24.2783 C.ar    1  UNL1        0.1457
     11 F         -59.3445  -42.9160  -23.7178 F       1  UNL1       -0.2040
     12 N         -62.1563  -43.7773  -27.5496 N.pl3   1  UNL1       -0.3040
     13 C         -62.7724  -42.9666  -28.6050 C.3     1  UNL1        0.1123
     14 C         -63.9199  -43.7508  -29.2436 C.3     1  UNL1        0.1136
     15 N         -63.5056  -45.1178  -29.6108 N.pl3   1  UNL1       -0.2897
     16 C         -62.1558  -45.5905  -29.2565 C.3     1  UNL1        0.1136
     17 C         -61.7865  -45.1730  -27.8256 C.3     1  UNL1        0.1123
     18 C         -64.3422  -45.9239  -30.4731 C.ar    1  UNL1        0.1318
     19 C         -64.9788  -45.3750  -31.6007 C.ar    1  UNL1        0.0343
     20 C         -65.7761  -46.1870  -32.4088 C.ar    1  UNL1        0.0083
     21 C         -65.9608  -47.5399  -32.0896 C.ar    1  UNL1        0.0906
     22 C         -65.2910  -48.0570  -30.9710 C.ar    1  UNL1        0.1041
     23 N         -64.5177  -47.2478  -30.2002 N.ar    1  UNL1       -0.2292
     24 C         -66.7786  -48.4381  -32.9823 C.3     1  UNL1        0.4200
     25 F         -66.1202  -48.6049  -34.1862 F       1  UNL1       -0.1658
     26 F         -66.9618  -49.6770  -32.3926 F       1  UNL1       -0.1658
     27 F         -68.0243  -47.8843  -33.2222 F       1  UNL1       -0.1658
     28 C         -62.4181  -40.2281  -20.3417 C.3     1  UNL1        0.1535
     29 C         -62.7610  -38.7612  -20.2249 C.2     1  UNL1        0.2443
     30 O         -62.2761  -37.9322  -21.0434 O.2     1  UNL1       -0.2730
     31 N         -63.7283  -38.3354  -19.2517 N.am    1  UNL1       -0.2825
     32 H         -64.3053  -39.0718  -18.7851 H       1  UNL1        0.1549
     33 C         -64.0621  -36.9601  -19.0007 C.ar    1  UNL1        0.0535
     34 C         -65.3261  -36.4796  -19.3684 C.ar    1  UNL1        0.0353
     35 C         -65.6612  -35.1481  -19.1110 C.ar    1  UNL1        0.1002
     36 N         -64.7709  -34.3283  -18.4923 N.ar    1  UNL1       -0.2422
     37 C         -63.5449  -34.7707  -18.1067 C.ar    1  UNL1        0.1002
     38 C         -63.1692  -36.0948  -18.3464 C.ar    1  UNL1        0.0353
     39 C         -63.3471  -41.0902  -19.4574 C.3     1  UNL1        0.0573
     40 C         -64.5343  -41.6472  -20.2008 C.ar    1  UNL1        0.0026
     41 C         -64.8109  -42.9864  -20.4821 C.ar    1  UNL1        0.0753
     42 S         -63.7490  -44.3815  -20.1136 S.3     1  UNL1       -0.1250
     43 N         -65.9853  -43.1101  -21.1394 N.ar    1  UNL1       -0.3489
     44 C         -66.4533  -41.8597  -21.2911 C.ar    1  UNL1        0.0567
     45 C         -67.6308  -41.4735  -21.9300 C.ar    1  UNL1        0.0170
     46 C         -67.9186  -40.0990  -22.0060 C.ar    1  UNL1        0.0015
     47 C         -67.0259  -39.1507  -21.4612 C.ar    1  UNL1        0.0001
     48 C         -65.8416  -39.5684  -20.8284 C.ar    1  UNL1        0.0012
     49 C         -65.5933  -40.9398  -20.7436 C.ar    1  UNL1        0.0136
     50 H         -63.0679  -44.2517  -21.3379 H       1  UNL1        0.1085
     51 H         -66.4251  -43.9941  -21.4798 H       1  UNL1        0.1664
@<TRIPOS>BOND
     1     1     2    2
     2     2     3   am
     3     3    28    1
     4    28    39    1
     5    39    40    1
     6    40    41   ar
     7    41    42    1
     8    41    43   ar
     9    43    44   ar
    10    44    45   ar
    11    45    46   ar
    12    46    47   ar
    13    47    48   ar
    14    48    49   ar
    15    28    29    1
    16    29    30    2
    17    29    31   am
    18    31    33    1
    19    33    34   ar
    20    34    35   ar
    21    35    36   ar
    22    36    37   ar
    23    37    38   ar
    24     2     5    1
    25     5     6   ar
    26     6     7   ar
    27     7     8   ar
    28     8    12    1
    29    12    13    1
    30    13    14    1
    31    14    15    1
    32    15    18    1
    33    18    19   ar
    34    19    20   ar
    35    20    21   ar
    36    21    24    1
    37    24    25    1
    38    24    26    1
    39    24    27    1
    40    21    22   ar
    41    22    23   ar
    42    15    16    1
    43    16    17    1
    44     8     9   ar
    45     9    10   ar
    46    10    11    1
    47    49    40   ar
    48    38    33   ar
    49    10     5   ar
    50    49    44   ar
    51    17    12    1
    52    23    18   ar
    53     3     4    1
    54    42    50    1
    55    43    51    1
    56    31    32    1
@<TRIPOS>MOLECULE
*****
 51 56 0 0 0
SMALL
GASTEIGER

@<TRIPOS>ATOM
      1 O         -61.7228  -44.4432  -27.9585 O.2     1  UNL1       -0.2701
      2 C         -62.6719  -44.6109  -27.1442 C.2     1  UNL1        0.2483
      3 N         -63.7342  -45.5210  -27.4729 N.am    1  UNL1       -0.2945
      4 H         -64.3554  -45.8472  -26.7001 H       1  UNL1        0.1501
      5 C         -62.6548  -43.8787  -25.8524 C.ar    1  UNL1        0.0808
      6 C         -63.2017  -42.5847  -25.7890 C.ar    1  UNL1        0.0080
      7 C         -63.2154  -41.8741  -24.5868 C.ar    1  UNL1        0.0148
      8 C         -62.6935  -42.4452  -23.4174 C.ar    1  UNL1        0.0502
      9 C         -62.1528  -43.7379  -23.4717 C.ar    1  UNL1        0.0443
     10 C         -62.1348  -44.4538  -24.6729 C.ar    1  UNL1        0.1457
     11 F         -61.6533  -45.7217  -24.6560 F       1  UNL1       -0.2040
     12 N         -62.7014  -41.7089  -22.1803 N.pl3   1  UNL1       -0.3040
     13 C         -63.7314  -41.9610  -21.1672 C.3     1  UNL1        0.1123
     14 C         -64.3946  -40.6392  -20.7769 C.3     1  UNL1        0.1136
     15 N         -63.3947  -39.6007  -20.4653 N.pl3   1  UNL1       -0.2897
     16 C         -61.9616  -39.8901  -20.6487 C.3     1  UNL1        0.1136
     17 C         -61.7175  -40.6377  -21.9676 C.3     1  UNL1        0.1123
     18 C         -63.7988  -38.3761  -19.8095 C.ar    1  UNL1        0.1318
     19 C         -64.9395  -38.3248  -18.9883 C.ar    1  UNL1        0.0343
     20 C         -65.2945  -37.1240  -18.3715 C.ar    1  UNL1        0.0083
     21 C         -64.5315  -35.9668  -18.5836 C.ar    1  UNL1        0.0906
     22 C         -63.3878  -36.0624  -19.3898 C.ar    1  UNL1        0.1041
     23 N         -63.0603  -37.2429  -19.9780 N.ar    1  UNL1       -0.2292
     24 C         -64.8761  -34.6770  -17.8834 C.3     1  UNL1        0.4200
     25 F         -63.8635  -33.7600  -18.0943 F       1  UNL1       -0.1658
     26 F         -66.0632  -34.1586  -18.3712 F       1  UNL1       -0.1658
     27 F         -65.0209  -34.8843  -16.5225 F       1  UNL1       -0.1658
     28 C         -63.8637  -46.1234  -28.8087 C.3     1  UNL1        0.1535
     29 C         -63.3979  -45.1768  -29.8904 C.2     1  UNL1        0.2443
     30 O         -64.1541  -44.2466  -30.2842 O.2     1  UNL1       -0.2730
     31 N         -62.0517  -45.2723  -30.3833 N.am    1  UNL1       -0.2825
     32 H         -61.3784  -45.8653  -29.8470 H       1  UNL1        0.1549
     33 C         -61.5359  -44.4806  -31.4663 C.ar    1  UNL1        0.0535
     34 C         -60.1644  -44.5144  -31.7523 C.ar    1  UNL1        0.0353
     35 C         -59.6610  -43.7598  -32.8147 C.ar    1  UNL1        0.1002
     36 N         -60.5006  -43.0099  -33.5765 N.ar    1  UNL1       -0.2422
     37 C         -61.8378  -42.9721  -33.3355 C.ar    1  UNL1        0.1002
     38 C         -62.3822  -43.7107  -32.2819 C.ar    1  UNL1        0.0353
     39 C         -63.1250  -47.4780  -28.8968 C.3     1  UNL1        0.0573
     40 C         -62.3617  -47.8266  -27.6444 C.ar    1  UNL1        0.0026
     41 C         -61.0187  -47.5662  -27.3656 C.ar    1  UNL1        0.0753
     42 S         -59.8310  -46.8373  -28.4916 S.3     1  UNL1       -0.1250
     43 N         -60.6900  -47.9948  -26.1267 N.ar    1  UNL1       -0.3489
     44 C         -61.8089  -48.5381  -25.6185 C.ar    1  UNL1        0.0567
     45 C         -61.9615  -49.1355  -24.3680 C.ar    1  UNL1        0.0170
     46 C         -63.2196  -49.6747  -24.0448 C.ar    1  UNL1        0.0015
     47 C         -64.2811  -49.6189  -24.9737 C.ar    1  UNL1        0.0001
     48 C         -64.0968  -49.0165  -26.2310 C.ar    1  UNL1        0.0012
     49 C         -62.8457  -48.4658  -26.5159 C.ar    1  UNL1        0.0136
     50 H         -59.4899  -48.0935  -29.0257 H       1  UNL1        0.1085
     51 H         -59.7527  -47.9367  -25.6696 H       1  UNL1        0.1664
@<TRIPOS>BOND
     1     1     2    2
     2     2     3   am
     3     3    28    1
     4    28    39    1
     5    39    40    1
     6    40    41   ar
     7    41    42    1
     8    41    43   ar
     9    43    44   ar
    10    44    45   ar
    11    45    46   ar
    12    46    47   ar
    13    47    48   ar
    14    48    49   ar
    15    28    29    1
    16    29    30    2
    17    29    31   am
    18    31    33    1
    19    33    34   ar
    20    34    35   ar
    21    35    36   ar
    22    36    37   ar
    23    37    38   ar
    24     2     5    1
    25     5     6   ar
    26     6     7   ar
    27     7     8   ar
    28     8    12    1
    29    12    13    1
    30    13    14    1
    31    14    15    1
    32    15    18    1
    33    18    19   ar
    34    19    20   ar
    35    20    21   ar
    36    21    24    1
    37    24    25    1
    38    24    26    1
    39    24    27    1
    40    21    22   ar
    41    22    23   ar
    42    15    16    1
    43    16    17    1
    44     8     9   ar
    45     9    10   ar
    46    10    11    1
    47    49    40   ar
    48    38    33   ar
    49    10     5   ar
    50    49    44   ar
    51    17    12    1
    52    23    18   ar
    53     3     4    1
    54    42    50    1
    55    43    51    1
    56    31    32    1
@<TRIPOS>MOLECULE
*****
 51 56 0 0 0
SMALL
GASTEIGER

@<TRIPOS>ATOM
      1 O         -60.6052  -46.3652  -25.9366 O.2     1  UNL1       -0.2701
      2 C         -60.7906  -45.1185  -25.9938 C.2     1  UNL1        0.2483
      3 N         -60.5818  -44.4280  -27.2366 N.am    1  UNL1       -0.2945
      4 H         -60.9867  -43.4714  -27.3386 H       1  UNL1        0.1501
      5 C         -61.2441  -44.3979  -24.7772 C.ar    1  UNL1        0.0808
      6 C         -61.1537  -42.9952  -24.7359 C.ar    1  UNL1        0.0080
      7 C         -61.5851  -42.2850  -23.6134 C.ar    1  UNL1        0.0148
      8 C         -62.1279  -42.9600  -22.5107 C.ar    1  UNL1        0.0502
      9 C         -62.2274  -44.3582  -22.5476 C.ar    1  UNL1        0.0443
     10 C         -61.7957  -45.0749  -23.6682 C.ar    1  UNL1        0.1457
     11 F         -61.9690  -46.4200  -23.6743 F       1  UNL1       -0.2040
     12 N         -62.5654  -42.2276  -21.3510 N.pl3   1  UNL1       -0.3040
     13 C         -63.9836  -42.1950  -20.9789 C.3     1  UNL1        0.1123
     14 C         -64.4299  -40.7425  -20.8045 C.3     1  UNL1        0.1136
     15 N         -63.4989  -39.9874  -19.9452 N.pl3   1  UNL1       -0.2897
     16 C         -62.2665  -40.6338  -19.4611 C.3     1  UNL1        0.1136
     17 C         -61.5925  -41.4383  -20.5821 C.3     1  UNL1        0.1123
     18 C         -63.8775  -38.6908  -19.4269 C.ar    1  UNL1        0.1318
     19 C         -64.8751  -38.5553  -18.4449 C.ar    1  UNL1        0.0343
     20 C         -65.2098  -37.2864  -17.9691 C.ar    1  UNL1        0.0083
     21 C         -64.5709  -36.1477  -18.4803 C.ar    1  UNL1        0.0906
     22 C         -63.5648  -36.3243  -19.4414 C.ar    1  UNL1        0.1041
     23 N         -63.2541  -37.5697  -19.8879 N.ar    1  UNL1       -0.2292
     24 C         -64.8882  -34.7771  -17.9387 C.3     1  UNL1        0.4200
     25 F         -65.9536  -34.2457  -18.6410 F       1  UNL1       -0.1658
     26 F         -65.2220  -34.8474  -16.5972 F       1  UNL1       -0.1658
     27 F         -63.7968  -33.9359  -18.0699 F       1  UNL1       -0.1658
     28 C         -59.9711  -45.0836  -28.4034 C.3     1  UNL1        0.1535
     29 C         -60.8612  -46.1729  -28.9550 C.2     1  UNL1        0.2443
     30 O         -60.3811  -47.0533  -29.7211 O.2     1  UNL1       -0.2730
     31 N         -62.2248  -46.2653  -28.5119 N.am    1  UNL1       -0.2825
     32 H         -62.5057  -45.6966  -27.6811 H       1  UNL1        0.1549
     33 C         -63.1765  -47.2066  -29.0355 C.ar    1  UNL1        0.0535
     34 C         -63.3016  -48.4665  -28.4348 C.ar    1  UNL1        0.0353
     35 C         -64.2371  -49.3783  -28.9295 C.ar    1  UNL1        0.1002
     36 N         -65.0326  -49.0380  -29.9778 N.ar    1  UNL1       -0.2422
     37 C         -64.9477  -47.8169  -30.5686 C.ar    1  UNL1        0.1002
     38 C         -64.0246  -46.8759  -30.1058 C.ar    1  UNL1        0.0353
     39 C         -59.5961  -44.0611  -29.4999 C.3     1  UNL1        0.0573
     40 C         -60.7878  -43.5238  -30.2507 C.ar    1  UNL1        0.0026
     41 C         -61.0158  -43.5646  -31.6274 C.ar    1  UNL1        0.0753
     42 S         -59.8776  -44.1812  -32.8660 S.3     1  UNL1       -0.1250
     43 N         -62.2105  -43.0133  -31.9365 N.ar    1  UNL1       -0.3489
     44 C         -62.7401  -42.6096  -30.7695 C.ar    1  UNL1        0.0567
     45 C         -63.9599  -41.9620  -30.5781 C.ar    1  UNL1        0.0170
     46 C         -64.3120  -41.5947  -29.2670 C.ar    1  UNL1        0.0015
     47 C         -63.4404  -41.8662  -28.1902 C.ar    1  UNL1        0.0001
     48 C         -62.2126  -42.5145  -28.4134 C.ar    1  UNL1        0.0012
     49 C         -61.8996  -42.8917  -29.7208 C.ar    1  UNL1        0.0136
     50 H         -59.2559  -42.9254  -32.9933 H       1  UNL1        0.1085
     51 H         -62.6242  -42.9030  -32.8891 H       1  UNL1        0.1664
@<TRIPOS>BOND
     1     1     2    2
     2     2     3   am
     3     3    28    1
     4    28    39    1
     5    39    40    1
     6    40    41   ar
     7    41    42    1
     8    41    43   ar
     9    43    44   ar
    10    44    45   ar
    11    45    46   ar
    12    46    47   ar
    13    47    48   ar
    14    48    49   ar
    15    28    29    1
    16    29    30    2
    17    29    31   am
    18    31    33    1
    19    33    34   ar
    20    34    35   ar
    21    35    36   ar
    22    36    37   ar
    23    37    38   ar
    24     2     5    1
    25     5     6   ar
    26     6     7   ar
    27     7     8   ar
    28     8    12    1
    29    12    13    1
    30    13    14    1
    31    14    15    1
    32    15    18    1
    33    18    19   ar
    34    19    20   ar
    35    20    21   ar
    36    21    24    1
    37    24    25    1
    38    24    26    1
    39    24    27    1
    40    21    22   ar
    41    22    23   ar
    42    15    16    1
    43    16    17    1
    44     8     9   ar
    45     9    10   ar
    46    10    11    1
    47    49    40   ar
    48    38    33   ar
    49    10     5   ar
    50    49    44   ar
    51    17    12    1
    52    23    18   ar
    53     3     4    1
    54    42    50    1
    55    43    51    1
    56    31    32    1
@<TRIPOS>MOLECULE
*****
 51 56 0 0 0
SMALL
GASTEIGER

@<TRIPOS>ATOM
      1 O         -60.0166  -46.2052  -25.2373 O.2     1  UNL1       -0.2701
      2 C         -60.6289  -45.1264  -25.4675 C.2     1  UNL1        0.2483
      3 N         -60.7756  -44.6707  -26.8224 N.am    1  UNL1       -0.2945
      4 H         -61.4956  -43.9406  -27.0176 H       1  UNL1        0.1501
      5 C         -61.2048  -44.3645  -24.3303 C.ar    1  UNL1        0.0808
      6 C         -60.9774  -42.9793  -24.2462 C.ar    1  UNL1        0.0080
      7 C         -61.5167  -42.2300  -23.1983 C.ar    1  UNL1        0.0148
      8 C         -62.3058  -42.8462  -22.2166 C.ar    1  UNL1        0.0502
      9 C         -62.5425  -44.2259  -22.2979 C.ar    1  UNL1        0.0443
     10 C         -62.0039  -44.9817  -23.3440 C.ar    1  UNL1        0.1457
     11 F         -62.3125  -46.3010  -23.4063 F       1  UNL1       -0.2040
     12 N         -62.8552  -42.0742  -21.1326 N.pl3   1  UNL1       -0.3040
     13 C         -64.3058  -41.9937  -20.9325 C.3     1  UNL1        0.1123
     14 C         -64.7257  -40.5257  -20.8426 C.3     1  UNL1        0.1136
     15 N         -63.8805  -39.7758  -19.8947 N.pl3   1  UNL1       -0.2897
     16 C         -62.7339  -40.4438  -19.2542 C.3     1  UNL1        0.1136
     17 C         -61.9566  -41.2934  -20.2701 C.3     1  UNL1        0.1123
     18 C         -64.2785  -38.4571  -19.4522 C.ar    1  UNL1        0.1318
     19 C         -65.5193  -37.9039  -19.8160 C.ar    1  UNL1        0.0343
     20 C         -65.8669  -36.6290  -19.3665 C.ar    1  UNL1        0.0083
     21 C         -64.9771  -35.8915  -18.5723 C.ar    1  UNL1        0.0906
     22 C         -63.7591  -36.4857  -18.2105 C.ar    1  UNL1        0.1041
     23 N         -63.4432  -37.7293  -18.6581 N.ar    1  UNL1       -0.2292
     24 C         -65.3618  -34.5348  -18.0396 C.3     1  UNL1        0.4200
     25 F         -66.6072  -34.1897  -18.5303 F       1  UNL1       -0.1658
     26 F         -65.4099  -34.5490  -16.6563 F       1  UNL1       -0.1658
     27 F         -64.4415  -33.5779  -18.4312 F       1  UNL1       -0.1658
     28 C         -60.0717  -45.3111  -27.9442 C.3     1  UNL1        0.1535
     29 C         -60.9462  -46.3301  -28.6371 C.2     1  UNL1        0.2443
     30 O         -60.4448  -47.1227  -29.4814 O.2     1  UNL1       -0.2730
     31 N         -62.3218  -46.4658  -28.2456 N.am    1  UNL1       -0.2825
     32 H         -62.6261  -45.9907  -27.3656 H       1  UNL1        0.1549
     33 C         -63.2586  -47.3404  -28.8961 C.ar    1  UNL1        0.0535
     34 C         -63.4488  -48.6375  -28.4009 C.ar    1  UNL1        0.0353
     35 C         -64.3706  -49.4854  -29.0194 C.ar    1  UNL1        0.1002
     36 N         -65.0907  -49.0478  -30.0860 N.ar    1  UNL1       -0.2422
     37 C         -64.9422  -47.7890  -30.5769 C.ar    1  UNL1        0.1002
     38 C         -64.0300  -46.9094  -29.9886 C.ar    1  UNL1        0.0353
     39 C         -59.5296  -44.2675  -28.9468 C.3     1  UNL1        0.0573
     40 C         -60.5700  -43.7755  -29.9205 C.ar    1  UNL1        0.0026
     41 C         -61.7988  -43.1820  -29.6256 C.ar    1  UNL1        0.0753
     42 S         -62.4940  -42.9554  -27.9901 S.3     1  UNL1       -0.1250
     43 N         -62.4539  -42.8385  -30.7568 N.ar    1  UNL1       -0.3489
     44 C         -61.6586  -43.2199  -31.7705 C.ar    1  UNL1        0.0567
     45 C         -61.9156  -43.0941  -33.1351 C.ar    1  UNL1        0.0170
     46 C         -60.9562  -43.5924  -34.0346 C.ar    1  UNL1        0.0015
     47 C         -59.7815  -44.2120  -33.5560 C.ar    1  UNL1        0.0001
     48 C         -59.5515  -44.3317  -32.1738 C.ar    1  UNL1        0.0012
     49 C         -60.5076  -43.8051  -31.3031 C.ar    1  UNL1        0.0136
     50 H         -63.0990  -44.2254  -28.0156 H       1  UNL1        0.1085
     51 H         -63.3949  -42.3908  -30.8270 H       1  UNL1        0.1664
@<TRIPOS>BOND
     1     1     2    2
     2     2     3   am
     3     3    28    1
     4    28    39    1
     5    39    40    1
     6    40    41   ar
     7    41    42    1
     8    41    43   ar
     9    43    44   ar
    10    44    45   ar
    11    45    46   ar
    12    46    47   ar
    13    47    48   ar
    14    48    49   ar
    15    28    29    1
    16    29    30    2
    17    29    31   am
    18    31    33    1
    19    33    34   ar
    20    34    35   ar
    21    35    36   ar
    22    36    37   ar
    23    37    38   ar
    24     2     5    1
    25     5     6   ar
    26     6     7   ar
    27     7     8   ar
    28     8    12    1
    29    12    13    1
    30    13    14    1
    31    14    15    1
    32    15    18    1
    33    18    19   ar
    34    19    20   ar
    35    20    21   ar
    36    21    24    1
    37    24    25    1
    38    24    26    1
    39    24    27    1
    40    21    22   ar
    41    22    23   ar
    42    15    16    1
    43    16    17    1
    44     8     9   ar
    45     9    10   ar
    46    10    11    1
    47    49    40   ar
    48    38    33   ar
    49    10     5   ar
    50    49    44   ar
    51    17    12    1
    52    23    18   ar
    53     3     4    1
    54    42    50    1
    55    43    51    1
    56    31    32    1
@<TRIPOS>MOLECULE
*****
 51 56 0 0 0
SMALL
GASTEIGER

@<TRIPOS>ATOM
      1 O         -60.0442  -46.8058  -24.9805 O.2     1  UNL1       -0.2701
      2 C         -60.9869  -45.9875  -25.1637 C.2     1  UNL1        0.2483
      3 N         -61.6668  -45.9625  -26.4293 N.am    1  UNL1       -0.2945
      4 H         -62.5936  -45.4846  -26.4773 H       1  UNL1        0.1501
      5 C         -61.3867  -45.0843  -24.0548 C.ar    1  UNL1        0.0808
      6 C         -62.2582  -45.5621  -23.0599 C.ar    1  UNL1        0.0080
      7 C         -62.6424  -44.7442  -21.9951 C.ar    1  UNL1        0.0148
      8 C         -62.1549  -43.4334  -21.8938 C.ar    1  UNL1        0.0502
      9 C         -61.2800  -42.9525  -22.8785 C.ar    1  UNL1        0.0443
     10 C         -60.8929  -43.7663  -23.9479 C.ar    1  UNL1        0.1457
     11 F         -59.9995  -43.2703  -24.8398 F       1  UNL1       -0.2040
     12 N         -62.5575  -42.5885  -20.7997 N.pl3   1  UNL1       -0.3040
     13 C         -63.9569  -42.5479  -20.3627 C.3     1  UNL1        0.1123
     14 C         -64.4353  -41.0957  -20.3246 C.3     1  UNL1        0.1136
     15 N         -63.4864  -40.2298  -19.6000 N.pl3   1  UNL1       -0.2897
     16 C         -62.2146  -40.7907  -19.1112 C.3     1  UNL1        0.1136
     17 C         -61.5720  -41.6976  -20.1707 C.3     1  UNL1        0.1123
     18 C         -63.8765  -38.8932  -19.2069 C.ar    1  UNL1        0.1318
     19 C         -64.8715  -38.6738  -18.2375 C.ar    1  UNL1        0.0343
     20 C         -65.2177  -37.3685  -17.8843 C.ar    1  UNL1        0.0083
     21 C         -64.5929  -36.2778  -18.5059 C.ar    1  UNL1        0.0906
     22 C         -63.5889  -36.5360  -19.4507 C.ar    1  UNL1        0.1041
     23 N         -63.2669  -37.8154  -19.7768 N.ar    1  UNL1       -0.2292
     24 C         -64.9225  -34.8648  -18.0971 C.3     1  UNL1        0.4200
     25 F         -63.8142  -34.0631  -18.2964 F       1  UNL1       -0.1658
     26 F         -65.9763  -34.3725  -18.8475 F       1  UNL1       -0.1658
     27 F         -65.2815  -34.8145  -16.7612 F       1  UNL1       -0.1658
     28 C         -61.1822  -46.7203  -27.5934 C.3     1  UNL1        0.1535
     29 C         -62.2987  -47.0094  -28.5695 C.2     1  UNL1        0.2443
     30 O         -62.7230  -48.1892  -28.7124 O.2     1  UNL1       -0.2730
     31 N         -62.9479  -45.9205  -29.2455 N.am    1  UNL1       -0.2825
     32 H         -62.7590  -44.9521  -28.9005 H       1  UNL1        0.1549
     33 C         -63.9585  -46.0901  -30.2534 C.ar    1  UNL1        0.0535
     34 C         -64.3313  -44.9965  -31.0464 C.ar    1  UNL1        0.0353
     35 C         -65.3008  -45.1607  -32.0386 C.ar    1  UNL1        0.1002
     36 N         -65.8671  -46.3792  -32.2436 N.ar    1  UNL1       -0.2422
     37 C         -65.5122  -47.4626  -31.5035 C.ar    1  UNL1        0.1002
     38 C         -64.5476  -47.3417  -30.5000 C.ar    1  UNL1        0.0353
     39 C         -60.0041  -46.0026  -28.2900 C.3     1  UNL1        0.0573
     40 C         -60.4182  -44.7642  -29.0433 C.ar    1  UNL1        0.0026
     41 C         -60.0950  -44.4187  -30.3568 C.ar    1  UNL1        0.0753
     42 S         -59.0033  -45.3288  -31.4474 S.3     1  UNL1       -0.1250
     43 N         -60.6732  -43.2477  -30.7051 N.ar    1  UNL1       -0.3489
     44 C         -61.3515  -42.8374  -29.6203 C.ar    1  UNL1        0.0567
     45 C         -62.0952  -41.6657  -29.4861 C.ar    1  UNL1        0.0170
     46 C         -62.7038  -41.4106  -28.2441 C.ar    1  UNL1        0.0015
     47 C         -62.5450  -42.3144  -27.1712 C.ar    1  UNL1        0.0001
     48 C         -61.7831  -43.4853  -27.3328 C.ar    1  UNL1        0.0012
     49 C         -61.2118  -43.7272  -28.5837 C.ar    1  UNL1        0.0136
     50 H         -57.8721  -44.6389  -30.9741 H       1  UNL1        0.1085
     51 H         -60.5892  -42.7533  -31.6212 H       1  UNL1        0.1664
@<TRIPOS>BOND
     1     1     2    2
     2     2     3   am
     3     3    28    1
     4    28    39    1
     5    39    40    1
     6    40    41   ar
     7    41    42    1
     8    41    43   ar
     9    43    44   ar
    10    44    45   ar
    11    45    46   ar
    12    46    47   ar
    13    47    48   ar
    14    48    49   ar
    15    28    29    1
    16    29    30    2
    17    29    31   am
    18    31    33    1
    19    33    34   ar
    20    34    35   ar
    21    35    36   ar
    22    36    37   ar
    23    37    38   ar
    24     2     5    1
    25     5     6   ar
    26     6     7   ar
    27     7     8   ar
    28     8    12    1
    29    12    13    1
    30    13    14    1
    31    14    15    1
    32    15    18    1
    33    18    19   ar
    34    19    20   ar
    35    20    21   ar
    36    21    24    1
    37    24    25    1
    38    24    26    1
    39    24    27    1
    40    21    22   ar
    41    22    23   ar
    42    15    16    1
    43    16    17    1
    44     8     9   ar
    45     9    10   ar
    46    10    11    1
    47    49    40   ar
    48    38    33   ar
    49    10     5   ar
    50    49    44   ar
    51    17    12    1
    52    23    18   ar
    53     3     4    1
    54    42    50    1
    55    43    51    1
    56    31    32    1
